@<TRIPOS>MOLECULE
3R540
247   249    1
SMALL
USER_CHARGES


@<TRIPOS>ATOM
      1 CA          0.0845  -11.4942  -43.5787 C.3       0 UNK        -0.1800 
      2 C           0.0830  -11.3471  -45.0938 C.2       0 UNK         0.5000 
      3 O           0.7557  -10.4642  -45.6250 O.2       0 UNK        -0.5000 
      4 N          -0.6525  -12.2228  -45.7928 N.am      1 UNK        -0.5000 
      5 CA         -0.7760  -12.2740  -47.2586 C.3       1 UNK         0.1400 
      6 C6         -1.8359  -13.3258  -47.6696 C.3       23 UNK        -0.0398 
      7 S7         -2.3811  -13.2113  -49.4095 S.3       23 UNK        -0.2404 
      8 C8         -2.8288  -14.9404  -49.7723 C.3       23 UNK        -0.0205 
      9 C9         -1.6422  -15.7612  -50.2595 C.ar      23 UNK        -0.0193 
     10 C10        -1.4266  -15.9415  -51.6293 C.ar      23 UNK        -0.1150 
     11 C11        -0.3642  -16.7283  -52.0858 C.ar      23 UNK        -0.0193 
     12 C12         0.4889  -17.3370  -51.1607 C.ar      23 UNK        -0.1150 
     13 C13         0.2791  -17.1708  -49.7892 C.ar      23 UNK        -0.0193 
     14 C14        -0.7819  -16.3765  -49.3467 C.ar      23 UNK        -0.1150 
     15 C15         1.1786  -17.8701  -48.7807 C.3       23 UNK        -0.0205 
     16 S16         0.6172  -19.5641  -48.4450 S.3       23 UNK        -0.2404 
     17 C17        -1.0213  -19.2323  -47.7174 C.3       23 UNK        -0.0398 
     18 CA         -1.6274  -20.5044  -47.1004 C.3       11 UNK         0.1400 
     19 N          -0.9702  -20.8714  -45.8451 N.am      11 UNK        -0.5000 
     20 C          -1.1042  -22.0379  -45.2026 C.2       10 UNK         0.5000 
     21 O          -1.8376  -22.9504  -45.5899 O.2       10 UNK        -0.5000 
     22 CA         -0.3254  -22.1745  -43.8823 C.3       10 UNK         0.1400 
     23 CB          1.1646  -22.4381  -44.1468 C.3       10 UNK        -0.1800 
     24 N          -0.4749  -20.9816  -43.0455 N.am      10 UNK        -0.5000 
     25 C          -1.6118  -20.6500  -42.4174 C.2       9 UNK         0.5000 
     26 O          -2.6136  -21.3642  -42.4076 O.2       9 UNK        -0.5000 
     27 CA         -1.6556  -19.2878  -41.7010 C.3       9 UNK         0.1400 
     28 CB         -1.0982  -19.4105  -40.2751 C.3       9 UNK        -0.1800 
     29 N          -0.9424  -18.2301  -42.4191 N.am      9 UNK        -0.5000 
     30 C          -1.2939  -17.7448  -43.6185 C.2       8 UNK         0.5000 
     31 O          -2.2832  -18.1223  -44.2452 O.2       8 UNK        -0.5000 
     32 CA         -0.3558  -16.6954  -44.2493 C.3       8 UNK         0.1400 
     33 CB         -0.6382  -15.2930  -43.6928 C.3       8 UNK        -0.1800 
     34 N           1.0625  -17.0115  -44.0725 N.am      8 UNK        -0.5000 
     35 C           1.6521  -18.1267  -44.5275 C.2       7 UNK         0.5000 
     36 O           1.0655  -19.0008  -45.1613 O.2       7 UNK        -0.5000 
     37 CA          3.1261  -18.3321  -44.1511 C.3       7 UNK         0.1400 
     38 CB          4.0455  -17.4617  -45.0204 C.3       7 UNK        -0.1800 
     39 N           3.3529  -18.0507  -42.7345 N.am      7 UNK        -0.5000 
     40 C           2.8815  -18.8110  -41.7348 C.2       6 UNK         0.5000 
     41 O           2.2591  -19.8598  -41.9059 O.2       6 UNK        -0.5000 
     42 CA          3.1086  -18.2863  -40.3052 C.3       6 UNK         0.1400 
     43 CB          4.5000  -18.6893  -39.7946 C.3       6 UNK        -0.1800 
     44 N           2.9582  -16.8330  -40.2085 N.am      6 UNK        -0.5000 
     45 C           1.8048  -16.1755  -40.3978 C.2       5 UNK         0.5000 
     46 O           0.7362  -16.7302  -40.6454 O.2       5 UNK        -0.5000 
     47 CA          1.8642  -14.6385  -40.3490 C.3       5 UNK         0.1400 
     48 CB          1.6760  -14.1343  -38.9108 C.3       5 UNK        -0.1800 
     49 N           3.1120  -14.1014  -40.8951 N.am      5 UNK        -0.5000 
     50 C           3.4794  -14.2026  -42.1782 C.2       4 UNK         0.5000 
     51 O           2.8047  -14.7679  -43.0439 O.2       4 UNK        -0.5000 
     52 CA          4.8521  -13.6152  -42.5408 C.3       4 UNK         0.1400 
     53 CB          5.8764  -14.7346  -42.7794 C.3       4 UNK        -0.1800 
     54 N           4.7562  -12.7886  -43.7377 N.am      4 UNK        -0.5000 
     55 C           4.2515  -11.5514  -43.7742 C.2       3 UNK         0.5000 
     56 O           3.8753  -10.9405  -42.7732 O.2       3 UNK        -0.5000 
     57 CA          4.1328  -10.8834  -45.1565 C.3       3 UNK         0.1400 
     58 CB          5.4985  -10.3792  -45.6617 C.3       3 UNK        -0.1800 
     59 N           3.4476  -11.7070  -46.1608 N.am      3 UNK        -0.5000 
     60 C           3.8460  -12.8472  -46.7457 C.2       2 UNK         0.5000 
     61 O           4.9216  -13.3978  -46.5047 O.2       2 UNK        -0.5000 
     62 CA          2.8607  -13.4833  -47.7462 C.3       2 UNK         0.1400 
     63 CB          3.0864  -14.9925  -47.9296 C.3       2 UNK        -0.1800 
     64 N           1.4770  -13.2584  -47.3240 N.am      2 UNK        -0.5000 
     65 C           0.5815  -12.4997  -47.9700 C.2       1 UNK         0.5000 
     66 O           0.8075  -11.9428  -49.0450 O.2       1 UNK        -0.5000 
     67 C          -3.1621  -20.4094  -47.0060 C.2       11 UNK         0.5000 
     68 O          -3.8178  -20.5130  -48.0417 O.2       11 UNK        -0.5000 
     69 N          -3.7233  -20.3131  -45.7922 N.am      12 UNK        -0.5000 
     70 CA         -5.1596  -20.4510  -45.5283 C.3       12 UNK         0.1400 
     71 CB         -5.4280  -20.2285  -44.0332 C.3       12 UNK        -0.1800 
     72 C          -5.7405  -21.8061  -45.9930 C.2       12 UNK         0.5000 
     73 O          -6.9350  -21.8790  -46.2816 O.2       12 UNK        -0.5000 
     74 N          -4.8808  -22.8300  -46.0962 N.am      13 UNK        -0.5000 
     75 CA         -5.1450  -24.0696  -46.8168 C.3       13 UNK         0.1400 
     76 CB         -4.7890  -25.2689  -45.9240 C.3       13 UNK        -0.1800 
     77 C          -4.3349  -24.1010  -48.1242 C.2       13 UNK         0.5000 
     78 O          -4.9144  -24.2916  -49.1936 O.2       13 UNK        -0.5000 
     79 N          -3.0085  -23.9195  -48.0279 N.am      14 UNK        -0.5000 
     80 CA         -2.0534  -24.1851  -49.1099 C.3       14 UNK         0.1400 
     81 CB         -0.6196  -24.1628  -48.5567 C.3       14 UNK        -0.1800 
     82 C          -2.1809  -23.2938  -50.3606 C.2       14 UNK         0.5000 
     83 O          -1.7446  -23.7275  -51.4251 O.2       14 UNK        -0.5000 
     84 N          -2.7816  -22.1030  -50.2350 N.am      15 UNK        -0.5000 
     85 CA         -3.0981  -21.2071  -51.3519 C.3       15 UNK         0.1400 
     86 CB         -2.5603  -19.7985  -51.0547 C.3       15 UNK        -0.1800 
     87 C          -4.6119  -21.1698  -51.6400 C.2       15 UNK         0.5000 
     88 O          -5.0430  -20.3701  -52.4723 O.2       15 UNK        -0.5000 
     89 N          -5.3900  -22.0303  -50.9698 N.am      16 UNK        -0.5000 
     90 CA         -6.8412  -22.1509  -51.0867 C.3       16 UNK         0.1400 
     91 CB         -7.4684  -21.9653  -49.6938 C.3       16 UNK        -0.1800 
     92 C          -7.2234  -23.4949  -51.7384 C.2       16 UNK         0.5000 
     93 O          -8.1890  -24.1343  -51.3193 O.2       16 UNK        -0.5000 
     94 N          -6.4554  -23.8880  -52.7636 N.am      17 UNK        -0.5000 
     95 CA         -6.6179  -25.0506  -53.6424 C.3       17 UNK         0.1400 
     96 CB         -8.0339  -25.1290  -54.2513 C.3       17 UNK        -0.1800 
     97 C          -6.1468  -26.3898  -53.0430 C.2       17 UNK         0.5000 
     98 O          -6.3080  -27.4184  -53.7021 O.2       17 UNK        -0.5000 
     99 N          -5.5351  -26.3808  -51.8477 N.am      18 UNK        -0.5000 
    100 CA        -4.9320  -27.5793  -51.2498 C.3       18 UNK         0.1400 
    101 CB        -4.8239  -27.4175  -49.7271 C.3       18 UNK        -0.1800 
    102 C         -3.5549  -27.9211  -51.8554 C.2       18 UNK         0.5000 
    103 O         -3.1291  -29.0729  -51.7588 O.2       18 UNK        -0.5000 
    104 N         -2.8894  -26.9351  -52.4715 N.am      19 UNK        -0.5000 
    105 CA        -1.6276  -27.1011  -53.1888 C.3       19 UNK         0.1400 
    106 CB        -0.4294  -26.9554  -52.2320 C.3       19 UNK        -0.1800 
    107 C         -1.5833  -26.1060  -54.3544 C.2       19 UNK         0.5000 
    108 O         -1.6055  -26.5235  -55.5129 O.2       19 UNK        -0.5000 
    109 N         -1.5798  -24.8107  -54.0253 N.am      20 UNK        -0.5000 
    110 CA        -1.7794  -23.7016  -54.9534 C.3       20 UNK         0.1400 
    111 CB        -0.7208  -22.6231  -54.6676 C.3       20 UNK        -0.1800 
    112 C         -3.1950  -23.1379  -54.7525 C.2       20 UNK         0.5000 
    113 O         -3.8398  -23.4399  -53.7465 O.2       20 UNK        -0.5000 
    114 N         -3.6513  -22.3126  -55.6981 N.am      21 UNK        -0.5000 
    115 CA        -4.9572  -21.6460  -55.6684 C.3       21 UNK         0.1400 
    116 CB        -5.8683  -22.2782  -56.7362 C.3       21 UNK        -0.1800 
    117 C         -4.8033  -20.1216  -55.8416 C.2       21 UNK         0.5000 
    118 O         -5.7072  -19.4681  -56.3650 O.2       21 UNK        -0.5000 
    119 N         -3.6479  -19.5838  -55.4286 N.am      22 UNK        -0.5000 
    120 CA        -3.2862  -18.1630  -55.5488 C.3       22 UNK         0.1400 
    121 C         -3.9328  -17.2110  -54.4976 C.2       22 UNK         0.5000 
    122 N         -4.6439  -17.6994  -53.4886 N.am      22 UNK        -0.7600 
    123 O         -3.8013  -15.9956  -54.6140 O.2       22 UNK        -0.5000 
    124 C124       -1.7501  -17.9800  -55.6593 C.3       23 UNK        -0.0398 
    125 S125       -0.8241  -18.4987  -54.1687 S.3       23 UNK        -0.2404 
    126 C126       -0.1363  -16.9160  -53.5772 C.3       23 UNK        -0.0205 
    127 H127       -0.6947  -12.1754  -43.2363 H         1 UNK         0.0600 
    128 H128       -0.0815  -10.5262  -43.1062 H         1 UNK         0.0600 
    129 H129        1.0470  -11.8791  -43.2409 H         1 UNK         0.0600 
    130 H130       -1.1991  -12.9045  -45.2877 H         1 UNK         0.3000 
    131 H131       -1.1387  -11.2927  -47.5721 H         1 UNK         0.0600 
    132 H132       -2.7316  -13.1978  -47.0599 H         1 UNK         0.0800 
    133 H133       -1.4731  -14.3275  -47.4481 H         1 UNK         0.0800 
    134 H134       -3.6100  -14.9406  -50.5340 H         1 UNK         0.0800 
    135 H135       -3.2736  -15.4051  -48.8909 H         1 UNK         0.0800 
    136 H136       -2.0937  -15.4774  -52.3425 H         1 UNK         0.1150 
    137 H137        1.3036  -17.9566  -51.5084 H         1 UNK         0.1150 
    138 H138       -0.9520  -16.2689  -48.2868 H         1 UNK         0.1150 
    139 H139        1.2094  -17.3152  -47.8419 H         1 UNK         0.0800 
    140 H140        2.2028  -17.9023  -49.1546 H         1 UNK         0.0800 
    141 H141       -1.6573  -18.8427  -48.5112 H         1 UNK         0.0800 
    142 H142       -0.9445  -18.4421  -46.9700 H         1 UNK         0.0800 
    143 H143       -1.4473  -21.3189  -47.7999 H         1 UNK         0.0600 
    144 H144       -0.3086  -20.1884  -45.4801 H         1 UNK         0.3000 
    145 H145       -0.7302  -23.0322  -43.3410 H         1 UNK         0.0600 
    146 H146        1.7084  -22.5877  -43.2138 H         1 UNK         0.0600 
    147 H147        1.3002  -23.3355  -44.7517 H         1 UNK         0.0600 
    148 H148        1.6365  -21.6104  -44.6770 H         1 UNK         0.0600 
    149 H149        0.3215  -20.3589  -42.9839 H         1 UNK         0.3000 
    150 H150       -2.7037  -18.9896  -41.6293 H         1 UNK         0.0600 
    151 H151       -1.6183  -20.1898  -39.7166 H         1 UNK         0.0600 
    152 H152       -1.2213  -18.4789  -39.7227 H         1 UNK         0.0600 
    153 H153       -0.0369  -19.6603  -40.2784 H         1 UNK         0.0600 
    154 H154       -0.1516  -17.8119  -41.9365 H         1 UNK         0.3000 
    155 H155       -0.5529  -16.6766  -45.3227 H         1 UNK         0.0600 
    156 H156       -1.6633  -14.9881  -43.9058 H         1 UNK         0.0600 
    157 H157        0.0280  -14.5542  -44.1372 H         1 UNK         0.0600 
    158 H158       -0.5027  -15.2538  -42.6122 H         1 UNK         0.0600 
    159 H159        1.6251  -16.3312  -43.5714 H         1 UNK         0.3000 
    160 H160        3.3774  -19.3787  -44.3365 H         1 UNK         0.0600 
    161 H161        3.8346  -16.3991  -44.9008 H         1 UNK         0.0600 
    162 H162        3.9193  -17.7020  -46.0769 H         1 UNK         0.0600 
    163 H163        5.0943  -17.6269  -44.7740 H         1 UNK         0.0600 
    164 H164        3.8139  -17.1825  -42.5093 H         1 UNK         0.3000 
    165 H165        2.3597  -18.7485  -39.6585 H         1 UNK         0.0600 
    166 H166        4.6407  -18.3895  -38.7560 H         1 UNK         0.0600 
    167 H167        4.6335  -19.7710  -39.8401 H         1 UNK         0.0600 
    168 H168        5.2954  -18.2350  -40.3866 H         1 UNK         0.0600 
    169 H169        3.7894  -16.2989  -40.0036 H         1 UNK         0.3000 
    170 H170        1.0401  -14.2553  -40.9542 H         1 UNK         0.0600 
    171 H171        0.7414  -14.5047  -38.4872 H         1 UNK         0.0600 
    172 H172        2.4855  -14.4630  -38.2579 H         1 UNK         0.0600 
    173 H173        1.6372  -13.0454  -38.8768 H         1 UNK         0.0600 
    174 H174        3.7175  -13.6199  -40.2458 H         1 UNK         0.3000 
    175 H175        5.2090  -12.9968  -41.7144 H         1 UNK         0.0600 
    176 H176        5.9536  -15.3903  -41.9111 H         1 UNK         0.0600 
    177 H177        5.6088  -15.3510  -43.6372 H         1 UNK         0.0600 
    178 H178        6.8688  -14.3234  -42.9646 H         1 UNK         0.0600 
    179 H179        4.9880  -13.2258  -44.6255 H         1 UNK         0.3000 
    180 H180        3.4978  -10.0062  -45.0222 H         1 UNK         0.0600 
    181 H181        6.2119  -11.1916  -45.8014 H         1 UNK         0.0600 
    182 H182        5.9398   -9.6807  -44.9499 H         1 UNK         0.0600 
    183 H183        5.3973   -9.8544  -46.6116 H         1 UNK         0.0600 
    184 H184        2.5201  -11.3697  -46.3935 H         1 UNK         0.3000 
    185 H185        3.0551  -13.0020  -48.7064 H         1 UNK         0.0600 
    186 H186        4.1169  -15.2147  -48.2092 H         1 UNK         0.0600 
    187 H187        2.8597  -15.5465  -47.0189 H         1 UNK         0.0600 
    188 H188        2.4517  -15.3731  -48.7282 H         1 UNK         0.0600 
    189 H189        1.2225  -13.6365  -46.4229 H         1 UNK         0.3000 
    190 H190       -3.1219  -20.1696  -44.9915 H         1 UNK         0.3000 
    191 H191       -5.6700  -19.6653  -46.0887 H         1 UNK         0.0600 
    192 H192       -5.0050  -21.0294  -43.4272 H         1 UNK         0.0600 
    193 H193       -6.4995  -20.2001  -43.8319 H         1 UNK         0.0600 
    194 H194       -5.0057  -19.2842  -43.6887 H         1 UNK         0.0600 
    195 H195       -3.9192  -22.6738  -45.8171 H         1 UNK         0.3000 
    196 H196       -6.2017  -24.1485  -47.0804 H         1 UNK         0.0600 
    197 H197       -4.9438  -26.2096  -46.4541 H         1 UNK         0.0600 
    198 H198       -5.4159  -25.2909  -45.0325 H         1 UNK         0.0600 
    199 H199       -3.7486  -25.2409  -45.5977 H         1 UNK         0.0600 
    200 H200       -2.6021  -23.7294  -47.1154 H         1 UNK         0.3000 
    201 H201       -2.2426  -25.2047  -49.4502 H         1 UNK         0.0600 
    202 H202       -0.5064  -24.8613  -47.7274 H         1 UNK         0.0600 
    203 H203       -0.3253  -23.1763  -48.2033 H         1 UNK         0.0600 
    204 H204        0.0967  -24.4566  -49.3252 H         1 UNK         0.0600 
    205 H205       -3.1466  -21.8123  -49.3335 H         1 UNK         0.3000 
    206 H206       -2.6116  -21.5503  -52.2643 H         1 UNK         0.0600 
    207 H207       -1.5018  -19.8223  -50.7966 H         1 UNK         0.0600 
    208 H208       -2.6616  -19.1512  -51.9253 H         1 UNK         0.0600 
    209 H209       -3.1045  -19.3193  -50.2424 H         1 UNK         0.0600 
    210 H210       -4.9544  -22.7036  -50.3477 H         1 UNK         0.3000 
    211 H211       -7.2353  -21.3666  -51.7355 H         1 UNK         0.0600 
    212 H212       -7.1876  -22.7706  -49.0152 H         1 UNK         0.0600 
    213 H213       -8.5572  -21.9498  -49.7519 H         1 UNK         0.0600 
    214 H214       -7.1540  -21.0246  -49.2411 H         1 UNK         0.0600 
    215 H215       -5.6201  -23.3454  -52.9654 H         1 UNK         0.3000 
    216 H216       -5.9401  -24.8674  -54.4765 H         1 UNK         0.0600 
    217 H217       -8.0726  -25.8672  -55.0530 H         1 UNK         0.0600 
    218 H218       -8.3331  -24.1726  -54.6803 H         1 UNK         0.0600 
    219 H219       -8.7812  -25.4182  -53.5124 H         1 UNK         0.0600 
    220 H220       -5.4487  -25.5118  -51.3375 H         1 UNK         0.3000 
    221 H221       -5.5935  -28.4279  -51.4378 H         1 UNK         0.0600 
    222 H222       -4.0301  -26.7256  -49.4531 H         1 UNK         0.0600 
    223 H223       -5.7574  -27.0585  -49.2931 H         1 UNK         0.0600 
    224 H224       -4.5907  -28.3723  -49.2547 H         1 UNK         0.0600 
    225 H225       -3.3210  -26.0230  -52.5388 H         1 UNK         0.3000 
    226 H226       -1.5919  -28.1012  -53.6266 H         1 UNK         0.0600 
    227 H227       -0.4284  -27.7475  -51.4833 H         1 UNK         0.0600 
    228 H228        0.5134  -27.0217  -52.7760 H         1 UNK         0.0600 
    229 H229       -0.4382  -26.0026  -51.7038 H         1 UNK         0.0600 
    230 H230       -1.6157  -24.5441  -53.0419 H         1 UNK         0.3000 
    231 H231       -1.6801  -24.0341  -55.9886 H         1 UNK         0.0600 
    232 H232        0.2854  -23.0184  -54.8069 H         1 UNK         0.0600 
    233 H233       -0.7888  -22.2474  -53.6462 H         1 UNK         0.0600 
    234 H234       -0.8283  -21.7708  -55.3394 H         1 UNK         0.0600 
    235 H235       -3.0653  -22.0982  -56.4935 H         1 UNK         0.3000 
    236 H236       -5.4402  -21.7876  -54.7007 H         1 UNK         0.0600 
    237 H237       -6.8715  -21.8517  -56.7015 H         1 UNK         0.0600 
    238 H238       -5.4760  -22.1218  -57.7415 H         1 UNK         0.0600 
    239 H239       -5.9708  -23.3520  -56.5795 H         1 UNK         0.0600 
    240 H240       -2.9702  -20.1746  -54.9715 H         1 UNK         0.3000 
    241 H241       -3.6914  -17.8221  -56.5036 H         1 UNK         0.0600 
    242 H242       -5.0611  -17.0608  -52.8325 H         1 UNK         0.3800 
    243 H243       -4.7577  -18.6993  -53.3476 H         1 UNK         0.3800 
    244 H244       -1.3784  -18.5725  -56.4963 H         1 UNK         0.0800 
    245 H245       -1.5124  -16.9483  -55.9207 H         1 UNK         0.0800 
    246 H246        0.9326  -16.8913  -53.7940 H         1 UNK         0.0800 
    247 H247       -0.5720  -16.0738  -54.1157 H         1 UNK         0.0800 
@<TRIPOS>BOND
     1    1    2 1    
     2    1  127 1    
     3    1  128 1    
     4    1  129 1    
     5    2    3 2    
     6    2    4 am   BACKBONE|DICT|INTERRES
     7    4    5 1    
     8    4  130 1    
     9    5    6 1    
    10    5   65 1    
    11    5  131 1    
    12    6    7 1    
    13    6  132 1    
    14    6  133 1    
    15    7    8 1    
    16    8    9 1    
    17    8  134 1    
    18    8  135 1    
    19    9   10 ar   
    20    9   14 ar   
    21   10   11 ar   
    22   10  136 1    
    23   11   12 ar   
    24   11  126 1    
    25   12   13 ar   
    26   12  137 1    
    27   13   14 ar   
    28   13   15 1    
    29   14  138 1    
    30   15   16 1    
    31   15  139 1    
    32   15  140 1    
    33   16   17 1    
    34   17   18 1    
    35   17  141 1    
    36   17  142 1    
    37   18   19 1    
    38   18   67 1    
    39   18  143 1    
    40   19   20 am   BACKBONE|DICT|INTERRES
    41   19  144 1    
    42   20   21 2    
    43   20   22 1    
    44   22   23 1    
    45   22   24 1    
    46   22  145 1    
    47   23  146 1    
    48   23  147 1    
    49   23  148 1    
    50   24   25 am   BACKBONE|DICT|INTERRES
    51   24  149 1    
    52   25   26 2    
    53   25   27 1    
    54   27   28 1    
    55   27   29 1    
    56   27  150 1    
    57   28  151 1    
    58   28  152 1    
    59   28  153 1    
    60   29   30 am   BACKBONE|DICT|INTERRES
    61   29  154 1    
    62   30   31 2    
    63   30   32 1    
    64   32   33 1    
    65   32   34 1    
    66   32  155 1    
    67   33  156 1    
    68   33  157 1    
    69   33  158 1    
    70   34   35 am   BACKBONE|DICT|INTERRES
    71   34  159 1    
    72   35   36 2    
    73   35   37 1    
    74   37   38 1    
    75   37   39 1    
    76   37  160 1    
    77   38  161 1    
    78   38  162 1    
    79   38  163 1    
    80   39   40 am   BACKBONE|DICT|INTERRES
    81   39  164 1    
    82   40   41 2    
    83   40   42 1    
    84   42   43 1    
    85   42   44 1    
    86   42  165 1    
    87   43  166 1    
    88   43  167 1    
    89   43  168 1    
    90   44   45 am   BACKBONE|DICT|INTERRES
    91   44  169 1    
    92   45   46 2    
    93   45   47 1    
    94   47   48 1    
    95   47   49 1    
    96   47  170 1    
    97   48  171 1    
    98   48  172 1    
    99   48  173 1    
   100   49   50 am   BACKBONE|DICT|INTERRES
   101   49  174 1    
   102   50   51 2    
   103   50   52 1    
   104   52   53 1    
   105   52   54 1    
   106   52  175 1    
   107   53  176 1    
   108   53  177 1    
   109   53  178 1    
   110   54   55 am   BACKBONE|DICT|INTERRES
   111   54  179 1    
   112   55   56 2    
   113   55   57 1    
   114   57   58 1    
   115   57   59 1    
   116   57  180 1    
   117   58  181 1    
   118   58  182 1    
   119   58  183 1    
   120   59   60 am   BACKBONE|DICT|INTERRES
   121   59  184 1    
   122   60   61 2    
   123   60   62 1    
   124   62   63 1    
   125   62   64 1    
   126   62  185 1    
   127   63  186 1    
   128   63  187 1    
   129   63  188 1    
   130   64   65 am   BACKBONE|DICT|INTERRES
   131   64  189 1    
   132   65   66 2    
   133   67   68 2    
   134   67   69 am   BACKBONE|DICT|INTERRES
   135   69   70 1    
   136   69  190 1    
   137   70   71 1    
   138   70   72 1    
   139   70  191 1    
   140   71  192 1    
   141   71  193 1    
   142   71  194 1    
   143   72   73 2    
   144   72   74 am   BACKBONE|DICT|INTERRES
   145   74   75 1    
   146   74  195 1    
   147   75   76 1    
   148   75   77 1    
   149   75  196 1    
   150   76  197 1    
   151   76  198 1    
   152   76  199 1    
   153   77   78 2    
   154   77   79 am   BACKBONE|DICT|INTERRES
   155   79   80 1    
   156   79  200 1    
   157   80   81 1    
   158   80   82 1    
   159   80  201 1    
   160   81  202 1    
   161   81  203 1    
   162   81  204 1    
   163   82   83 2    
   164   82   84 am   BACKBONE|DICT|INTERRES
   165   84   85 1    
   166   84  205 1    
   167   85   86 1    
   168   85   87 1    
   169   85  206 1    
   170   86  207 1    
   171   86  208 1    
   172   86  209 1    
   173   87   88 2    
   174   87   89 am   BACKBONE|DICT|INTERRES
   175   89   90 1    
   176   89  210 1    
   177   90   91 1    
   178   90   92 1    
   179   90  211 1    
   180   91  212 1    
   181   91  213 1    
   182   91  214 1    
   183   92   93 2    
   184   92   94 am   BACKBONE|DICT|INTERRES
   185   94   95 1    
   186   94  215 1    
   187   95   96 1    
   188   95   97 1    
   189   95  216 1    
   190   96  217 1    
   191   96  218 1    
   192   96  219 1    
   193   97   98 2    
   194   97   99 am   BACKBONE|DICT|INTERRES
   195   99  100 1    
   196   99  220 1    
   197  100  101 1    
   198  100  102 1    
   199  100  221 1    
   200  101  222 1    
   201  101  223 1    
   202  101  224 1    
   203  102  103 2    
   204  102  104 am   BACKBONE|DICT|INTERRES
   205  104  105 1    
   206  104  225 1    
   207  105  106 1    
   208  105  107 1    
   209  105  226 1    
   210  106  227 1    
   211  106  228 1    
   212  106  229 1    
   213  107  108 2    
   214  107  109 am   BACKBONE|DICT|INTERRES
   215  109  110 1    
   216  109  230 1    
   217  110  111 1    
   218  110  112 1    
   219  110  231 1    
   220  111  232 1    
   221  111  233 1    
   222  111  234 1    
   223  112  113 2    
   224  112  114 am   BACKBONE|DICT|INTERRES
   225  114  115 1    
   226  114  235 1    
   227  115  116 1    
   228  115  117 1    
   229  115  236 1    
   230  116  237 1    
   231  116  238 1    
   232  116  239 1    
   233  117  118 2    
   234  117  119 am   BACKBONE|DICT|INTERRES
   235  119  120 1    
   236  119  240 1    
   237  120  121 1    
   238  120  124 1    
   239  120  241 1    
   240  121  122 am   BACKBONE|DICT|INTERRES
   241  121  123 2    
   242  122  242 1    
   243  122  243 1    
   244  124  125 1    
   245  124  244 1    
   246  124  245 1    
   247  125  126 1    
   248  126  246 1    
   249  126  247 1    
@<TRIPOS>SUBSTRUCTURE
     1 UNK         1 GROUP             0       ****    0 ROOT    
