@<TRIPOS>MOLECULE
3R540
247   249    1
SMALL
USER_CHARGES


@<TRIPOS>ATOM
      1 CA          3.8248  -13.4723  -52.9546 C.3       0 UNK        -0.1800 
      2 C           2.8142  -13.8885  -51.8968 C.2       0 UNK         0.5000 
      3 O           2.9718  -13.5381  -50.7280 O.2       0 UNK        -0.5000 
      4 N           1.7654  -14.6170  -52.3000 N.am      1 UNK        -0.5000 
      5 CA          0.7127  -15.1622  -51.4285 C.3       1 UNK         0.1400 
      6 C6         -0.2510  -16.0867  -52.2084 C.3       23 UNK        -0.0398 
      7 S7          0.6132  -17.6047  -52.7434 S.3       23 UNK        -0.2404 
      8 C8         -0.2849  -18.9327  -51.8756 C.3       23 UNK        -0.0205 
      9 C9         -0.3253  -18.7610  -50.3636 C.ar      23 UNK        -0.0193 
     10 C10        -1.4812  -18.2745  -49.7507 C.ar      23 UNK        -0.1150 
     11 C11        -1.5480  -18.1241  -48.3637 C.ar      23 UNK        -0.0193 
     12 C12        -0.4438  -18.4757  -47.5849 C.ar      23 UNK        -0.1150 
     13 C13         0.7008  -19.0233  -48.1778 C.ar      23 UNK        -0.0193 
     14 C14         0.7603  -19.1415  -49.5710 C.ar      23 UNK        -0.1150 
     15 C15         1.8625  -19.5391  -47.3312 C.3       23 UNK        -0.0205 
     16 S16         1.3593  -20.3983  -45.7988 S.3       23 UNK        -0.2404 
     17 C17         0.0844  -21.5715  -46.3781 C.3       23 UNK        -0.0398 
     18 CA          0.4409  -23.0469  -46.1007 C.3       11 UNK         0.1400 
     19 N           0.7725  -23.2844  -44.6961 N.am      11 UNK        -0.5000 
     20 C           1.3578  -24.3894  -44.2208 C.2       10 UNK         0.5000 
     21 O           1.6813  -25.3480  -44.9206 O.2       10 UNK        -0.5000 
     22 CA          1.5842  -24.4371  -42.6993 C.3       10 UNK         0.1400 
     23 CB          2.9085  -23.7525  -42.3299 C.3       10 UNK        -0.1800 
     24 N           0.4901  -23.8114  -41.9528 N.am      10 UNK        -0.5000 
     25 C          -0.7549  -24.3028  -41.8930 C.2       9 UNK         0.5000 
     26 O          -1.1070  -25.3462  -42.4450 O.2       9 UNK        -0.5000 
     27 CA         -1.7886  -23.4536  -41.1303 C.3       9 UNK         0.1400 
     28 CB         -1.6040  -23.6017  -39.6123 C.3       9 UNK        -0.1800 
     29 N          -1.7720  -22.0296  -41.4906 N.am      9 UNK        -0.5000 
     30 C          -2.0115  -21.5613  -42.7249 C.2       8 UNK         0.5000 
     31 O          -2.1444  -22.2809  -43.7117 O.2       8 UNK        -0.5000 
     32 CA         -2.1099  -20.0434  -42.8993 C.3       8 UNK         0.1400 
     33 CB         -3.3620  -19.4727  -42.2102 C.3       8 UNK        -0.1800 
     34 N          -0.9061  -19.3712  -42.4136 N.am      8 UNK        -0.5000 
     35 C          -0.4271  -18.2436  -42.9511 C.2       7 UNK         0.5000 
     36 O          -0.9385  -17.6842  -43.9242 O.2       7 UNK        -0.5000 
     37 CA          0.8339  -17.6513  -42.2972 C.3       7 UNK         0.1400 
     38 CB          2.1019  -18.3078  -42.8642 C.3       7 UNK        -0.1800 
     39 N           0.8882  -16.2177  -42.5666 N.am      7 UNK        -0.5000 
     40 C           0.4727  -15.2580  -41.7292 C.2       6 UNK         0.5000 
     41 O           0.1564  -15.4637  -40.5565 O.2       6 UNK        -0.5000 
     42 CA          0.3698  -13.8253  -42.2978 C.3       6 UNK         0.1400 
     43 CB          1.6616  -13.0408  -42.0232 C.3       6 UNK        -0.1800 
     44 N           0.0973  -13.8009  -43.7355 N.am      6 UNK        -0.5000 
     45 C          -1.0254  -14.2543  -44.3113 C.2       5 UNK         0.5000 
     46 O          -2.0362  -14.5503  -43.6723 O.2       5 UNK        -0.5000 
     47 CA         -1.0343  -14.4059  -45.8488 C.3       5 UNK         0.1400 
     48 CB         -1.9768  -13.3602  -46.4681 C.3       5 UNK        -0.1800 
     49 N           0.2692  -14.2974  -46.5143 N.am      5 UNK        -0.5000 
     50 C           1.3820  -15.0099  -46.2832 C.2       4 UNK         0.5000 
     51 O           1.4711  -15.8806  -45.4191 O.2       4 UNK        -0.5000 
     52 CA          2.6289  -14.6646  -47.1245 C.3       4 UNK         0.1400 
     53 CB          2.9678  -15.8097  -48.0892 C.3       4 UNK        -0.1800 
     54 N           2.5085  -13.4173  -47.8842 N.am      4 UNK        -0.5000 
     55 C           2.5018  -12.1853  -47.3547 C.2       3 UNK         0.5000 
     56 O           2.5911  -11.9608  -46.1472 O.2       3 UNK        -0.5000 
     57 CA          2.3354  -11.0143  -48.3380 C.3       3 UNK         0.1400 
     58 CB          3.6906  -10.6115  -48.9401 C.3       3 UNK        -0.1800 
     59 N           1.4061  -11.3584  -49.4153 N.am      3 UNK        -0.5000 
     60 C           0.0790  -11.1803  -49.3537 C.2       2 UNK         0.5000 
     61 O          -0.4914  -10.6364  -48.4081 O.2       2 UNK        -0.5000 
     62 CA         -0.7613  -11.7057  -50.5361 C.3       2 UNK         0.1400 
     63 CB         -0.9921  -10.5976  -51.5740 C.3       2 UNK        -0.1800 
     64 N          -0.1704  -12.8688  -51.2019 N.am      2 UNK        -0.5000 
     65 C          -0.0580  -14.0815  -50.6411 C.2       1 UNK         0.5000 
     66 O          -0.4886  -14.3486  -49.5224 O.2       1 UNK        -0.5000 
     67 C          -0.6993  -23.9703  -46.5703 C.2       11 UNK         0.5000 
     68 O          -0.6421  -24.4855  -47.6853 O.2       11 UNK        -0.5000 
     69 N          -1.7038  -24.1810  -45.7100 N.am      12 UNK        -0.5000 
     70 CA         -2.8110  -25.1098  -45.9229 C.3       12 UNK         0.1400 
     71 CB         -3.8922  -24.8755  -44.8582 C.3       12 UNK        -0.1800 
     72 C          -2.3448  -26.5745  -45.9249 C.2       12 UNK         0.5000 
     73 O          -2.7827  -27.3412  -46.7820 O.2       12 UNK        -0.5000 
     74 N          -1.4262  -26.9245  -45.0117 N.am      13 UNK        -0.5000 
     75 CA         -0.7820  -28.2401  -44.9458 C.3       13 UNK         0.1400 
     76 CB          0.0568  -28.3395  -43.6630 C.3       13 UNK        -0.1800 
     77 C           0.0756  -28.5502  -46.1895 C.2       13 UNK         0.5000 
     78 O           0.0798  -29.6887  -46.6585 O.2       13 UNK        -0.5000 
     79 N           0.7483  -27.5225  -46.7249 N.am      14 UNK        -0.5000 
     80 CA          1.5043  -27.5697  -47.9787 C.3       14 UNK         0.1400 
     81 CB          2.4947  -26.3938  -47.9963 C.3       14 UNK        -0.1800 
     82 C           0.6152  -27.5362  -49.2412 C.2       14 UNK         0.5000 
     83 O           1.1311  -27.7532  -50.3383 O.2       14 UNK        -0.5000 
     84 N          -0.6834  -27.2414  -49.0724 N.am      15 UNK        -0.5000 
     85 CA         -1.7044  -27.0322  -50.1064 C.3       15 UNK         0.1400 
     86 CB         -1.9594  -28.3260  -50.9068 C.3       15 UNK        -0.1800 
     87 C          -1.4221  -25.8078  -51.0061 C.2       15 UNK         0.5000 
     88 O          -1.8521  -25.7758  -52.1603 O.2       15 UNK        -0.5000 
     89 N          -0.7128  -24.8146  -50.4559 N.am      16 UNK        -0.5000 
     90 CA         -0.3797  -23.5535  -51.1118 C.3       16 UNK         0.1400 
     91 CB          0.9144  -22.9942  -50.4990 C.3       16 UNK        -0.1800 
     92 C          -1.5172  -22.5286  -50.9831 C.2       16 UNK         0.5000 
     93 O          -1.7412  -21.7569  -51.9154 O.2       16 UNK        -0.5000 
     94 N          -2.2273  -22.5455  -49.8450 N.am      17 UNK        -0.5000 
     95 CA         -3.3009  -21.6107  -49.4888 C.3       17 UNK         0.1400 
     96 CB         -3.4796  -21.6091  -47.9601 C.3       17 UNK        -0.1800 
     97 C          -4.6249  -21.8677  -50.2421 C.2       17 UNK         0.5000 
     98 O          -5.6872  -21.9518  -49.6220 O.2       17 UNK        -0.5000 
     99 N          -4.5414  -21.9589  -51.5702 N.am      18 UNK        -0.5000 
    100 CA        -5.6567  -22.1207  -52.4987 C.3       18 UNK         0.1400 
    101 CB        -5.7038  -23.5846  -52.9738 C.3       18 UNK        -0.1800 
    102 C         -5.5333  -21.1154  -53.6603 C.2       18 UNK         0.5000 
    103 O         -5.9430  -21.4171  -54.7831 O.2       18 UNK        -0.5000 
    104 N         -4.9572  -19.9409  -53.3767 N.am      19 UNK        -0.5000 
    105 CA        -4.8125  -18.8283  -54.3105 C.3       19 UNK         0.1400 
    106 CB        -3.4897  -18.1052  -54.0000 C.3       19 UNK        -0.1800 
    107 C         -6.0051  -17.8627  -54.1947 C.2       19 UNK         0.5000 
    108 O         -6.8371  -17.9958  -53.2938 O.2       19 UNK        -0.5000 
    109 N         -6.0474  -16.8717  -55.0947 N.am      20 UNK        -0.5000 
    110 CA        -7.0215  -15.7762  -55.0682 C.3       20 UNK         0.1400 
    111 CB        -6.9357  -14.9945  -56.3881 C.3       20 UNK        -0.1800 
    112 C         -6.8312  -14.8294  -53.8646 C.2       20 UNK         0.5000 
    113 O         -7.8021  -14.2205  -53.4139 O.2       20 UNK        -0.5000 
    114 N         -5.5896  -14.7294  -53.3662 N.am      21 UNK        -0.5000 
    115 CA        -5.2263  -13.9613  -52.1760 C.3       21 UNK         0.1400 
    116 CB        -3.6963  -13.8205  -52.1100 C.3       21 UNK        -0.1800 
    117 C         -5.7661  -14.5950  -50.8806 C.2       21 UNK         0.5000 
    118 O         -6.3240  -13.8850  -50.0433 O.2       21 UNK        -0.5000 
    119 N         -5.5931  -15.9146  -50.7514 N.am      22 UNK        -0.5000 
    120 CA        -5.9523  -16.7317  -49.5868 C.3       22 UNK         0.1400 
    121 C         -5.7259  -18.2383  -49.8858 C.2       22 UNK         0.5000 
    122 N         -6.4106  -19.1233  -49.1731 N.am      22 UNK        -0.7600 
    123 O         -4.9170  -18.6166  -50.7319 O.2       22 UNK        -0.5000 
    124 C124       -5.2469  -16.2912  -48.2670 C.3       23 UNK        -0.0398 
    125 S125       -3.4353  -16.0870  -48.4049 S.3       23 UNK        -0.2404 
    126 C126       -2.8387  -17.6583  -47.7069 C.3       23 UNK        -0.0205 
    127 H127        4.8097  -13.8673  -52.7057 H         1 UNK         0.0600 
    128 H128        3.8936  -12.3855  -52.9994 H         1 UNK         0.0600 
    129 H129        3.5505  -13.8384  -53.9442 H         1 UNK         0.0600 
    130 H130        1.6993  -14.8822  -53.2724 H         1 UNK         0.3000 
    131 H131        1.2147  -15.7734  -50.6778 H         1 UNK         0.0600 
    132 H132       -1.1196  -16.3516  -51.6062 H         1 UNK         0.0800 
    133 H133       -0.6467  -15.5775  -53.0886 H         1 UNK         0.0800 
    134 H134       -1.2982  -19.0013  -52.2698 H         1 UNK         0.0800 
    135 H135        0.1931  -19.8828  -52.1162 H         1 UNK         0.0800 
    136 H136       -2.3413  -18.0195  -50.3536 H         1 UNK         0.1150 
    137 H137       -0.4944  -18.3714  -46.5100 H         1 UNK         0.1150 
    138 H138        1.6423  -19.5526  -50.0415 H         1 UNK         0.1150 
    139 H139        2.4815  -20.2227  -47.9143 H         1 UNK         0.0800 
    140 H140        2.4991  -18.7001  -47.0560 H         1 UNK         0.0800 
    141 H141       -0.0902  -21.4346  -47.4458 H         1 UNK         0.0800 
    142 H142       -0.8464  -21.2989  -45.8792 H         1 UNK         0.0800 
    143 H143        1.3238  -23.2935  -46.6944 H         1 UNK         0.0600 
    144 H144        0.5207  -22.5532  -44.0489 H         1 UNK         0.3000 
    145 H145        1.6456  -25.4864  -42.4031 H         1 UNK         0.0600 
    146 H146        3.1130  -23.8391  -41.2626 H         1 UNK         0.0600 
    147 H147        3.7450  -24.2118  -42.8584 H         1 UNK         0.0600 
    148 H148        2.9009  -22.6922  -42.5863 H         1 UNK         0.0600 
    149 H149        0.6949  -22.9474  -41.4734 H         1 UNK         0.3000 
    150 H150       -2.7763  -23.8427  -41.3869 H         1 UNK         0.0600 
    151 H151       -0.6551  -23.1816  -39.2765 H         1 UNK         0.0600 
    152 H152       -1.6210  -24.6519  -39.3173 H         1 UNK         0.0600 
    153 H153       -2.4042  -23.1007  -39.0674 H         1 UNK         0.0600 
    154 H154       -1.6989  -21.3775  -40.7240 H         1 UNK         0.3000 
    155 H155       -2.2112  -19.8699  -43.9735 H         1 UNK         0.0600 
    156 H156       -3.3038  -19.5597  -41.1249 H         1 UNK         0.0600 
    157 H157       -4.2615  -19.9964  -42.5366 H         1 UNK         0.0600 
    158 H158       -3.4959  -18.4182  -42.4528 H         1 UNK         0.0600 
    159 H159       -0.4153  -19.8059  -41.6458 H         1 UNK         0.3000 
    160 H160        0.7945  -17.8369  -41.2219 H         1 UNK         0.0600 
    161 H161        2.1964  -18.1355  -43.9370 H         1 UNK         0.0600 
    162 H162        2.0942  -19.3866  -42.7038 H         1 UNK         0.0600 
    163 H163        2.9971  -17.9129  -42.3839 H         1 UNK         0.0600 
    164 H164        1.0521  -15.9767  -43.5414 H         1 UNK         0.3000 
    165 H165       -0.4543  -13.3227  -41.7874 H         1 UNK         0.0600 
    166 H166        1.5756  -12.0076  -42.3605 H         1 UNK         0.0600 
    167 H167        1.8845  -13.0167  -40.9557 H         1 UNK         0.0600 
    168 H168        2.5186  -13.4886  -42.5283 H         1 UNK         0.0600 
    169 H169        0.8701  -13.5597  -44.3389 H         1 UNK         0.3000 
    170 H170       -1.4228  -15.4017  -46.0686 H         1 UNK         0.0600 
    171 H171       -2.9829  -13.4439  -46.0554 H         1 UNK         0.0600 
    172 H172       -1.6258  -12.3445  -46.2813 H         1 UNK         0.0600 
    173 H173       -2.0629  -13.4891  -47.5465 H         1 UNK         0.0600 
    174 H174        0.3014  -13.6547  -47.2929 H         1 UNK         0.3000 
    175 H175        3.4666  -14.5474  -46.4339 H         1 UNK         0.0600 
    176 H176        3.3544  -16.6657  -47.5384 H         1 UNK         0.0600 
    177 H177        2.0895  -16.1445  -48.6403 H         1 UNK         0.0600 
    178 H178        3.7337  -15.5205  -48.8091 H         1 UNK         0.0600 
    179 H179        2.4920  -13.5061  -48.8966 H         1 UNK         0.3000 
    180 H180        1.9506  -10.1580  -47.7799 H         1 UNK         0.0600 
    181 H181        4.1449  -11.4271  -49.5035 H         1 UNK         0.0600 
    182 H182        4.3933  -10.3232  -48.1574 H         1 UNK         0.0600 
    183 H183        3.5846   -9.7593  -49.6116 H         1 UNK         0.0600 
    184 H184        1.7972  -11.8693  -50.1972 H         1 UNK         0.3000 
    185 H185       -1.7316  -12.0012  -50.1323 H         1 UNK         0.0600 
    186 H186       -1.4542   -9.7226  -51.1148 H         1 UNK         0.0600 
    187 H187       -0.0566  -10.2732  -52.0314 H         1 UNK         0.0600 
    188 H188       -1.6573  -10.9350  -52.3691 H         1 UNK         0.0600 
    189 H189        0.2255  -12.7208  -52.1186 H         1 UNK         0.3000 
    190 H190       -1.7235  -23.6499  -44.8418 H         1 UNK         0.3000 
    191 H191       -3.2464  -24.8997  -46.9018 H         1 UNK         0.0600 
    192 H192       -4.2766  -23.8565  -44.9078 H         1 UNK         0.0600 
    193 H193       -4.7368  -25.5503  -45.0025 H         1 UNK         0.0600 
    194 H194       -3.5080  -25.0378  -43.8506 H         1 UNK         0.0600 
    195 H195       -1.1540  -26.2470  -44.3071 H         1 UNK         0.3000 
    196 H196       -1.5709  -28.9932  -44.8930 H         1 UNK         0.0600 
    197 H197        0.5141  -29.3254  -43.5713 H         1 UNK         0.0600 
    198 H198       -0.5581  -28.1822  -42.7767 H         1 UNK         0.0600 
    199 H199        0.8600  -27.6030  -43.6473 H         1 UNK         0.0600 
    200 H200        0.7571  -26.6384  -46.2273 H         1 UNK         0.3000 
    201 H201        2.0767  -28.4991  -48.0057 H         1 UNK         0.0600 
    202 H202        3.1152  -26.4150  -48.8931 H         1 UNK         0.0600 
    203 H203        3.1652  -26.4297  -47.1376 H         1 UNK         0.0600 
    204 H204        1.9784  -25.4336  -47.9778 H         1 UNK         0.0600 
    205 H205       -1.0021  -27.0841  -48.1252 H         1 UNK         0.3000 
    206 H206       -2.6242  -26.7964  -49.5697 H         1 UNK         0.0600 
    207 H207       -2.1577  -29.1669  -50.2422 H         1 UNK         0.0600 
    208 H208       -2.8272  -28.2178  -51.5584 H         1 UNK         0.0600 
    209 H209       -1.1098  -28.5885  -51.5374 H         1 UNK         0.0600 
    210 H210       -0.4617  -24.8933  -49.4732 H         1 UNK         0.3000 
    211 H211       -0.2037  -23.7347  -52.1743 H         1 UNK         0.0600 
    212 H212        0.8006  -22.7789  -49.4362 H         1 UNK         0.0600 
    213 H213        1.2095  -22.0666  -50.9910 H         1 UNK         0.0600 
    214 H214        1.7388  -23.6986  -50.6104 H         1 UNK         0.0600 
    215 H215       -1.9931  -23.2469  -49.1564 H         1 UNK         0.3000 
    216 H216       -2.9831  -20.6077  -49.7765 H         1 UNK         0.0600 
    217 H217       -4.2572  -20.9081  -47.6542 H         1 UNK         0.0600 
    218 H218       -2.5648  -21.2990  -47.4604 H         1 UNK         0.0600 
    219 H219       -3.7574  -22.5935  -47.5838 H         1 UNK         0.0600 
    220 H220       -3.6209  -21.8429  -51.9887 H         1 UNK         0.3000 
    221 H221       -6.5989  -21.8901  -51.9977 H         1 UNK         0.0600 
    222 H222       -4.7988  -23.8573  -53.5181 H         1 UNK         0.0600 
    223 H223       -5.8051  -24.2680  -52.1306 H         1 UNK         0.0600 
    224 H224       -6.5540  -23.7586  -53.6343 H         1 UNK         0.0600 
    225 H225       -4.7653  -19.7194  -52.4038 H         1 UNK         0.3000 
    226 H226       -4.7732  -19.2005  -55.3363 H         1 UNK         0.0600 
    227 H227       -3.3275  -17.2558  -54.6641 H         1 UNK         0.0600 
    228 H228       -3.4605  -17.7335  -52.9748 H         1 UNK         0.0600 
    229 H229       -2.6441  -18.7782  -54.1385 H         1 UNK         0.0600 
    230 H230       -5.3448  -16.8321  -55.8192 H         1 UNK         0.3000 
    231 H231       -8.0210  -16.2098  -54.9921 H         1 UNK         0.0600 
    232 H232       -5.9503  -14.5490  -56.5298 H         1 UNK         0.0600 
    233 H233       -7.6677  -14.1860  -56.4110 H         1 UNK         0.0600 
    234 H234       -7.1399  -15.6396  -57.2429 H         1 UNK         0.0600 
    235 H235       -4.8532  -15.2521  -53.8145 H         1 UNK         0.3000 
    236 H236       -5.6568  -12.9616  -52.2666 H         1 UNK         0.0600 
    237 H237       -3.3083  -13.2838  -52.9758 H         1 UNK         0.0600 
    238 H238       -3.3993  -13.2632  -51.2217 H         1 UNK         0.0600 
    239 H239       -3.2009  -14.7910  -52.0643 H         1 UNK         0.0600 
    240 H240       -5.1563  -16.4410  -51.4949 H         1 UNK         0.3000 
    241 H241       -7.0279  -16.6067  -49.4505 H         1 UNK         0.0600 
    242 H242       -6.2660  -20.1123  -49.3460 H         1 UNK         0.3800 
    243 H243       -7.0847  -18.8405  -48.4796 H         1 UNK         0.3800 
    244 H244       -5.4796  -16.9772  -47.4511 H         1 UNK         0.0800 
    245 H245       -5.6515  -15.3319  -47.9445 H         1 UNK         0.0800 
    246 H246       -3.5852  -18.4396  -47.8487 H         1 UNK         0.0800 
    247 H247       -2.7114  -17.5409  -46.6294 H         1 UNK         0.0800 
@<TRIPOS>BOND
     1    1    2 1    
     2    1  127 1    
     3    1  128 1    
     4    1  129 1    
     5    2    3 2    
     6    2    4 am   BACKBONE|DICT|INTERRES
     7    4    5 1    
     8    4  130 1    
     9    5    6 1    
    10    5   65 1    
    11    5  131 1    
    12    6    7 1    
    13    6  132 1    
    14    6  133 1    
    15    7    8 1    
    16    8    9 1    
    17    8  134 1    
    18    8  135 1    
    19    9   10 ar   
    20    9   14 ar   
    21   10   11 ar   
    22   10  136 1    
    23   11   12 ar   
    24   11  126 1    
    25   12   13 ar   
    26   12  137 1    
    27   13   14 ar   
    28   13   15 1    
    29   14  138 1    
    30   15   16 1    
    31   15  139 1    
    32   15  140 1    
    33   16   17 1    
    34   17   18 1    
    35   17  141 1    
    36   17  142 1    
    37   18   19 1    
    38   18   67 1    
    39   18  143 1    
    40   19   20 am   BACKBONE|DICT|INTERRES
    41   19  144 1    
    42   20   21 2    
    43   20   22 1    
    44   22   23 1    
    45   22   24 1    
    46   22  145 1    
    47   23  146 1    
    48   23  147 1    
    49   23  148 1    
    50   24   25 am   BACKBONE|DICT|INTERRES
    51   24  149 1    
    52   25   26 2    
    53   25   27 1    
    54   27   28 1    
    55   27   29 1    
    56   27  150 1    
    57   28  151 1    
    58   28  152 1    
    59   28  153 1    
    60   29   30 am   BACKBONE|DICT|INTERRES
    61   29  154 1    
    62   30   31 2    
    63   30   32 1    
    64   32   33 1    
    65   32   34 1    
    66   32  155 1    
    67   33  156 1    
    68   33  157 1    
    69   33  158 1    
    70   34   35 am   BACKBONE|DICT|INTERRES
    71   34  159 1    
    72   35   36 2    
    73   35   37 1    
    74   37   38 1    
    75   37   39 1    
    76   37  160 1    
    77   38  161 1    
    78   38  162 1    
    79   38  163 1    
    80   39   40 am   BACKBONE|DICT|INTERRES
    81   39  164 1    
    82   40   41 2    
    83   40   42 1    
    84   42   43 1    
    85   42   44 1    
    86   42  165 1    
    87   43  166 1    
    88   43  167 1    
    89   43  168 1    
    90   44   45 am   BACKBONE|DICT|INTERRES
    91   44  169 1    
    92   45   46 2    
    93   45   47 1    
    94   47   48 1    
    95   47   49 1    
    96   47  170 1    
    97   48  171 1    
    98   48  172 1    
    99   48  173 1    
   100   49   50 am   BACKBONE|DICT|INTERRES
   101   49  174 1    
   102   50   51 2    
   103   50   52 1    
   104   52   53 1    
   105   52   54 1    
   106   52  175 1    
   107   53  176 1    
   108   53  177 1    
   109   53  178 1    
   110   54   55 am   BACKBONE|DICT|INTERRES
   111   54  179 1    
   112   55   56 2    
   113   55   57 1    
   114   57   58 1    
   115   57   59 1    
   116   57  180 1    
   117   58  181 1    
   118   58  182 1    
   119   58  183 1    
   120   59   60 am   BACKBONE|DICT|INTERRES
   121   59  184 1    
   122   60   61 2    
   123   60   62 1    
   124   62   63 1    
   125   62   64 1    
   126   62  185 1    
   127   63  186 1    
   128   63  187 1    
   129   63  188 1    
   130   64   65 am   BACKBONE|DICT|INTERRES
   131   64  189 1    
   132   65   66 2    
   133   67   68 2    
   134   67   69 am   BACKBONE|DICT|INTERRES
   135   69   70 1    
   136   69  190 1    
   137   70   71 1    
   138   70   72 1    
   139   70  191 1    
   140   71  192 1    
   141   71  193 1    
   142   71  194 1    
   143   72   73 2    
   144   72   74 am   BACKBONE|DICT|INTERRES
   145   74   75 1    
   146   74  195 1    
   147   75   76 1    
   148   75   77 1    
   149   75  196 1    
   150   76  197 1    
   151   76  198 1    
   152   76  199 1    
   153   77   78 2    
   154   77   79 am   BACKBONE|DICT|INTERRES
   155   79   80 1    
   156   79  200 1    
   157   80   81 1    
   158   80   82 1    
   159   80  201 1    
   160   81  202 1    
   161   81  203 1    
   162   81  204 1    
   163   82   83 2    
   164   82   84 am   BACKBONE|DICT|INTERRES
   165   84   85 1    
   166   84  205 1    
   167   85   86 1    
   168   85   87 1    
   169   85  206 1    
   170   86  207 1    
   171   86  208 1    
   172   86  209 1    
   173   87   88 2    
   174   87   89 am   BACKBONE|DICT|INTERRES
   175   89   90 1    
   176   89  210 1    
   177   90   91 1    
   178   90   92 1    
   179   90  211 1    
   180   91  212 1    
   181   91  213 1    
   182   91  214 1    
   183   92   93 2    
   184   92   94 am   BACKBONE|DICT|INTERRES
   185   94   95 1    
   186   94  215 1    
   187   95   96 1    
   188   95   97 1    
   189   95  216 1    
   190   96  217 1    
   191   96  218 1    
   192   96  219 1    
   193   97   98 2    
   194   97   99 am   BACKBONE|DICT|INTERRES
   195   99  100 1    
   196   99  220 1    
   197  100  101 1    
   198  100  102 1    
   199  100  221 1    
   200  101  222 1    
   201  101  223 1    
   202  101  224 1    
   203  102  103 2    
   204  102  104 am   BACKBONE|DICT|INTERRES
   205  104  105 1    
   206  104  225 1    
   207  105  106 1    
   208  105  107 1    
   209  105  226 1    
   210  106  227 1    
   211  106  228 1    
   212  106  229 1    
   213  107  108 2    
   214  107  109 am   BACKBONE|DICT|INTERRES
   215  109  110 1    
   216  109  230 1    
   217  110  111 1    
   218  110  112 1    
   219  110  231 1    
   220  111  232 1    
   221  111  233 1    
   222  111  234 1    
   223  112  113 2    
   224  112  114 am   BACKBONE|DICT|INTERRES
   225  114  115 1    
   226  114  235 1    
   227  115  116 1    
   228  115  117 1    
   229  115  236 1    
   230  116  237 1    
   231  116  238 1    
   232  116  239 1    
   233  117  118 2    
   234  117  119 am   BACKBONE|DICT|INTERRES
   235  119  120 1    
   236  119  240 1    
   237  120  121 1    
   238  120  124 1    
   239  120  241 1    
   240  121  122 am   BACKBONE|DICT|INTERRES
   241  121  123 2    
   242  122  242 1    
   243  122  243 1    
   244  124  125 1    
   245  124  244 1    
   246  124  245 1    
   247  125  126 1    
   248  126  246 1    
   249  126  247 1    
@<TRIPOS>SUBSTRUCTURE
     1 UNK         1 GROUP             0       ****    0 ROOT    
