@<TRIPOS>MOLECULE
3R540
247   249    1
SMALL
USER_CHARGES


@<TRIPOS>ATOM
      1 CA         -5.8600  -13.1234  -44.3506 C.3       0 UNK        -0.1800 
      2 C          -4.8519  -12.9400  -45.4761 C.2       0 UNK         0.5000 
      3 O          -5.2435  -12.8574  -46.6395 O.2       0 UNK        -0.5000 
      4 N          -3.5625  -12.8744  -45.1327 N.am      1 UNK        -0.5000 
      5 CA         -2.4415  -12.7024  -46.0573 C.3       1 UNK         0.1400 
      6 C6         -1.8718  -14.0701  -46.5370 C.3       23 UNK        -0.0398 
      7 S7         -1.2737  -14.0429  -48.2643 S.3       23 UNK        -0.2404 
      8 C8         -2.8204  -13.9862  -49.2370 C.3       23 UNK        -0.0205 
      9 C9         -3.5053  -15.3411  -49.3599 C.ar      23 UNK        -0.0193 
     10 C10        -3.3661  -16.1091  -50.5201 C.ar      23 UNK        -0.1150 
     11 C11        -4.0540  -17.3201  -50.6571 C.ar      23 UNK        -0.0193 
     12 C12        -4.8258  -17.7968  -49.5917 C.ar      23 UNK        -0.1150 
     13 C13        -4.9590  -17.0483  -48.4179 C.ar      23 UNK        -0.0193 
     14 C14        -4.3301  -15.8040  -48.3336 C.ar      23 UNK        -0.1150 
     15 C15        -5.8177  -17.5745  -47.2701 C.3       23 UNK        -0.0205 
     16 S16        -5.1752  -17.1892  -45.5976 S.3       23 UNK        -0.2404 
     17 C17        -3.4712  -17.8625  -45.5970 C.3       23 UNK        -0.0398 
     18 CA         -3.3026  -19.3099  -46.1159 C.3       11 UNK         0.1400 
     19 N          -1.8879  -19.6786  -46.2228 N.am      11 UNK        -0.5000 
     20 C          -1.4411  -20.8033  -46.7977 C.2       10 UNK         0.5000 
     21 O          -2.1765  -21.6470  -47.3026 O.2       10 UNK        -0.5000 
     22 CA          0.0699  -21.0708  -46.7502 C.3       10 UNK         0.1400 
     23 CB          0.8109  -20.2116  -47.7851 C.3       10 UNK        -0.1800 
     24 N           0.6222  -20.8600  -45.4131 N.am      10 UNK        -0.5000 
     25 C           0.2565  -21.5609  -44.3291 C.2       9 UNK         0.5000 
     26 O          -0.5361  -22.5022  -44.3597 O.2       9 UNK        -0.5000 
     27 CA          0.8347  -21.1105  -42.9770 C.3       9 UNK         0.1400 
     28 CB          2.2488  -21.6752  -42.7778 C.3       9 UNK        -0.1800 
     29 N           0.8539  -19.6550  -42.8233 N.am      9 UNK        -0.5000 
     30 C          -0.2359  -18.8728  -42.8055 C.2       8 UNK         0.5000 
     31 O          -1.3878  -19.2998  -42.8919 O.2       8 UNK        -0.5000 
     32 CA          0.0046  -17.3527  -42.7375 C.3       8 UNK         0.1400 
     33 CB          0.4014  -16.9131  -41.3205 C.3       8 UNK        -0.1800 
     34 N           1.0220  -16.9122  -43.6907 N.am      8 UNK        -0.5000 
     35 C           0.9069  -17.0171  -45.0219 C.2       7 UNK         0.5000 
     36 O          -0.1016  -17.4347  -45.5927 O.2       7 UNK        -0.5000 
     37 CA          2.1485  -16.6431  -45.8479 C.3       7 UNK         0.1400 
     38 CB          2.2294  -15.1255  -46.0658 C.3       7 UNK        -0.1800 
     39 N           3.3833  -17.1203  -45.2222 N.am      7 UNK        -0.5000 
     40 C           3.7422  -18.4106  -45.1543 C.2       6 UNK         0.5000 
     41 O           3.0768  -19.3289  -45.6291 O.2       6 UNK        -0.5000 
     42 CA          5.0436  -18.7366  -44.3995 C.3       6 UNK         0.1400 
     43 CB          6.2624  -18.5449  -45.3143 C.3       6 UNK        -0.1800 
     44 N           5.2140  -17.9322  -43.1904 N.am      6 UNK        -0.5000 
     45 C           4.4187  -17.9991  -42.1134 C.2       5 UNK         0.5000 
     46 O           3.4718  -18.7766  -42.0082 O.2       5 UNK        -0.5000 
     47 CA          4.6969  -16.9880  -40.9865 C.3       5 UNK         0.1400 
     48 CB          5.7253  -17.5528  -39.9955 C.3       5 UNK        -0.1800 
     49 N           5.1573  -15.6862  -41.4785 N.am      5 UNK        -0.5000 
     50 C           4.4448  -14.8842  -42.2804 C.2       4 UNK         0.5000 
     51 O           3.3325  -15.1763  -42.7268 O.2       4 UNK        -0.5000 
     52 CA          5.1157  -13.5633  -42.6987 C.3       4 UNK         0.1400 
     53 CB          5.7212  -13.6998  -44.1046 C.3       4 UNK        -0.1800 
     54 N           4.1726  -12.4474  -42.6967 N.am      4 UNK        -0.5000 
     55 C           3.5431  -11.9702  -41.6142 C.2       3 UNK         0.5000 
     56 O           3.7659  -12.3650  -40.4684 O.2       3 UNK        -0.5000 
     57 CA          2.5025  -10.8513  -41.8335 C.3       3 UNK         0.1400 
     58 CB          3.0300   -9.5128  -41.2917 C.3       3 UNK        -0.1800 
     59 N           2.0910  -10.6605  -43.2288 N.am      3 UNK        -0.5000 
     60 C           1.3570  -11.5250  -43.9406 C.2       2 UNK         0.5000 
     61 O           0.9966  -12.6261  -43.5192 O.2       2 UNK        -0.5000 
     62 CA          0.9926  -11.0789  -45.3725 C.3       2 UNK         0.1400 
     63 CB          2.1892  -11.2657  -46.3194 C.3       2 UNK        -0.1800 
     64 N          -0.1573  -11.8030  -45.9181 N.am      2 UNK        -0.5000 
     65 C          -1.3953  -11.7745  -45.4074 C.2       1 UNK         0.5000 
     66 O          -1.7251  -11.0435  -44.4680 O.2       1 UNK        -0.5000 
     67 C          -4.1111  -20.3368  -45.2923 C.2       11 UNK         0.5000 
     68 O          -5.1901  -20.7410  -45.7272 O.2       11 UNK        -0.5000 
     69 N          -3.5508  -20.8015  -44.1654 N.am      12 UNK        -0.5000 
     70 CA         -4.1299  -21.8542  -43.3236 C.3       12 UNK         0.1400 
     71 CB         -3.2897  -22.0058  -42.0468 C.3       12 UNK        -0.1800 
     72 C          -4.2777  -23.2107  -44.0455 C.2       12 UNK         0.5000 
     73 O          -5.2314  -23.9414  -43.7761 O.2       12 UNK        -0.5000 
     74 N          -3.3573  -23.5029  -44.9730 N.am      13 UNK        -0.5000 
     75 CA         -3.3733  -24.6755  -45.8494 C.3       13 UNK         0.1400 
     76 CB         -1.9186  -25.0463  -46.1864 C.3       13 UNK        -0.1800 
     77 C          -4.1910  -24.4618  -47.1423 C.2       13 UNK         0.5000 
     78 O          -4.1873  -25.3464  -48.0010 O.2       13 UNK        -0.5000 
     79 N          -4.8300  -23.2900  -47.2974 N.am      14 UNK        -0.5000 
     80 CA         -5.5685  -22.8270  -48.4807 C.3       14 UNK         0.1400 
     81 CB         -6.8657  -23.6416  -48.6628 C.3       14 UNK        -0.1800 
     82 C          -4.6986  -22.7991  -49.7564 C.2       14 UNK         0.5000 
     83 O          -5.1838  -23.1053  -50.8461 O.2       14 UNK        -0.5000 
     84 N          -3.4076  -22.4857  -49.5800 N.am      15 UNK        -0.5000 
     85 CA         -2.3238  -22.5245  -50.5616 C.3       15 UNK         0.1400 
     86 CB         -2.4653  -21.3689  -51.5650 C.3       15 UNK        -0.1800 
     87 C          -2.1682  -23.9073  -51.2245 C.2       15 UNK         0.5000 
     88 O          -1.9521  -23.9915  -52.4345 O.2       15 UNK        -0.5000 
     89 N          -2.3115  -24.9665  -50.4131 N.am      16 UNK        -0.5000 
     90 CA         -2.3065  -26.3808  -50.8001 C.3       16 UNK         0.1400 
     91 CB         -0.9140  -26.8052  -51.3136 C.3       16 UNK        -0.1800 
     92 C          -3.4535  -26.7122  -51.7778 C.2       16 UNK         0.5000 
     93 O          -3.2378  -27.3918  -52.7817 O.2       16 UNK        -0.5000 
     94 N          -4.6486  -26.1913  -51.4598 N.am      17 UNK        -0.5000 
     95 CA         -5.8712  -26.2076  -52.2700 C.3       17 UNK         0.1400 
     96 CB         -6.3962  -27.6457  -52.4662 C.3       17 UNK        -0.1800 
     97 C          -5.6933  -25.4283  -53.5906 C.2       17 UNK         0.5000 
     98 O          -5.9853  -25.9484  -54.6692 O.2       17 UNK        -0.5000 
     99 N          -5.2120  -24.1843  -53.4563 N.am      18 UNK        -0.5000 
    100 CA        -4.9421  -23.2015  -54.5089 C.3       18 UNK         0.1400 
    101 CB        -6.2624  -22.6790  -55.1109 C.3       18 UNK        -0.1800 
    102 C         -3.9404  -23.6990  -55.5745 C.2       18 UNK         0.5000 
    103 O         -4.1884  -23.5540  -56.7738 O.2       18 UNK        -0.5000 
    104 N         -2.8350  -24.2971  -55.1138 N.am      19 UNK        -0.5000 
    105 CA        -1.7715  -24.8502  -55.9521 C.3       19 UNK         0.1400 
    106 CB        -1.5629  -26.3280  -55.5892 C.3       19 UNK        -0.1800 
    107 C         -0.4573  -24.0691  -55.7925 C.2       19 UNK         0.5000 
    108 O          0.2373  -23.8506  -56.7859 O.2       19 UNK        -0.5000 
    109 N         -0.1319  -23.6592  -54.5586 N.am      20 UNK        -0.5000 
    110 CA         1.0830  -22.9075  -54.2284 C.3       20 UNK         0.1400 
    111 CB         1.4013  -23.1139  -52.7388 C.3       20 UNK        -0.1800 
    112 C          0.9574  -21.4045  -54.5439 C.2       20 UNK         0.5000 
    113 O          1.9701  -20.7325  -54.7424 O.2       20 UNK        -0.5000 
    114 N         -0.2830  -20.9134  -54.5766 N.am      21 UNK        -0.5000 
    115 CA        -0.7087  -19.5409  -54.8141 C.3       21 UNK         0.1400 
    116 CB        -0.3413  -18.6493  -53.6115 C.3       21 UNK        -0.1800 
    117 C         -2.2275  -19.5808  -55.0460 C.2       21 UNK         0.5000 
    118 O         -2.8424  -20.6279  -54.8318 O.2       21 UNK        -0.5000 
    119 N         -2.8093  -18.4566  -55.4803 N.am      22 UNK        -0.5000 
    120 CA        -4.2482  -18.3050  -55.7838 C.3       22 UNK         0.1400 
    121 C         -4.7466  -19.1210  -57.0201 C.2       22 UNK         0.5000 
    122 N         -3.8705  -19.6288  -57.8783 N.am      22 UNK        -0.7600 
    123 O         -5.9475  -19.2649  -57.2330 O.2       22 UNK        -0.5000 
    124 C124       -5.1621  -18.5000  -54.5366 C.3       23 UNK        -0.0398 
    125 S125       -4.9208  -17.2092  -53.2697 S.3       23 UNK        -0.2404 
    126 C126       -3.9994  -18.0898  -51.9694 C.3       23 UNK        -0.0205 
    127 H127       -5.3763  -13.1583  -43.3741 H         1 UNK         0.0600 
    128 H128       -6.4097  -14.0543  -44.4907 H         1 UNK         0.0600 
    129 H129       -6.5745  -12.3004  -44.3477 H         1 UNK         0.0600 
    130 H130       -3.3039  -12.8606  -44.1550 H         1 UNK         0.3000 
    131 H131       -2.8053  -12.1408  -46.9191 H         1 UNK         0.0600 
    132 H132       -1.0640  -14.4132  -45.8878 H         1 UNK         0.0800 
    133 H133       -2.6212  -14.8514  -46.4509 H         1 UNK         0.0800 
    134 H134       -3.5134  -13.2638  -48.8053 H         1 UNK         0.0800 
    135 H135       -2.5820  -13.6063  -50.2315 H         1 UNK         0.0800 
    136 H136       -2.7606  -15.7441  -51.3379 H         1 UNK         0.1150 
    137 H137       -5.3453  -18.7400  -49.6868 H         1 UNK         0.1150 
    138 H138       -4.4856  -15.1937  -47.4588 H         1 UNK         0.1150 
    139 H139       -6.8122  -17.1366  -47.3622 H         1 UNK         0.0800 
    140 H140       -5.9555  -18.6529  -47.3572 H         1 UNK         0.0800 
    141 H141       -3.0777  -17.7796  -44.5826 H         1 UNK         0.0800 
    142 H142       -2.8572  -17.1958  -46.2028 H         1 UNK         0.0800 
    143 H143       -3.6903  -19.3473  -47.1350 H         1 UNK         0.0600 
    144 H144       -1.2143  -19.0167  -45.8466 H         1 UNK         0.3000 
    145 H145        0.2278  -22.1194  -47.0109 H         1 UNK         0.0600 
    146 H146        1.8688  -20.4709  -47.8263 H         1 UNK         0.0600 
    147 H147        0.4010  -20.3634  -48.7845 H         1 UNK         0.0600 
    148 H148        0.7353  -19.1484  -47.5576 H         1 UNK         0.0600 
    149 H149        1.3322  -20.1394  -45.3227 H         1 UNK         0.3000 
    150 H150        0.1942  -21.5171  -42.1919 H         1 UNK         0.0600 
    151 H151        2.2549  -22.7610  -42.8815 H         1 UNK         0.0600 
    152 H152        2.6293  -21.4419  -41.7833 H         1 UNK         0.0600 
    153 H153        2.9502  -21.2705  -43.5081 H         1 UNK         0.0600 
    154 H154        1.7690  -19.2279  -42.7037 H         1 UNK         0.3000 
    155 H155       -0.9321  -16.8550  -42.9972 H         1 UNK         0.0600 
    156 H156       -0.3665  -17.1904  -40.5975 H         1 UNK         0.0600 
    157 H157        0.5272  -15.8314  -41.2655 H         1 UNK         0.0600 
    158 H158        1.3358  -17.3736  -41.0002 H         1 UNK         0.0600 
    159 H159        1.8716  -16.5105  -43.3075 H         1 UNK         0.3000 
    160 H160        2.0554  -17.1189  -46.8264 H         1 UNK         0.0600 
    161 H161        2.2989  -14.5827  -45.1228 H         1 UNK         0.0600 
    162 H162        1.3443  -14.7613  -46.5876 H         1 UNK         0.0600 
    163 H163        3.0953  -14.8594  -46.6720 H         1 UNK         0.0600 
    164 H164        3.9464  -16.4315  -44.7457 H         1 UNK         0.3000 
    165 H165        5.0015  -19.7867  -44.1027 H         1 UNK         0.0600 
    166 H166        7.1820  -18.8508  -44.8151 H         1 UNK         0.0600 
    167 H167        6.1692  -19.1474  -46.2189 H         1 UNK         0.0600 
    168 H168        6.3770  -17.5049  -45.6226 H         1 UNK         0.0600 
    169 H169        5.9689  -17.2626  -43.1885 H         1 UNK         0.3000 
    170 H170        3.7592  -16.8271  -40.4506 H         1 UNK         0.0600 
    171 H171        5.3970  -18.5145  -39.5987 H         1 UNK         0.0600 
    172 H172        6.6973  -17.7063  -40.4659 H         1 UNK         0.0600 
    173 H173        5.8642  -16.8833  -39.1464 H         1 UNK         0.0600 
    174 H174        6.0663  -15.3818  -41.1607 H         1 UNK         0.3000 
    175 H175        5.9159  -13.3303  -41.9933 H         1 UNK         0.0600 
    176 H176        4.9562  -13.9045  -44.8550 H         1 UNK         0.0600 
    177 H177        6.2433  -12.7893  -44.3991 H         1 UNK         0.0600 
    178 H178        6.4454  -14.5145  -44.1429 H         1 UNK         0.0600 
    179 H179        3.9037  -12.0807  -43.5963 H         1 UNK         0.3000 
    180 H180        1.6158  -11.1248  -41.2578 H         1 UNK         0.0600 
    181 H181        3.9112   -9.1769  -41.8398 H         1 UNK         0.0600 
    182 H182        3.3101   -9.5973  -40.2408 H         1 UNK         0.0600 
    183 H183        2.2722   -8.7320  -41.3607 H         1 UNK         0.0600 
    184 H184        2.3600   -9.7844  -43.6534 H         1 UNK         0.3000 
    185 H185        0.7333  -10.0185  -45.3426 H         1 UNK         0.0600 
    186 H186        1.9523  -10.9226  -47.3268 H         1 UNK         0.0600 
    187 H187        2.4939  -12.3098  -46.3850 H         1 UNK         0.0600 
    188 H188        3.0540  -10.6938  -45.9809 H         1 UNK         0.0600 
    189 H189        0.0306  -12.4257  -46.6909 H         1 UNK         0.3000 
    190 H190       -2.6718  -20.3994  -43.8502 H         1 UNK         0.3000 
    191 H191       -5.1307  -21.5282  -43.0333 H         1 UNK         0.0600 
    192 H192       -2.2691  -22.3157  -42.2711 H         1 UNK         0.0600 
    193 H193       -3.2402  -21.0679  -41.4933 H         1 UNK         0.0600 
    194 H194       -3.7214  -22.7544  -41.3814 H         1 UNK         0.0600 
    195 H195       -2.5827  -22.8616  -45.1013 H         1 UNK         0.3000 
    196 H196       -3.8227  -25.5165  -45.3180 H         1 UNK         0.0600 
    197 H197       -1.3380  -25.2225  -45.2806 H         1 UNK         0.0600 
    198 H198       -1.4224  -24.2557  -46.7503 H         1 UNK         0.0600 
    199 H199       -1.8694  -25.9577  -46.7835 H         1 UNK         0.0600 
    200 H200       -4.7538  -22.6074  -46.5517 H         1 UNK         0.3000 
    201 H201       -5.8497  -21.7919  -48.2827 H         1 UNK         0.0600 
    202 H202       -7.4819  -23.2234  -49.4597 H         1 UNK         0.0600 
    203 H203       -7.4655  -23.6338  -47.7528 H         1 UNK         0.0600 
    204 H204       -6.6603  -24.6810  -48.9204 H         1 UNK         0.0600 
    205 H205       -3.1039  -22.2423  -48.6363 H         1 UNK         0.3000 
    206 H206       -1.4007  -22.3590  -50.0045 H         1 UNK         0.0600 
    207 H207       -3.3836  -21.4426  -52.1461 H         1 UNK         0.0600 
    208 H208       -1.6305  -21.3563  -52.2628 H         1 UNK         0.0600 
    209 H209       -2.4668  -20.4098  -51.0487 H         1 UNK         0.0600 
    210 H210       -2.5641  -24.7907  -49.4490 H         1 UNK         0.3000 
    211 H211       -2.5086  -26.9496  -49.8913 H         1 UNK         0.0600 
    212 H212       -0.1419  -26.5905  -50.5750 H         1 UNK         0.0600 
    213 H213       -0.8816  -27.8766  -51.5140 H         1 UNK         0.0600 
    214 H214       -0.6430  -26.2925  -52.2362 H         1 UNK         0.0600 
    215 H215       -4.6976  -25.6316  -50.6188 H         1 UNK         0.3000 
    216 H216       -6.6225  -25.6638  -51.6951 H         1 UNK         0.0600 
    217 H217       -7.3691  -27.6387  -52.9587 H         1 UNK         0.0600 
    218 H218       -5.7260  -28.2467  -53.0812 H         1 UNK         0.0600 
    219 H219       -6.5203  -28.1536  -51.5099 H         1 UNK         0.0600 
    220 H220       -5.0450  -23.8501  -52.5086 H         1 UNK         0.3000 
    221 H221       -4.4657  -22.3634  -54.0048 H         1 UNK         0.0600 
    222 H222       -6.0745  -21.8638  -55.8108 H         1 UNK         0.0600 
    223 H223       -6.7981  -23.4599  -55.6512 H         1 UNK         0.0600 
    224 H224       -6.9226  -22.2921  -54.3348 H         1 UNK         0.0600 
    225 H225       -2.6911  -24.3420  -54.1083 H         1 UNK         0.3000 
    226 H226       -2.0506  -24.8042  -57.0066 H         1 UNK         0.0600 
    227 H227       -2.4794  -26.9007  -55.7329 H         1 UNK         0.0600 
    228 H228       -0.7924  -26.7804  -56.2146 H         1 UNK         0.0600 
    229 H229       -1.2568  -26.4484  -54.5501 H         1 UNK         0.0600 
    230 H230       -0.7635  -23.8598  -53.7862 H         1 UNK         0.3000 
    231 H231        1.9157  -23.3043  -54.8130 H         1 UNK         0.0600 
    232 H232        2.3376  -22.6240  -52.4687 H         1 UNK         0.0600 
    233 H233        1.5066  -24.1724  -52.4999 H         1 UNK         0.0600 
    234 H234        0.6204  -22.7021  -52.0989 H         1 UNK         0.0600 
    235 H235       -1.0641  -21.5488  -54.4590 H         1 UNK         0.3000 
    236 H236       -0.2277  -19.1672  -55.7198 H         1 UNK         0.0600 
    237 H237        0.7391  -18.5713  -53.4921 H         1 UNK         0.0600 
    238 H238       -0.7222  -17.6351  -53.7362 H         1 UNK         0.0600 
    239 H239       -0.7482  -19.0425  -52.6800 H         1 UNK         0.0600 
    240 H240       -2.2410  -17.6375  -55.6414 H         1 UNK         0.3000 
    241 H241       -4.3632  -17.2677  -56.1002 H         1 UNK         0.0600 
    242 H242       -4.2036  -20.1476  -58.6755 H         1 UNK         0.3800 
    243 H243       -2.8812  -19.5124  -57.7337 H         1 UNK         0.3800 
    244 H244       -5.0370  -19.4917  -54.1015 H         1 UNK         0.0800 
    245 H245       -6.2136  -18.4403  -54.8210 H         1 UNK         0.0800 
    246 H246       -2.9637  -18.2183  -52.2810 H         1 UNK         0.0800 
    247 H247       -4.4186  -19.0885  -51.8401 H         1 UNK         0.0800 
@<TRIPOS>BOND
     1    1    2 1    
     2    1  127 1    
     3    1  128 1    
     4    1  129 1    
     5    2    3 2    
     6    2    4 am   BACKBONE|DICT|INTERRES
     7    4    5 1    
     8    4  130 1    
     9    5    6 1    
    10    5   65 1    
    11    5  131 1    
    12    6    7 1    
    13    6  132 1    
    14    6  133 1    
    15    7    8 1    
    16    8    9 1    
    17    8  134 1    
    18    8  135 1    
    19    9   10 ar   
    20    9   14 ar   
    21   10   11 ar   
    22   10  136 1    
    23   11   12 ar   
    24   11  126 1    
    25   12   13 ar   
    26   12  137 1    
    27   13   14 ar   
    28   13   15 1    
    29   14  138 1    
    30   15   16 1    
    31   15  139 1    
    32   15  140 1    
    33   16   17 1    
    34   17   18 1    
    35   17  141 1    
    36   17  142 1    
    37   18   19 1    
    38   18   67 1    
    39   18  143 1    
    40   19   20 am   BACKBONE|DICT|INTERRES
    41   19  144 1    
    42   20   21 2    
    43   20   22 1    
    44   22   23 1    
    45   22   24 1    
    46   22  145 1    
    47   23  146 1    
    48   23  147 1    
    49   23  148 1    
    50   24   25 am   BACKBONE|DICT|INTERRES
    51   24  149 1    
    52   25   26 2    
    53   25   27 1    
    54   27   28 1    
    55   27   29 1    
    56   27  150 1    
    57   28  151 1    
    58   28  152 1    
    59   28  153 1    
    60   29   30 am   BACKBONE|DICT|INTERRES
    61   29  154 1    
    62   30   31 2    
    63   30   32 1    
    64   32   33 1    
    65   32   34 1    
    66   32  155 1    
    67   33  156 1    
    68   33  157 1    
    69   33  158 1    
    70   34   35 am   BACKBONE|DICT|INTERRES
    71   34  159 1    
    72   35   36 2    
    73   35   37 1    
    74   37   38 1    
    75   37   39 1    
    76   37  160 1    
    77   38  161 1    
    78   38  162 1    
    79   38  163 1    
    80   39   40 am   BACKBONE|DICT|INTERRES
    81   39  164 1    
    82   40   41 2    
    83   40   42 1    
    84   42   43 1    
    85   42   44 1    
    86   42  165 1    
    87   43  166 1    
    88   43  167 1    
    89   43  168 1    
    90   44   45 am   BACKBONE|DICT|INTERRES
    91   44  169 1    
    92   45   46 2    
    93   45   47 1    
    94   47   48 1    
    95   47   49 1    
    96   47  170 1    
    97   48  171 1    
    98   48  172 1    
    99   48  173 1    
   100   49   50 am   BACKBONE|DICT|INTERRES
   101   49  174 1    
   102   50   51 2    
   103   50   52 1    
   104   52   53 1    
   105   52   54 1    
   106   52  175 1    
   107   53  176 1    
   108   53  177 1    
   109   53  178 1    
   110   54   55 am   BACKBONE|DICT|INTERRES
   111   54  179 1    
   112   55   56 2    
   113   55   57 1    
   114   57   58 1    
   115   57   59 1    
   116   57  180 1    
   117   58  181 1    
   118   58  182 1    
   119   58  183 1    
   120   59   60 am   BACKBONE|DICT|INTERRES
   121   59  184 1    
   122   60   61 2    
   123   60   62 1    
   124   62   63 1    
   125   62   64 1    
   126   62  185 1    
   127   63  186 1    
   128   63  187 1    
   129   63  188 1    
   130   64   65 am   BACKBONE|DICT|INTERRES
   131   64  189 1    
   132   65   66 2    
   133   67   68 2    
   134   67   69 am   BACKBONE|DICT|INTERRES
   135   69   70 1    
   136   69  190 1    
   137   70   71 1    
   138   70   72 1    
   139   70  191 1    
   140   71  192 1    
   141   71  193 1    
   142   71  194 1    
   143   72   73 2    
   144   72   74 am   BACKBONE|DICT|INTERRES
   145   74   75 1    
   146   74  195 1    
   147   75   76 1    
   148   75   77 1    
   149   75  196 1    
   150   76  197 1    
   151   76  198 1    
   152   76  199 1    
   153   77   78 2    
   154   77   79 am   BACKBONE|DICT|INTERRES
   155   79   80 1    
   156   79  200 1    
   157   80   81 1    
   158   80   82 1    
   159   80  201 1    
   160   81  202 1    
   161   81  203 1    
   162   81  204 1    
   163   82   83 2    
   164   82   84 am   BACKBONE|DICT|INTERRES
   165   84   85 1    
   166   84  205 1    
   167   85   86 1    
   168   85   87 1    
   169   85  206 1    
   170   86  207 1    
   171   86  208 1    
   172   86  209 1    
   173   87   88 2    
   174   87   89 am   BACKBONE|DICT|INTERRES
   175   89   90 1    
   176   89  210 1    
   177   90   91 1    
   178   90   92 1    
   179   90  211 1    
   180   91  212 1    
   181   91  213 1    
   182   91  214 1    
   183   92   93 2    
   184   92   94 am   BACKBONE|DICT|INTERRES
   185   94   95 1    
   186   94  215 1    
   187   95   96 1    
   188   95   97 1    
   189   95  216 1    
   190   96  217 1    
   191   96  218 1    
   192   96  219 1    
   193   97   98 2    
   194   97   99 am   BACKBONE|DICT|INTERRES
   195   99  100 1    
   196   99  220 1    
   197  100  101 1    
   198  100  102 1    
   199  100  221 1    
   200  101  222 1    
   201  101  223 1    
   202  101  224 1    
   203  102  103 2    
   204  102  104 am   BACKBONE|DICT|INTERRES
   205  104  105 1    
   206  104  225 1    
   207  105  106 1    
   208  105  107 1    
   209  105  226 1    
   210  106  227 1    
   211  106  228 1    
   212  106  229 1    
   213  107  108 2    
   214  107  109 am   BACKBONE|DICT|INTERRES
   215  109  110 1    
   216  109  230 1    
   217  110  111 1    
   218  110  112 1    
   219  110  231 1    
   220  111  232 1    
   221  111  233 1    
   222  111  234 1    
   223  112  113 2    
   224  112  114 am   BACKBONE|DICT|INTERRES
   225  114  115 1    
   226  114  235 1    
   227  115  116 1    
   228  115  117 1    
   229  115  236 1    
   230  116  237 1    
   231  116  238 1    
   232  116  239 1    
   233  117  118 2    
   234  117  119 am   BACKBONE|DICT|INTERRES
   235  119  120 1    
   236  119  240 1    
   237  120  121 1    
   238  120  124 1    
   239  120  241 1    
   240  121  122 am   BACKBONE|DICT|INTERRES
   241  121  123 2    
   242  122  242 1    
   243  122  243 1    
   244  124  125 1    
   245  124  244 1    
   246  124  245 1    
   247  125  126 1    
   248  126  246 1    
   249  126  247 1    
@<TRIPOS>SUBSTRUCTURE
     1 UNK         1 GROUP             0       ****    0 ROOT    
