@<TRIPOS>MOLECULE
3R540
247   249    1
SMALL
USER_CHARGES


@<TRIPOS>ATOM
      1 CA          5.3822  -14.9408  -51.2414 C.3       0 UNK        -0.1800 
      2 C           4.7613  -15.1924  -49.8752 C.2       0 UNK         0.5000 
      3 O           4.7926  -16.3224  -49.3858 O.2       0 UNK        -0.5000 
      4 N           4.2023  -14.1462  -49.2544 N.am      1 UNK        -0.5000 
      5 CA          3.5324  -14.1972  -47.9511 C.3       1 UNK         0.1400 
      6 C6          2.4617  -13.0892  -47.7836 C.3       23 UNK        -0.0398 
      7 S7          1.2052  -13.0770  -49.1099 S.3       23 UNK        -0.2404 
      8 C8          0.0252  -14.3506  -48.5573 C.3       23 UNK        -0.0205 
      9 C9          0.1319  -15.6100  -49.4025 C.ar      23 UNK        -0.0193 
     10 C10        -0.5500  -15.6904  -50.6202 C.ar      23 UNK        -0.1150 
     11 C11        -0.4523  -16.8356  -51.4141 C.ar      23 UNK        -0.0193 
     12 C12         0.3459  -17.9000  -50.9882 C.ar      23 UNK        -0.1150 
     13 C13         1.0324  -17.8374  -49.7725 C.ar      23 UNK        -0.0193 
     14 C14         0.9090  -16.6918  -48.9788 C.ar      23 UNK        -0.1150 
     15 C15         1.9670  -18.9730  -49.3696 C.3       23 UNK        -0.0205 
     16 S16         1.8098  -19.4867  -47.6296 S.3       23 UNK        -0.2404 
     17 C17         0.3577  -20.5912  -47.6335 C.3       23 UNK        -0.0398 
     18 CA         -0.8287  -19.9625  -46.8576 C.3       11 UNK         0.1400 
     19 N          -1.6108  -19.0749  -47.7155 N.am      11 UNK        -0.5000 
     20 C          -2.2817  -18.0027  -47.2897 C.2       10 UNK         0.5000 
     21 O          -2.2747  -17.6031  -46.1187 O.2       10 UNK        -0.5000 
     22 CA         -3.1015  -17.2572  -48.3527 C.3       10 UNK         0.1400 
     23 CB         -4.3523  -18.0516  -48.7643 C.3       10 UNK        -0.1800 
     24 N          -3.4972  -15.9605  -47.8174 N.am      10 UNK        -0.5000 
     25 C          -3.8028  -14.8719  -48.5326 C.2       9 UNK         0.5000 
     26 O          -3.7930  -14.8386  -49.7628 O.2       9 UNK        -0.5000 
     27 CA         -4.1986  -13.6006  -47.7543 C.3       9 UNK         0.1400 
     28 CB         -5.6739  -13.2510  -48.0080 C.3       9 UNK        -0.1800 
     29 N          -4.0004  -13.7345  -46.3117 N.am      9 UNK        -0.5000 
     30 C          -2.8637  -13.4941  -45.6513 C.2       8 UNK         0.5000 
     31 O          -1.8400  -13.0696  -46.1846 O.2       8 UNK        -0.5000 
     32 CA         -2.8606  -13.8057  -44.1434 C.3       8 UNK         0.1400 
     33 CB         -3.6034  -12.7215  -43.3400 C.3       8 UNK        -0.1800 
     34 N          -3.3420  -15.1544  -43.8140 N.am      8 UNK        -0.5000 
     35 C          -4.5726  -15.6789  -43.9381 C.2       7 UNK         0.5000 
     36 O          -5.5409  -15.0458  -44.3610 O.2       7 UNK        -0.5000 
     37 CA         -4.7580  -17.1626  -43.5603 C.3       7 UNK         0.1400 
     38 CB         -5.4306  -17.9497  -44.6970 C.3       7 UNK        -0.1800 
     39 N          -3.4869  -17.8087  -43.2282 N.am      7 UNK        -0.5000 
     40 C          -3.0408  -18.0051  -41.9806 C.2       6 UNK         0.5000 
     41 O          -3.6812  -17.7098  -40.9710 O.2       6 UNK        -0.5000 
     42 CA         -1.6373  -18.6192  -41.8221 C.3       6 UNK         0.1400 
     43 CB         -1.7374  -20.1393  -41.6325 C.3       6 UNK        -0.1800 
     44 N          -0.7215  -18.3449  -42.9302 N.am      6 UNK        -0.5000 
     45 C          -0.2829  -17.1423  -43.3174 C.2       5 UNK         0.5000 
     46 O          -0.6829  -16.0904  -42.8166 O.2       5 UNK        -0.5000 
     47 CA          0.7805  -17.1195  -44.4399 C.3       5 UNK         0.1400 
     48 CB          1.1741  -15.6861  -44.8363 C.3       5 UNK        -0.1800 
     49 N           1.9918  -17.8906  -44.1230 N.am      5 UNK        -0.5000 
     50 C           2.0919  -19.2261  -43.9913 C.2       4 UNK         0.5000 
     51 O           1.1400  -19.9965  -44.1398 O.2       4 UNK        -0.5000 
     52 CA          3.4705  -19.8324  -43.6492 C.3       4 UNK         0.1400 
     53 CB          3.9952  -20.6724  -44.8244 C.3       4 UNK        -0.1800 
     54 N           4.4908  -18.8478  -43.2925 N.am      4 UNK        -0.5000 
     55 C           4.5540  -18.1663  -42.1409 C.2       3 UNK         0.5000 
     56 O           3.7863  -18.3532  -41.1967 O.2       3 UNK        -0.5000 
     57 CA          5.6425  -17.0729  -42.0337 C.3       3 UNK         0.1400 
     58 CB          6.8112  -17.5646  -41.1658 C.3       3 UNK        -0.1800 
     59 N           6.1759  -16.5989  -43.3203 N.am      3 UNK        -0.5000 
     60 C           5.4516  -16.0463  -44.3038 C.2       2 UNK         0.5000 
     61 O           4.2313  -15.8988  -44.2230 O.2       2 UNK        -0.5000 
     62 CA          6.2073  -15.6410  -45.5901 C.3       2 UNK         0.1400 
     63 CB          7.1510  -16.7565  -46.0772 C.3       2 UNK        -0.1800 
     64 N           5.2865  -15.3223  -46.6810 N.am      2 UNK        -0.5000 
     65 C           4.5636  -14.2033  -46.8024 C.2       1 UNK         0.5000 
     66 O           4.6991  -13.2168  -46.0757 O.2       1 UNK        -0.5000 
     67 C          -1.7169  -21.0129  -46.1585 C.2       11 UNK         0.5000 
     68 O          -2.9068  -21.1340  -46.4562 O.2       11 UNK        -0.5000 
     69 N          -1.1135  -21.7452  -45.2114 N.am      12 UNK        -0.5000 
     70 CA         -1.7017  -22.8960  -44.5204 C.3       12 UNK         0.1400 
     71 CB         -0.6853  -23.4161  -43.4924 C.3       12 UNK        -0.1800 
     72 C          -2.1036  -24.0271  -45.4889 C.2       12 UNK         0.5000 
     73 O          -1.5031  -24.1526  -46.5567 O.2       12 UNK        -0.5000 
     74 N          -3.0872  -24.8430  -45.0800 N.am      13 UNK        -0.5000 
     75 CA         -3.7810  -25.8694  -45.8755 C.3       13 UNK         0.1400 
     76 CB         -4.7170  -26.6637  -44.9520 C.3       13 UNK        -0.1800 
     77 C          -2.8896  -26.8351  -46.6830 C.2       13 UNK         0.5000 
     78 O          -3.2795  -27.2485  -47.7762 O.2       13 UNK        -0.5000 
     79 N          -1.6959  -27.1413  -46.1574 N.am      14 UNK        -0.5000 
     80 CA         -0.6646  -27.9552  -46.8070 C.3       14 UNK         0.1400 
     81 CB          0.4843  -28.1787  -45.8117 C.3       14 UNK        -0.1800 
     82 C          -0.1245  -27.3639  -48.1281 C.2       14 UNK         0.5000 
     83 O           0.4218  -28.1109  -48.9406 O.2       14 UNK        -0.5000 
     84 N          -0.2923  -26.0491  -48.3312 N.am      15 UNK        -0.5000 
     85 CA          0.1020  -25.3250  -49.5395 C.3       15 UNK         0.1400 
     86 CB          0.2470  -23.8362  -49.1902 C.3       15 UNK        -0.1800 
     87 C          -0.8608  -25.5328  -50.7298 C.2       15 UNK         0.5000 
     88 O          -0.5324  -25.1035  -51.8368 O.2       15 UNK        -0.5000 
     89 N          -2.0123  -26.1870  -50.5009 N.am      16 UNK        -0.5000 
     90 CA         -3.0116  -26.6077  -51.4901 C.3       16 UNK         0.1400 
     91 CB         -2.4530  -27.7558  -52.3589 C.3       16 UNK        -0.1800 
     92 C          -3.5644  -25.4251  -52.3109 C.2       16 UNK         0.5000 
     93 O          -4.3826  -24.6668  -51.7932 O.2       16 UNK        -0.5000 
     94 N          -3.0950  -25.2528  -53.5545 N.am      17 UNK        -0.5000 
     95 CA         -3.4491  -24.1357  -54.4367 C.3       17 UNK         0.1400 
     96 CB         -2.8172  -24.3638  -55.8175 C.3       17 UNK        -0.1800 
     97 C          -3.0411  -22.7583  -53.8753 C.2       17 UNK         0.5000 
     98 O          -3.7338  -21.7724  -54.1220 O.2       17 UNK        -0.5000 
     99 N          -1.9589  -22.7235  -53.0875 N.am      18 UNK        -0.5000 
    100 CA        -1.4959  -21.5426  -52.3569 C.3       18 UNK         0.1400 
    101 CB         0.0333  -21.6206  -52.2091 C.3       18 UNK        -0.1800 
    102 C         -2.2185  -21.3376  -51.0059 C.2       18 UNK         0.5000 
    103 O         -1.9369  -20.3566  -50.3173 O.2       18 UNK        -0.5000 
    104 N         -3.1376  -22.2456  -50.6478 N.am      19 UNK        -0.5000 
    105 CA        -4.0474  -22.1094  -49.5095 C.3       19 UNK         0.1400 
    106 CB        -4.0903  -23.4374  -48.7390 C.3       19 UNK        -0.1800 
    107 C         -5.4637  -21.6913  -49.9532 C.2       19 UNK         0.5000 
    108 O         -6.3087  -21.4252  -49.0971 O.2       19 UNK        -0.5000 
    109 N         -5.7082  -21.6423  -51.2704 N.am      20 UNK        -0.5000 
    110 CA        -6.9364  -21.1407  -51.8840 C.3       20 UNK         0.1400 
    111 CB        -7.0975  -21.8067  -53.2627 C.3       20 UNK        -0.1800 
    112 C         -6.9081  -19.6015  -51.9903 C.2       20 UNK         0.5000 
    113 O         -5.9978  -18.9567  -51.4668 O.2       20 UNK        -0.5000 
    114 N         -7.8942  -19.0230  -52.6879 N.am      21 UNK        -0.5000 
    115 CA        -8.0132  -17.5858  -52.9597 C.3       21 UNK         0.1400 
    116 CB        -9.4715  -17.2781  -53.3458 C.3       21 UNK        -0.1800 
    117 C         -6.9986  -17.0968  -54.0213 C.2       21 UNK         0.5000 
    118 O         -7.3908  -16.5806  -55.0695 O.2       21 UNK        -0.5000 
    119 N         -5.7080  -17.2957  -53.7372 N.am      22 UNK        -0.5000 
    120 CA        -4.5646  -16.9375  -54.5884 C.3       22 UNK         0.1400 
    121 C         -4.1849  -15.4271  -54.5885 C.2       22 UNK         0.5000 
    122 N         -4.7341  -14.6003  -53.7073 N.am      22 UNK        -0.7600 
    123 O         -3.3869  -14.9954  -55.4161 O.2       22 UNK        -0.5000 
    124 C124       -3.3435  -17.8485  -54.2970 C.3       23 UNK        -0.0398 
    125 S125       -2.7706  -17.7962  -52.5614 S.3       23 UNK        -0.2404 
    126 C126       -1.1889  -16.9195  -52.7411 C.3       23 UNK        -0.0205 
    127 H127        6.4428  -15.1919  -51.2234 H         1 UNK         0.0600 
    128 H128        5.2836  -13.8986  -51.5462 H         1 UNK         0.0600 
    129 H129        4.8957  -15.5625  -51.9931 H         1 UNK         0.0600 
    130 H130        4.2166  -13.2400  -49.6998 H         1 UNK         0.3000 
    131 H131        3.0071  -15.1480  -47.8822 H         1 UNK         0.0600 
    132 H132        2.9355  -12.1061  -47.7770 H         1 UNK         0.0800 
    133 H133        1.9569  -13.1836  -46.8204 H         1 UNK         0.0800 
    134 H134       -0.9822  -13.9429  -48.6417 H         1 UNK         0.0800 
    135 H135        0.1671  -14.5834  -47.5022 H         1 UNK         0.0800 
    136 H136       -1.1616  -14.8612  -50.9479 H         1 UNK         0.1150 
    137 H137        0.4375  -18.7727  -51.6167 H         1 UNK         0.1150 
    138 H138        1.4312  -16.6436  -48.0358 H         1 UNK         0.1150 
    139 H139        2.9901  -18.6293  -49.5276 H         1 UNK         0.0800 
    140 H140        1.8387  -19.8426  -50.0135 H         1 UNK         0.0800 
    141 H141        0.0745  -20.8504  -48.6537 H         1 UNK         0.0800 
    142 H142        0.6919  -21.5223  -47.1742 H         1 UNK         0.0800 
    143 H143       -0.4249  -19.3761  -46.0401 H         1 UNK         0.0600 
    144 H144       -1.7106  -19.3743  -48.6829 H         1 UNK         0.3000 
    145 H145       -2.4693  -17.1100  -49.2290 H         1 UNK         0.0600 
    146 H146       -4.0755  -18.9801  -49.2622 H         1 UNK         0.0600 
    147 H147       -4.9637  -17.4869  -49.4676 H         1 UNK         0.0600 
    148 H148       -4.9770  -18.3088  -47.9095 H         1 UNK         0.0600 
    149 H149       -3.4588  -15.8981  -46.8089 H         1 UNK         0.3000 
    150 H150       -3.5822  -12.7808  -48.1292 H         1 UNK         0.0600 
    151 H151       -5.8662  -13.1069  -49.0720 H         1 UNK         0.0600 
    152 H152       -5.9529  -12.3273  -47.5007 H         1 UNK         0.0600 
    153 H153       -6.3392  -14.0411  -47.6573 H         1 UNK         0.0600 
    154 H154       -4.7798  -14.1042  -45.7721 H         1 UNK         0.3000 
    155 H155       -1.8172  -13.7834  -43.8249 H         1 UNK         0.0600 
    156 H156       -3.5439  -12.9164  -42.2692 H         1 UNK         0.0600 
    157 H157       -4.6573  -12.6563  -43.6110 H         1 UNK         0.0600 
    158 H158       -3.1626  -11.7397  -43.5166 H         1 UNK         0.0600 
    159 H159       -2.6146  -15.7658  -43.4591 H         1 UNK         0.3000 
    160 H160       -5.4310  -17.1875  -42.7011 H         1 UNK         0.0600 
    161 H161       -4.8425  -17.9162  -45.6117 H         1 UNK         0.0600 
    162 H162       -6.4170  -17.5454  -44.9272 H         1 UNK         0.0600 
    163 H163       -5.5656  -18.9968  -44.4257 H         1 UNK         0.0600 
    164 H164       -2.8889  -18.0441  -44.0121 H         1 UNK         0.3000 
    165 H165       -1.1954  -18.1906  -40.9204 H         1 UNK         0.0600 
    166 H166       -2.1493  -20.6241  -42.5177 H         1 UNK         0.0600 
    167 H167       -0.7592  -20.5765  -41.4318 H         1 UNK         0.0600 
    168 H168       -2.3836  -20.3887  -40.7898 H         1 UNK         0.0600 
    169 H169       -0.2828  -19.1510  -43.3680 H         1 UNK         0.3000 
    170 H170        0.3262  -17.5538  -45.3254 H         1 UNK         0.0600 
    171 H171        0.2988  -15.1085  -45.1363 H         1 UNK         0.0600 
    172 H172        1.6488  -15.1560  -44.0100 H         1 UNK         0.0600 
    173 H173        1.8658  -15.6872  -45.6778 H         1 UNK         0.0600 
    174 H174        2.8317  -17.3349  -43.9966 H         1 UNK         0.3000 
    175 H175        3.3222  -20.4977  -42.7963 H         1 UNK         0.0600 
    176 H176        4.1972  -20.0547  -45.7003 H         1 UNK         0.0600 
    177 H177        4.9168  -21.1903  -44.5588 H         1 UNK         0.0600 
    178 H178        3.2712  -21.4329  -45.1205 H         1 UNK         0.0600 
    179 H179        5.1641  -18.6212  -44.0088 H         1 UNK         0.3000 
    180 H180        5.1841  -16.2163  -41.5354 H         1 UNK         0.0600 
    181 H181        7.3301  -18.4043  -41.6299 H         1 UNK         0.0600 
    182 H182        6.4608  -17.8958  -40.1872 H         1 UNK         0.0600 
    183 H183        7.5389  -16.7710  -40.9956 H         1 UNK         0.0600 
    184 H184        7.1718  -16.7015  -43.4517 H         1 UNK         0.3000 
    185 H185        6.8014  -14.7542  -45.3616 H         1 UNK         0.0600 
    186 H186        7.9464  -16.9550  -45.3585 H         1 UNK         0.0600 
    187 H187        6.6149  -17.6913  -46.2469 H         1 UNK         0.0600 
    188 H188        7.6354  -16.4782  -47.0136 H         1 UNK         0.0600 
    189 H189        5.1325  -16.0491  -47.3715 H         1 UNK         0.3000 
    190 H190       -0.1507  -21.5321  -44.9796 H         1 UNK         0.3000 
    191 H191       -2.5966  -22.5521  -43.9986 H         1 UNK         0.0600 
    192 H192       -1.0996  -24.2403  -42.9106 H         1 UNK         0.0600 
    193 H193       -0.3973  -22.6358  -42.7883 H         1 UNK         0.0600 
    194 H194        0.2228  -23.7789  -43.9760 H         1 UNK         0.0600 
    195 H195       -3.4820  -24.6760  -44.1658 H         1 UNK         0.3000 
    196 H196       -4.4028  -25.3412  -46.5986 H         1 UNK         0.0600 
    197 H197       -5.2691  -27.4215  -45.5098 H         1 UNK         0.0600 
    198 H198       -5.4528  -26.0129  -44.4793 H         1 UNK         0.0600 
    199 H199       -4.1634  -27.1749  -44.1633 H         1 UNK         0.0600 
    200 H200       -1.4533  -26.7328  -45.2670 H         1 UNK         0.3000 
    201 H201       -1.1078  -28.9245  -47.0439 H         1 UNK         0.0600 
    202 H202        0.1332  -28.6768  -44.9078 H         1 UNK         0.0600 
    203 H203        0.9496  -27.2366  -45.5186 H         1 UNK         0.0600 
    204 H204        1.2622  -28.8081  -46.2461 H         1 UNK         0.0600 
    205 H205       -0.7508  -25.4919  -47.6126 H         1 UNK         0.3000 
    206 H206        1.0828  -25.6917  -49.8490 H         1 UNK         0.0600 
    207 H207        0.8264  -23.7022  -48.2769 H         1 UNK         0.0600 
    208 H208        0.7737  -23.2997  -49.9761 H         1 UNK         0.0600 
    209 H209       -0.7211  -23.3557  -49.0462 H         1 UNK         0.0600 
    210 H210       -2.2128  -26.4648  -49.5473 H         1 UNK         0.3000 
    211 H211       -3.8550  -27.0055  -50.9235 H         1 UNK         0.0600 
    212 H212       -1.5541  -27.4668  -52.9042 H         1 UNK         0.0600 
    213 H213       -3.1915  -28.0927  -53.0876 H         1 UNK         0.0600 
    214 H214       -2.1966  -28.6168  -51.7413 H         1 UNK         0.0600 
    215 H215       -2.3959  -25.8967  -53.8956 H         1 UNK         0.3000 
    216 H216       -4.5351  -24.1332  -54.5521 H         1 UNK         0.0600 
    217 H217       -1.7287  -24.4030  -55.7601 H         1 UNK         0.0600 
    218 H218       -3.0813  -23.5594  -56.5054 H         1 UNK         0.0600 
    219 H219       -3.1648  -25.2968  -56.2617 H         1 UNK         0.0600 
    220 H220       -1.4630  -23.5896  -52.8999 H         1 UNK         0.3000 
    221 H221       -1.7162  -20.6490  -52.9444 H         1 UNK         0.0600 
    222 H222        0.3793  -22.6418  -52.0645 H         1 UNK         0.0600 
    223 H223        0.5242  -21.2411  -53.1052 H         1 UNK         0.0600 
    224 H224        0.3955  -21.0332  -51.3675 H         1 UNK         0.0600 
    225 H225       -3.3186  -23.0395  -51.2517 H         1 UNK         0.3000 
    226 H226       -3.6830  -21.3355  -48.8357 H         1 UNK         0.0600 
    227 H227       -3.0892  -23.8268  -48.5644 H         1 UNK         0.0600 
    228 H228       -4.5607  -23.2922  -47.7663 H         1 UNK         0.0600 
    229 H229       -4.6579  -24.2040  -49.2656 H         1 UNK         0.0600 
    230 H230       -4.9439  -21.8276  -51.9030 H         1 UNK         0.3000 
    231 H231       -7.7883  -21.4212  -51.2614 H         1 UNK         0.0600 
    232 H232       -8.0860  -21.6179  -53.6821 H         1 UNK         0.0600 
    233 H233       -6.9814  -22.8889  -53.1953 H         1 UNK         0.0600 
    234 H234       -6.3625  -21.4363  -53.9778 H         1 UNK         0.0600 
    235 H235       -8.5935  -19.6116  -53.1162 H         1 UNK         0.3000 
    236 H236       -7.7965  -17.0409  -52.0384 H         1 UNK         0.0600 
    237 H237       -9.7665  -17.8007  -54.2565 H         1 UNK         0.0600 
    238 H238      -10.1595  -17.5714  -52.5526 H         1 UNK         0.0600 
    239 H239       -9.6144  -16.2104  -53.5174 H         1 UNK         0.0600 
    240 H240       -5.4812  -17.7523  -52.8569 H         1 UNK         0.3000 
    241 H241       -4.8636  -17.1486  -55.6169 H         1 UNK         0.0600 
    242 H242       -5.3639  -14.9508  -53.0041 H         1 UNK         0.3800 
    243 H243       -4.4839  -13.6245  -53.7171 H         1 UNK         0.3800 
    244 H244       -3.6102  -18.8835  -54.5165 H         1 UNK         0.0800 
    245 H245       -2.5188  -17.6152  -54.9723 H         1 UNK         0.0800 
    246 H246       -1.3725  -15.9197  -53.1378 H         1 UNK         0.0800 
    247 H247       -0.5662  -17.4360  -53.4731 H         1 UNK         0.0800 
@<TRIPOS>BOND
     1    1    2 1    
     2    1  127 1    
     3    1  128 1    
     4    1  129 1    
     5    2    3 2    
     6    2    4 am   BACKBONE|DICT|INTERRES
     7    4    5 1    
     8    4  130 1    
     9    5    6 1    
    10    5   65 1    
    11    5  131 1    
    12    6    7 1    
    13    6  132 1    
    14    6  133 1    
    15    7    8 1    
    16    8    9 1    
    17    8  134 1    
    18    8  135 1    
    19    9   10 ar   
    20    9   14 ar   
    21   10   11 ar   
    22   10  136 1    
    23   11   12 ar   
    24   11  126 1    
    25   12   13 ar   
    26   12  137 1    
    27   13   14 ar   
    28   13   15 1    
    29   14  138 1    
    30   15   16 1    
    31   15  139 1    
    32   15  140 1    
    33   16   17 1    
    34   17   18 1    
    35   17  141 1    
    36   17  142 1    
    37   18   19 1    
    38   18   67 1    
    39   18  143 1    
    40   19   20 am   BACKBONE|DICT|INTERRES
    41   19  144 1    
    42   20   21 2    
    43   20   22 1    
    44   22   23 1    
    45   22   24 1    
    46   22  145 1    
    47   23  146 1    
    48   23  147 1    
    49   23  148 1    
    50   24   25 am   BACKBONE|DICT|INTERRES
    51   24  149 1    
    52   25   26 2    
    53   25   27 1    
    54   27   28 1    
    55   27   29 1    
    56   27  150 1    
    57   28  151 1    
    58   28  152 1    
    59   28  153 1    
    60   29   30 am   BACKBONE|DICT|INTERRES
    61   29  154 1    
    62   30   31 2    
    63   30   32 1    
    64   32   33 1    
    65   32   34 1    
    66   32  155 1    
    67   33  156 1    
    68   33  157 1    
    69   33  158 1    
    70   34   35 am   BACKBONE|DICT|INTERRES
    71   34  159 1    
    72   35   36 2    
    73   35   37 1    
    74   37   38 1    
    75   37   39 1    
    76   37  160 1    
    77   38  161 1    
    78   38  162 1    
    79   38  163 1    
    80   39   40 am   BACKBONE|DICT|INTERRES
    81   39  164 1    
    82   40   41 2    
    83   40   42 1    
    84   42   43 1    
    85   42   44 1    
    86   42  165 1    
    87   43  166 1    
    88   43  167 1    
    89   43  168 1    
    90   44   45 am   BACKBONE|DICT|INTERRES
    91   44  169 1    
    92   45   46 2    
    93   45   47 1    
    94   47   48 1    
    95   47   49 1    
    96   47  170 1    
    97   48  171 1    
    98   48  172 1    
    99   48  173 1    
   100   49   50 am   BACKBONE|DICT|INTERRES
   101   49  174 1    
   102   50   51 2    
   103   50   52 1    
   104   52   53 1    
   105   52   54 1    
   106   52  175 1    
   107   53  176 1    
   108   53  177 1    
   109   53  178 1    
   110   54   55 am   BACKBONE|DICT|INTERRES
   111   54  179 1    
   112   55   56 2    
   113   55   57 1    
   114   57   58 1    
   115   57   59 1    
   116   57  180 1    
   117   58  181 1    
   118   58  182 1    
   119   58  183 1    
   120   59   60 am   BACKBONE|DICT|INTERRES
   121   59  184 1    
   122   60   61 2    
   123   60   62 1    
   124   62   63 1    
   125   62   64 1    
   126   62  185 1    
   127   63  186 1    
   128   63  187 1    
   129   63  188 1    
   130   64   65 am   BACKBONE|DICT|INTERRES
   131   64  189 1    
   132   65   66 2    
   133   67   68 2    
   134   67   69 am   BACKBONE|DICT|INTERRES
   135   69   70 1    
   136   69  190 1    
   137   70   71 1    
   138   70   72 1    
   139   70  191 1    
   140   71  192 1    
   141   71  193 1    
   142   71  194 1    
   143   72   73 2    
   144   72   74 am   BACKBONE|DICT|INTERRES
   145   74   75 1    
   146   74  195 1    
   147   75   76 1    
   148   75   77 1    
   149   75  196 1    
   150   76  197 1    
   151   76  198 1    
   152   76  199 1    
   153   77   78 2    
   154   77   79 am   BACKBONE|DICT|INTERRES
   155   79   80 1    
   156   79  200 1    
   157   80   81 1    
   158   80   82 1    
   159   80  201 1    
   160   81  202 1    
   161   81  203 1    
   162   81  204 1    
   163   82   83 2    
   164   82   84 am   BACKBONE|DICT|INTERRES
   165   84   85 1    
   166   84  205 1    
   167   85   86 1    
   168   85   87 1    
   169   85  206 1    
   170   86  207 1    
   171   86  208 1    
   172   86  209 1    
   173   87   88 2    
   174   87   89 am   BACKBONE|DICT|INTERRES
   175   89   90 1    
   176   89  210 1    
   177   90   91 1    
   178   90   92 1    
   179   90  211 1    
   180   91  212 1    
   181   91  213 1    
   182   91  214 1    
   183   92   93 2    
   184   92   94 am   BACKBONE|DICT|INTERRES
   185   94   95 1    
   186   94  215 1    
   187   95   96 1    
   188   95   97 1    
   189   95  216 1    
   190   96  217 1    
   191   96  218 1    
   192   96  219 1    
   193   97   98 2    
   194   97   99 am   BACKBONE|DICT|INTERRES
   195   99  100 1    
   196   99  220 1    
   197  100  101 1    
   198  100  102 1    
   199  100  221 1    
   200  101  222 1    
   201  101  223 1    
   202  101  224 1    
   203  102  103 2    
   204  102  104 am   BACKBONE|DICT|INTERRES
   205  104  105 1    
   206  104  225 1    
   207  105  106 1    
   208  105  107 1    
   209  105  226 1    
   210  106  227 1    
   211  106  228 1    
   212  106  229 1    
   213  107  108 2    
   214  107  109 am   BACKBONE|DICT|INTERRES
   215  109  110 1    
   216  109  230 1    
   217  110  111 1    
   218  110  112 1    
   219  110  231 1    
   220  111  232 1    
   221  111  233 1    
   222  111  234 1    
   223  112  113 2    
   224  112  114 am   BACKBONE|DICT|INTERRES
   225  114  115 1    
   226  114  235 1    
   227  115  116 1    
   228  115  117 1    
   229  115  236 1    
   230  116  237 1    
   231  116  238 1    
   232  116  239 1    
   233  117  118 2    
   234  117  119 am   BACKBONE|DICT|INTERRES
   235  119  120 1    
   236  119  240 1    
   237  120  121 1    
   238  120  124 1    
   239  120  241 1    
   240  121  122 am   BACKBONE|DICT|INTERRES
   241  121  123 2    
   242  122  242 1    
   243  122  243 1    
   244  124  125 1    
   245  124  244 1    
   246  124  245 1    
   247  125  126 1    
   248  126  246 1    
   249  126  247 1    
@<TRIPOS>SUBSTRUCTURE
     1 UNK         1 GROUP             0       ****    0 ROOT    
