@<TRIPOS>MOLECULE
3R540
247   249    1
SMALL
USER_CHARGES


@<TRIPOS>ATOM
      1 CA          0.6558  -10.8827  -44.3805 C.3       0 UNK        -0.1800 
      2 C           1.1493  -11.6784  -45.5795 C.2       0 UNK         0.5000 
      3 O           1.4403  -12.8679  -45.4424 O.2       0 UNK        -0.5000 
      4 N           1.2416  -11.0209  -46.7435 N.am      1 UNK        -0.5000 
      5 CA          1.6926  -11.5667  -48.0334 C.3       1 UNK         0.1400 
      6 C6          0.8045  -12.7356  -48.5611 C.3       23 UNK        -0.0398 
      7 S7         -0.9884  -12.3849  -48.5070 S.3       23 UNK        -0.2404 
      8 C8         -1.5792  -13.6975  -47.3877 C.3       23 UNK        -0.0205 
      9 C9         -2.0639  -14.9214  -48.1533 C.ar      23 UNK        -0.0193 
     10 C10        -3.4326  -15.2008  -48.2214 C.ar      23 UNK        -0.1150 
     11 C11        -3.8943  -16.3251  -48.9094 C.ar      23 UNK        -0.0193 
     12 C12        -2.9790  -17.1738  -49.5335 C.ar      23 UNK        -0.1150 
     13 C13        -1.6086  -16.9097  -49.4761 C.ar      23 UNK        -0.0193 
     14 C14        -1.1561  -15.7801  -48.7844 C.ar      23 UNK        -0.1150 
     15 C15        -0.6356  -17.8510  -50.1769 C.3       23 UNK        -0.0205 
     16 S16         0.6902  -18.5042  -49.1060 S.3       23 UNK        -0.2404 
     17 C17        -0.1682  -18.9636  -47.5631 C.3       23 UNK        -0.0398 
     18 CA         -0.7893  -20.3816  -47.5766 C.3       11 UNK         0.1400 
     19 N          -0.6735  -21.0244  -46.2621 N.am      11 UNK        -0.5000 
     20 C          -1.0152  -22.2862  -45.9648 C.2       10 UNK         0.5000 
     21 O          -1.4079  -23.1045  -46.7957 O.2       10 UNK        -0.5000 
     22 CA         -0.9265  -22.6931  -44.4854 C.3       10 UNK         0.1400 
     23 CB          0.4900  -23.1747  -44.1385 C.3       10 UNK        -0.1800 
     24 N          -1.3005  -21.5844  -43.6062 N.am      10 UNK        -0.5000 
     25 C          -2.5654  -21.2493  -43.3117 C.2       9 UNK         0.5000 
     26 O          -3.5469  -21.8900  -43.6862 O.2       9 UNK        -0.5000 
     27 CA         -2.7738  -19.9700  -42.4759 C.3       9 UNK         0.1400 
     28 CB         -2.7293  -20.2929  -40.9749 C.3       9 UNK        -0.1800 
     29 N          -1.7943  -18.9224  -42.7708 N.am      9 UNK        -0.5000 
     30 C          -1.6953  -18.2852  -43.9455 C.2       8 UNK         0.5000 
     31 O          -2.4539  -18.4820  -44.8926 O.2       8 UNK        -0.5000 
     32 CA         -0.5099  -17.3184  -44.1211 C.3       8 UNK         0.1400 
     33 CB         -0.9228  -15.8724  -43.8183 C.3       8 UNK        -0.1800 
     34 N           0.6798  -17.6843  -43.3426 N.am      8 UNK        -0.5000 
     35 C           1.3711  -18.8241  -43.5079 C.2       7 UNK         0.5000 
     36 O           1.0008  -19.7234  -44.2633 O.2       7 UNK        -0.5000 
     37 CA          2.6902  -18.9988  -42.7331 C.3       7 UNK         0.1400 
     38 CB          3.8595  -19.2746  -43.6930 C.3       7 UNK        -0.1800 
     39 N           3.0174  -17.8337  -41.9082 N.am      7 UNK        -0.5000 
     40 C           2.7927  -17.7633  -40.5893 C.2       6 UNK         0.5000 
     41 O           2.2870  -18.6721  -39.9297 O.2       6 UNK        -0.5000 
     42 CA          3.1772  -16.4488  -39.8878 C.3       6 UNK         0.1400 
     43 CB          4.6777  -16.4314  -39.5589 C.3       6 UNK        -0.1800 
     44 N           2.8450  -15.2503  -40.6570 N.am      6 UNK        -0.5000 
     45 C           1.6215  -14.8715  -41.0435 C.2       5 UNK         0.5000 
     46 O           0.6101  -15.5405  -40.8357 O.2       5 UNK        -0.5000 
     47 CA          1.4953  -13.5365  -41.8064 C.3       5 UNK         0.1400 
     48 CB          1.3071  -12.3598  -40.8302 C.3       5 UNK        -0.1800 
     49 N           2.5753  -13.2762  -42.7683 N.am      5 UNK        -0.5000 
     50 C           3.8763  -13.0440  -42.5399 C.2       4 UNK         0.5000 
     51 O           4.3726  -12.9831  -41.4135 O.2       4 UNK        -0.5000 
     52 CA          4.7734  -12.9014  -43.7861 C.3       4 UNK         0.1400 
     53 CB          6.2702  -13.0967  -43.4692 C.3       4 UNK        -0.1800 
     54 N           4.3781  -13.7730  -44.8967 N.am      4 UNK        -0.5000 
     55 C           4.2654  -15.1122  -44.8964 C.2       3 UNK         0.5000 
     56 O           4.4011  -15.8130  -43.8910 O.2       3 UNK        -0.5000 
     57 CA          3.9264  -15.7925  -46.2421 C.3       3 UNK         0.1400 
     58 CB          2.4956  -16.3469  -46.2202 C.3       3 UNK        -0.1800 
     59 N           4.0353  -14.9045  -47.3971 N.am      3 UNK        -0.5000 
     60 C           5.1625  -14.4139  -47.9307 C.2       2 UNK         0.5000 
     61 O           6.2924  -14.7450  -47.5723 O.2       2 UNK        -0.5000 
     62 CA          4.9843  -13.3412  -49.0295 C.3       2 UNK         0.1400 
     63 CB          5.2194  -13.9503  -50.4200 C.3       2 UNK        -0.1800 
     64 N           3.6578  -12.7073  -49.0044 N.am      2 UNK        -0.5000 
     65 C           3.1963  -11.9455  -48.0001 C.2       1 UNK         0.5000 
     66 O           3.9110  -11.5888  -47.0589 O.2       1 UNK        -0.5000 
     67 C          -2.2501  -20.3576  -48.0746 C.2       11 UNK         0.5000 
     68 O          -2.5072  -20.6396  -49.2417 O.2       11 UNK        -0.5000 
     69 N          -3.1908  -20.0943  -47.1602 N.am      12 UNK        -0.5000 
     70 CA         -4.6349  -20.1688  -47.3808 C.3       12 UNK         0.1400 
     71 CB         -5.3264  -19.2243  -46.3826 C.3       12 UNK        -0.1800 
     72 C          -5.1978  -21.6059  -47.2916 C.2       12 UNK         0.5000 
     73 O          -6.4070  -21.7725  -47.1236 O.2       12 UNK        -0.5000 
     74 N          -4.3320  -22.6209  -47.3901 N.am      13 UNK        -0.5000 
     75 CA         -4.6678  -24.0339  -47.3138 C.3       13 UNK         0.1400 
     76 CB         -4.7604  -24.4668  -45.8336 C.3       13 UNK        -0.1800 
     77 C          -3.6630  -24.8414  -48.1570 C.2       13 UNK         0.5000 
     78 O          -3.3946  -24.4788  -49.3053 O.2       13 UNK        -0.5000 
     79 N          -3.1401  -25.9307  -47.5811 N.am      14 UNK        -0.5000 
     80 CA         -2.3545  -26.9788  -48.2323 C.3       14 UNK         0.1400 
     81 CB         -2.1219  -28.1096  -47.2178 C.3       14 UNK        -0.1800 
     82 C          -1.0167  -26.5498  -48.8650 C.2       14 UNK         0.5000 
     83 O          -0.5121  -27.2901  -49.7104 O.2       14 UNK        -0.5000 
     84 N          -0.4498  -25.3985  -48.4719 N.am      15 UNK        -0.5000 
     85 CA          0.7905  -24.8916  -49.0709 C.3       15 UNK         0.1400 
     86 CB          1.4596  -23.8676  -48.1438 C.3       15 UNK        -0.1800 
     87 C           0.5644  -24.3046  -50.4777 C.2       15 UNK         0.5000 
     88 O           1.4840  -24.3428  -51.2961 O.2       15 UNK        -0.5000 
     89 N          -0.6501  -23.8028  -50.7423 N.am      16 UNK        -0.5000 
     90 CA         -1.0948  -23.3941  -52.0736 C.3       16 UNK         0.1400 
     91 CB         -1.9543  -22.1285  -51.9702 C.3       16 UNK        -0.1800 
     92 C          -1.8794  -24.5284  -52.7480 C.2       16 UNK         0.5000 
     93 O          -1.6174  -24.8319  -53.9124 O.2       16 UNK        -0.5000 
     94 N          -2.8131  -25.1401  -52.0017 N.am      17 UNK        -0.5000 
     95 CA         -3.6969  -26.2367  -52.4036 C.3       17 UNK         0.1400 
     96 CB         -2.9025  -27.5574  -52.5058 C.3       17 UNK        -0.1800 
     97 C          -4.4999  -25.8954  -53.6759 C.2       17 UNK         0.5000 
     98 O          -5.4805  -25.1554  -53.5926 O.2       17 UNK        -0.5000 
     99 N          -4.0594  -26.4219  -54.8261 N.am      18 UNK        -0.5000 
    100 CA        -4.6369  -26.1759  -56.1464 C.3       18 UNK         0.1400 
    101 CB        -4.0631  -27.2005  -57.1369 C.3       18 UNK        -0.1800 
    102 C         -4.4132  -24.7421  -56.6668 C.2       18 UNK         0.5000 
    103 O         -5.1836  -24.2902  -57.5156 O.2       18 UNK        -0.5000 
    104 N         -3.3921  -24.0366  -56.1564 N.am      19 UNK        -0.5000 
    105 CA        -3.0489  -22.6573  -56.5196 C.3       19 UNK         0.1400 
    106 CB        -1.5611  -22.4081  -56.2135 C.3       19 UNK        -0.1800 
    107 C         -3.9783  -21.6251  -55.8428 C.2       19 UNK         0.5000 
    108 O         -3.5072  -20.7227  -55.1478 O.2       19 UNK        -0.5000 
    109 N         -5.2901  -21.7937  -56.0523 N.am      20 UNK        -0.5000 
    110 CA        -6.4315  -21.0074  -55.5711 C.3       20 UNK         0.1400 
    111 CB        -6.3757  -19.5581  -56.0907 C.3       20 UNK        -0.1800 
    112 C         -6.6490  -21.0386  -54.0463 C.2       20 UNK         0.5000 
    113 O         -7.7764  -21.2744  -53.6100 O.2       20 UNK        -0.5000 
    114 N         -5.5928  -20.7621  -53.2672 N.am      21 UNK        -0.5000 
    115 CA        -5.5548  -20.7002  -51.7977 C.3       21 UNK         0.1400 
    116 CB        -5.7248  -22.1169  -51.2097 C.3       21 UNK        -0.1800 
    117 C         -6.5580  -19.6857  -51.1947 C.2       21 UNK         0.5000 
    118 O         -7.0208  -19.8713  -50.0692 O.2       21 UNK        -0.5000 
    119 N         -6.8919  -18.6458  -51.9728 N.am      22 UNK        -0.5000 
    120 CA        -7.9631  -17.6607  -51.7275 C.3       22 UNK         0.1400 
    121 C         -9.4106  -18.2438  -51.7936 C.2       22 UNK         0.5000 
    122 N         -9.6314  -19.4413  -52.3236 N.am      22 UNK        -0.7600 
    123 O        -10.3653  -17.5858  -51.3879 O.2       22 UNK        -0.5000 
    124 C124       -7.7422  -16.7806  -50.4637 C.3       23 UNK        -0.0398 
    125 S125       -6.1336  -15.9182  -50.4666 S.3       23 UNK        -0.2404 
    126 C126       -5.3788  -16.6337  -48.9785 C.3       23 UNK        -0.0205 
    127 H127       -0.0959  -11.4522  -43.8342 H         1 UNK         0.0600 
    128 H128        0.2092   -9.9347  -44.6810 H         1 UNK         0.0600 
    129 H129        1.4856  -10.6712  -43.7067 H         1 UNK         0.0600 
    130 H130        1.0076  -10.0387  -46.7614 H         1 UNK         0.3000 
    131 H131        1.6095  -10.7439  -48.7447 H         1 UNK         0.0600 
    132 H132        1.0435  -12.9593  -49.6015 H         1 UNK         0.0800 
    133 H133        1.0141  -13.6480  -48.0025 H         1 UNK         0.0800 
    134 H134       -0.8036  -13.9863  -46.6773 H         1 UNK         0.0800 
    135 H135       -2.3900  -13.2869  -46.7844 H         1 UNK         0.0800 
    136 H136       -4.1421  -14.5426  -47.7398 H         1 UNK         0.1150 
    137 H137       -3.3386  -18.0432  -50.0663 H         1 UNK         0.1150 
    138 H138       -0.0967  -15.5760  -48.7371 H         1 UNK         0.1150 
    139 H139       -1.1672  -18.6975  -50.6141 H         1 UNK         0.0800 
    140 H140       -0.1778  -17.3202  -51.0124 H         1 UNK         0.0800 
    141 H141       -0.8930  -18.2026  -47.2730 H         1 UNK         0.0800 
    142 H142        0.6087  -18.9161  -46.7999 H         1 UNK         0.0800 
    143 H143       -0.2254  -20.9991  -48.2766 H         1 UNK         0.0600 
    144 H144       -0.2826  -20.4572  -45.5165 H         1 UNK         0.3000 
    145 H145       -1.6138  -23.5263  -44.3239 H         1 UNK         0.0600 
    146 H146        0.5579  -23.4778  -43.0936 H         1 UNK         0.0600 
    147 H147        0.7648  -24.0384  -44.7449 H         1 UNK         0.0600 
    148 H148        1.2385  -22.4012  -44.3127 H         1 UNK         0.0600 
    149 H149       -0.5512  -20.9737  -43.3096 H         1 UNK         0.3000 
    150 H150       -3.7658  -19.5794  -42.7127 H         1 UNK         0.0600 
    151 H151       -3.4640  -21.0573  -40.7183 H         1 UNK         0.0600 
    152 H152       -2.9561  -19.4115  -40.3749 H         1 UNK         0.0600 
    153 H153       -1.7496  -20.6638  -40.6710 H         1 UNK         0.0600 
    154 H154       -1.1258  -18.7014  -42.0472 H         1 UNK         0.3000 
    155 H155       -0.2246  -17.3518  -45.1723 H         1 UNK         0.0600 
    156 H156       -0.1136  -15.1787  -44.0457 H         1 UNK         0.0600 
    157 H157       -1.2060  -15.7428  -42.7738 H         1 UNK         0.0600 
    158 H158       -1.7781  -15.5772  -44.4279 H         1 UNK         0.0600 
    159 H159        1.0053  -17.0145  -42.6594 H         1 UNK         0.3000 
    160 H160        2.5682  -19.8850  -42.1073 H         1 UNK         0.0600 
    161 H161        4.0319  -18.4442  -44.3763 H         1 UNK         0.0600 
    162 H162        3.6717  -20.1627  -44.2979 H         1 UNK         0.0600 
    163 H163        4.7842  -19.4493  -43.1430 H         1 UNK         0.0600 
    164 H164        3.4468  -17.0462  -42.3836 H         1 UNK         0.3000 
    165 H165        2.6210  -16.4009  -38.9495 H         1 UNK         0.0600 
    166 H166        4.9431  -15.5488  -38.9766 H         1 UNK         0.0600 
    167 H167        4.9605  -17.3057  -38.9712 H         1 UNK         0.0600 
    168 H168        5.2870  -16.4306  -40.4638 H         1 UNK         0.0600 
    169 H169        3.6078  -14.6114  -40.8638 H         1 UNK         0.3000 
    170 H170        0.5858  -13.6039  -42.4040 H         1 UNK         0.0600 
    171 H171        0.4277  -12.5145  -40.2040 H         1 UNK         0.0600 
    172 H172        2.1608  -12.2396  -40.1631 H         1 UNK         0.0600 
    173 H173        1.1633  -11.4205  -41.3632 H         1 UNK         0.0600 
    174 H174        2.2875  -13.3167  -43.7431 H         1 UNK         0.3000 
    175 H175        4.6388  -11.8784  -44.1401 H         1 UNK         0.0600 
    176 H176        6.4698  -14.0887  -43.0625 H         1 UNK         0.0600 
    177 H177        6.8810  -12.9722  -44.3635 H         1 UNK         0.0600 
    178 H178        6.6162  -12.3658  -42.7374 H         1 UNK         0.0600 
    179 H179        4.1798  -13.2844  -45.7619 H         1 UNK         0.3000 
    180 H180        4.6223  -16.6225  -46.3789 H         1 UNK         0.0600 
    181 H181        2.2410  -16.8213  -47.1671 H         1 UNK         0.0600 
    182 H182        1.7584  -15.5671  -46.0245 H         1 UNK         0.0600 
    183 H183        2.3899  -17.1021  -45.4473 H         1 UNK         0.0600 
    184 H184        3.1625  -14.5725  -47.7751 H         1 UNK         0.3000 
    185 H185        5.7365  -12.5680  -48.8595 H         1 UNK         0.0600 
    186 H186        5.1622  -13.1900  -51.1992 H         1 UNK         0.0600 
    187 H187        6.2087  -14.4055  -50.4848 H         1 UNK         0.0600 
    188 H188        4.4865  -14.7247  -50.6500 H         1 UNK         0.0600 
    189 H189        3.0470  -12.9335  -49.7759 H         1 UNK         0.3000 
    190 H190       -2.8987  -19.8083  -46.2301 H         1 UNK         0.3000 
    191 H191       -4.8475  -19.8146  -48.3897 H         1 UNK         0.0600 
    192 H192       -4.9156  -18.2162  -46.4425 H         1 UNK         0.0600 
    193 H193       -5.2041  -19.5721  -45.3559 H         1 UNK         0.0600 
    194 H194       -6.3956  -19.1509  -46.5844 H         1 UNK         0.0600 
    195 H195       -3.3524  -22.4240  -47.5556 H         1 UNK         0.3000 
    196 H196       -5.6422  -24.1913  -47.7804 H         1 UNK         0.0600 
    197 H197       -3.8040  -24.3557  -45.3210 H         1 UNK         0.0600 
    198 H198       -5.4892  -23.8621  -45.2935 H         1 UNK         0.0600 
    199 H199       -5.0813  -25.5046  -45.7375 H         1 UNK         0.0600 
    200 H200       -3.3916  -26.1111  -46.6205 H         1 UNK         0.3000 
    201 H201       -2.9680  -27.3758  -49.0435 H         1 UNK         0.0600 
    202 H202       -1.5453  -27.7641  -46.3588 H         1 UNK         0.0600 
    203 H203       -1.5736  -28.9376  -47.6694 H         1 UNK         0.0600 
    204 H204       -3.0658  -28.5125  -46.8502 H         1 UNK         0.0600 
    205 H205       -0.9180  -24.8034  -47.7953 H         1 UNK         0.3000 
    206 H206        1.4848  -25.7286  -49.1744 H         1 UNK         0.0600 
    207 H207        1.5659  -24.2552  -47.1309 H         1 UNK         0.0600 
    208 H208        2.4581  -23.6172  -48.5037 H         1 UNK         0.0600 
    209 H209        0.8959  -22.9396  -48.0964 H         1 UNK         0.0600 
    210 H210       -1.3571  -23.8395  -50.0185 H         1 UNK         0.3000 
    211 H211       -0.2372  -23.1589  -52.7075 H         1 UNK         0.0600 
    212 H212       -2.3631  -21.8459  -52.9401 H         1 UNK         0.0600 
    213 H213       -1.3660  -21.2857  -51.6075 H         1 UNK         0.0600 
    214 H214       -2.7919  -22.2707  -51.2885 H         1 UNK         0.0600 
    215 H215       -2.9779  -24.7933  -51.0590 H         1 UNK         0.3000 
    216 H216       -4.4275  -26.3539  -51.6018 H         1 UNK         0.0600 
    217 H217       -3.5456  -28.3808  -52.8192 H         1 UNK         0.0600 
    218 H218       -2.0744  -27.4923  -53.2121 H         1 UNK         0.0600 
    219 H219       -2.4833  -27.8323  -51.5387 H         1 UNK         0.0600 
    220 H220       -3.2204  -26.9832  -54.7993 H         1 UNK         0.3000 
    221 H221       -5.7153  -26.3335  -56.0784 H         1 UNK         0.0600 
    222 H222       -4.2827  -28.2207  -56.8214 H         1 UNK         0.0600 
    223 H223       -2.9810  -27.1034  -57.2339 H         1 UNK         0.0600 
    224 H224       -4.4950  -27.0691  -58.1300 H         1 UNK         0.0600 
    225 H225       -2.8201  -24.4625  -55.4324 H         1 UNK         0.3000 
    226 H226       -3.1796  -22.5414  -57.5975 H         1 UNK         0.0600 
    227 H227       -1.3529  -22.4550  -55.1451 H         1 UNK         0.0600 
    228 H228       -0.9268  -23.1422  -56.7106 H         1 UNK         0.0600 
    229 H229       -1.2513  -21.4225  -56.5627 H         1 UNK         0.0600 
    230 H230       -5.5398  -22.6012  -56.6163 H         1 UNK         0.3000 
    231 H231       -7.3107  -21.4756  -56.0167 H         1 UNK         0.0600 
    232 H232       -5.5177  -19.0129  -55.6968 H         1 UNK         0.0600 
    233 H233       -7.2717  -19.0070  -55.8019 H         1 UNK         0.0600 
    234 H234       -6.3167  -19.5330  -57.1787 H         1 UNK         0.0600 
    235 H235       -4.7125  -20.5869  -53.7477 H         1 UNK         0.3000 
    236 H236       -4.5588  -20.3448  -51.5294 H         1 UNK         0.0600 
    237 H237       -5.4824  -22.1316  -50.1480 H         1 UNK         0.0600 
    238 H238       -6.7477  -22.4787  -51.3187 H         1 UNK         0.0600 
    239 H239       -5.0675  -22.8351  -51.6999 H         1 UNK         0.0600 
    240 H240       -6.4467  -18.5808  -52.8759 H         1 UNK         0.3000 
    241 H241       -7.9163  -16.9873  -52.5839 H         1 UNK         0.0600 
    242 H242      -10.5754  -19.7906  -52.3650 H         1 UNK         0.3800 
    243 H243       -8.8748  -20.0154  -52.6850 H         1 UNK         0.3800 
    244 H244       -7.8514  -17.3789  -49.5582 H         1 UNK         0.0800 
    245 H245       -8.5111  -16.0089  -50.4015 H         1 UNK         0.0800 
    246 H246       -5.5279  -17.7124  -48.9853 H         1 UNK         0.0800 
    247 H247       -5.8896  -16.2558  -48.0916 H         1 UNK         0.0800 
@<TRIPOS>BOND
     1    1    2 1    
     2    1  127 1    
     3    1  128 1    
     4    1  129 1    
     5    2    3 2    
     6    2    4 am   BACKBONE|DICT|INTERRES
     7    4    5 1    
     8    4  130 1    
     9    5    6 1    
    10    5   65 1    
    11    5  131 1    
    12    6    7 1    
    13    6  132 1    
    14    6  133 1    
    15    7    8 1    
    16    8    9 1    
    17    8  134 1    
    18    8  135 1    
    19    9   10 ar   
    20    9   14 ar   
    21   10   11 ar   
    22   10  136 1    
    23   11   12 ar   
    24   11  126 1    
    25   12   13 ar   
    26   12  137 1    
    27   13   14 ar   
    28   13   15 1    
    29   14  138 1    
    30   15   16 1    
    31   15  139 1    
    32   15  140 1    
    33   16   17 1    
    34   17   18 1    
    35   17  141 1    
    36   17  142 1    
    37   18   19 1    
    38   18   67 1    
    39   18  143 1    
    40   19   20 am   BACKBONE|DICT|INTERRES
    41   19  144 1    
    42   20   21 2    
    43   20   22 1    
    44   22   23 1    
    45   22   24 1    
    46   22  145 1    
    47   23  146 1    
    48   23  147 1    
    49   23  148 1    
    50   24   25 am   BACKBONE|DICT|INTERRES
    51   24  149 1    
    52   25   26 2    
    53   25   27 1    
    54   27   28 1    
    55   27   29 1    
    56   27  150 1    
    57   28  151 1    
    58   28  152 1    
    59   28  153 1    
    60   29   30 am   BACKBONE|DICT|INTERRES
    61   29  154 1    
    62   30   31 2    
    63   30   32 1    
    64   32   33 1    
    65   32   34 1    
    66   32  155 1    
    67   33  156 1    
    68   33  157 1    
    69   33  158 1    
    70   34   35 am   BACKBONE|DICT|INTERRES
    71   34  159 1    
    72   35   36 2    
    73   35   37 1    
    74   37   38 1    
    75   37   39 1    
    76   37  160 1    
    77   38  161 1    
    78   38  162 1    
    79   38  163 1    
    80   39   40 am   BACKBONE|DICT|INTERRES
    81   39  164 1    
    82   40   41 2    
    83   40   42 1    
    84   42   43 1    
    85   42   44 1    
    86   42  165 1    
    87   43  166 1    
    88   43  167 1    
    89   43  168 1    
    90   44   45 am   BACKBONE|DICT|INTERRES
    91   44  169 1    
    92   45   46 2    
    93   45   47 1    
    94   47   48 1    
    95   47   49 1    
    96   47  170 1    
    97   48  171 1    
    98   48  172 1    
    99   48  173 1    
   100   49   50 am   BACKBONE|DICT|INTERRES
   101   49  174 1    
   102   50   51 2    
   103   50   52 1    
   104   52   53 1    
   105   52   54 1    
   106   52  175 1    
   107   53  176 1    
   108   53  177 1    
   109   53  178 1    
   110   54   55 am   BACKBONE|DICT|INTERRES
   111   54  179 1    
   112   55   56 2    
   113   55   57 1    
   114   57   58 1    
   115   57   59 1    
   116   57  180 1    
   117   58  181 1    
   118   58  182 1    
   119   58  183 1    
   120   59   60 am   BACKBONE|DICT|INTERRES
   121   59  184 1    
   122   60   61 2    
   123   60   62 1    
   124   62   63 1    
   125   62   64 1    
   126   62  185 1    
   127   63  186 1    
   128   63  187 1    
   129   63  188 1    
   130   64   65 am   BACKBONE|DICT|INTERRES
   131   64  189 1    
   132   65   66 2    
   133   67   68 2    
   134   67   69 am   BACKBONE|DICT|INTERRES
   135   69   70 1    
   136   69  190 1    
   137   70   71 1    
   138   70   72 1    
   139   70  191 1    
   140   71  192 1    
   141   71  193 1    
   142   71  194 1    
   143   72   73 2    
   144   72   74 am   BACKBONE|DICT|INTERRES
   145   74   75 1    
   146   74  195 1    
   147   75   76 1    
   148   75   77 1    
   149   75  196 1    
   150   76  197 1    
   151   76  198 1    
   152   76  199 1    
   153   77   78 2    
   154   77   79 am   BACKBONE|DICT|INTERRES
   155   79   80 1    
   156   79  200 1    
   157   80   81 1    
   158   80   82 1    
   159   80  201 1    
   160   81  202 1    
   161   81  203 1    
   162   81  204 1    
   163   82   83 2    
   164   82   84 am   BACKBONE|DICT|INTERRES
   165   84   85 1    
   166   84  205 1    
   167   85   86 1    
   168   85   87 1    
   169   85  206 1    
   170   86  207 1    
   171   86  208 1    
   172   86  209 1    
   173   87   88 2    
   174   87   89 am   BACKBONE|DICT|INTERRES
   175   89   90 1    
   176   89  210 1    
   177   90   91 1    
   178   90   92 1    
   179   90  211 1    
   180   91  212 1    
   181   91  213 1    
   182   91  214 1    
   183   92   93 2    
   184   92   94 am   BACKBONE|DICT|INTERRES
   185   94   95 1    
   186   94  215 1    
   187   95   96 1    
   188   95   97 1    
   189   95  216 1    
   190   96  217 1    
   191   96  218 1    
   192   96  219 1    
   193   97   98 2    
   194   97   99 am   BACKBONE|DICT|INTERRES
   195   99  100 1    
   196   99  220 1    
   197  100  101 1    
   198  100  102 1    
   199  100  221 1    
   200  101  222 1    
   201  101  223 1    
   202  101  224 1    
   203  102  103 2    
   204  102  104 am   BACKBONE|DICT|INTERRES
   205  104  105 1    
   206  104  225 1    
   207  105  106 1    
   208  105  107 1    
   209  105  226 1    
   210  106  227 1    
   211  106  228 1    
   212  106  229 1    
   213  107  108 2    
   214  107  109 am   BACKBONE|DICT|INTERRES
   215  109  110 1    
   216  109  230 1    
   217  110  111 1    
   218  110  112 1    
   219  110  231 1    
   220  111  232 1    
   221  111  233 1    
   222  111  234 1    
   223  112  113 2    
   224  112  114 am   BACKBONE|DICT|INTERRES
   225  114  115 1    
   226  114  235 1    
   227  115  116 1    
   228  115  117 1    
   229  115  236 1    
   230  116  237 1    
   231  116  238 1    
   232  116  239 1    
   233  117  118 2    
   234  117  119 am   BACKBONE|DICT|INTERRES
   235  119  120 1    
   236  119  240 1    
   237  120  121 1    
   238  120  124 1    
   239  120  241 1    
   240  121  122 am   BACKBONE|DICT|INTERRES
   241  121  123 2    
   242  122  242 1    
   243  122  243 1    
   244  124  125 1    
   245  124  244 1    
   246  124  245 1    
   247  125  126 1    
   248  126  246 1    
   249  126  247 1    
@<TRIPOS>SUBSTRUCTURE
     1 UNK         1 GROUP             0       ****    0 ROOT    
