@<TRIPOS>MOLECULE
3R540
247   249    1
SMALL
USER_CHARGES


@<TRIPOS>ATOM
      1 CA         -6.0026  -14.4814  -48.4125 C.3       0 UNK        -0.1800 
      2 C          -4.7683  -13.7861  -48.9662 C.2       0 UNK         0.5000 
      3 O          -4.8497  -12.6361  -49.3963 O.2       0 UNK        -0.5000 
      4 N          -3.6250  -14.4854  -48.9536 N.am      1 UNK        -0.5000 
      5 CA         -2.3373  -14.0205  -49.4924 C.3       1 UNK         0.1400 
      6 C6         -1.2997  -15.1663  -49.5813 C.3       23 UNK        -0.0398 
      7 S7         -1.8237  -16.5448  -50.6594 S.3       23 UNK        -0.2404 
      8 C8         -1.9943  -17.9267  -49.4847 C.3       23 UNK        -0.0205 
      9 C9         -3.4449  -18.1575  -49.1014 C.ar      23 UNK        -0.0193 
     10 C10        -4.2927  -18.8250  -49.9877 C.ar      23 UNK        -0.1150 
     11 C11        -5.6415  -19.0240  -49.6775 C.ar      23 UNK        -0.0193 
     12 C12        -6.1261  -18.5820  -48.4444 C.ar      23 UNK        -0.1150 
     13 C13        -5.2797  -17.9467  -47.5313 C.ar      23 UNK        -0.0193 
     14 C14        -3.9404  -17.7244  -47.8688 C.ar      23 UNK        -0.1150 
     15 C15        -5.8203  -17.5165  -46.1769 C.3       23 UNK        -0.0205 
     16 S16        -5.9755  -18.9339  -45.0423 S.3       23 UNK        -0.2404 
     17 C17        -4.2247  -19.3590  -44.7653 C.3       23 UNK        -0.0398 
     18 CA         -3.7427  -20.5628  -45.6185 C.3       11 UNK         0.1400 
     19 N          -2.3060  -20.4879  -45.9036 N.am      11 UNK        -0.5000 
     20 C          -1.6271  -21.3060  -46.7185 C.2       10 UNK         0.5000 
     21 O          -2.1574  -22.1922  -47.3824 O.2       10 UNK        -0.5000 
     22 CA         -0.0931  -21.1567  -46.7584 C.3       10 UNK         0.1400 
     23 CB          0.3469  -20.1218  -47.8002 C.3       10 UNK        -0.1800 
     24 N           0.4843  -20.8228  -45.4572 N.am      10 UNK        -0.5000 
     25 C           0.4584  -21.6388  -44.3944 C.2       9 UNK         0.5000 
     26 O          -0.0135  -22.7758  -44.4198 O.2       9 UNK        -0.5000 
     27 CA          0.9990  -21.0698  -43.0705 C.3       9 UNK         0.1400 
     28 CB          2.5337  -21.1172  -43.0390 C.3       9 UNK        -0.1800 
     29 N           0.5435  -19.7007  -42.8261 N.am      9 UNK        -0.5000 
     30 C          -0.7383  -19.3471  -42.6528 C.2       8 UNK         0.5000 
     31 O          -1.6713  -20.1510  -42.6209 O.2       8 UNK        -0.5000 
     32 CA         -1.0327  -17.8375  -42.5607 C.3       8 UNK         0.1400 
     33 CB         -0.7308  -17.3031  -41.1536 C.3       8 UNK        -0.1800 
     34 N          -0.2967  -17.0570  -43.5592 N.am      8 UNK        -0.5000 
     35 C          -0.4518  -17.1965  -44.8831 C.2       7 UNK         0.5000 
     36 O          -1.2544  -17.9669  -45.3993 O.2       7 UNK        -0.5000 
     37 CA          0.4561  -16.3690  -45.7991 C.3       7 UNK         0.1400 
     38 CB         -0.1282  -14.9710  -46.0025 C.3       7 UNK        -0.1800 
     39 N           1.8300  -16.2900  -45.3101 N.am      7 UNK        -0.5000 
     40 C           2.6524  -17.3463  -45.2367 C.2       6 UNK         0.5000 
     41 O           2.3579  -18.4740  -45.6350 O.2       6 UNK        -0.5000 
     42 CA          4.0027  -17.1156  -44.5389 C.3       6 UNK         0.1400 
     43 CB          5.0078  -16.4404  -45.4839 C.3       6 UNK        -0.1800 
     44 N           3.8507  -16.3199  -43.3201 N.am      6 UNK        -0.5000 
     45 C           3.2099  -16.7479  -42.2225 C.2       5 UNK         0.5000 
     46 O           2.7247  -17.8738  -42.1118 O.2       5 UNK        -0.5000 
     47 CA          3.0527  -15.7460  -41.0646 C.3       5 UNK         0.1400 
     48 CB          4.2305  -15.8676  -40.0866 C.3       5 UNK        -0.1800 
     49 N           2.9318  -14.3543  -41.5011 N.am      5 UNK        -0.5000 
     50 C           1.9313  -13.8547  -42.2403 C.2       4 UNK         0.5000 
     51 O           0.9923  -14.5363  -42.6573 O.2       4 UNK        -0.5000 
     52 CA          1.9792  -12.3411  -42.5552 C.3       4 UNK         0.1400 
     53 CB          3.2985  -11.6555  -42.1328 C.3       4 UNK        -0.1800 
     54 N           1.6941  -12.0143  -43.9558 N.am      4 UNK        -0.5000 
     55 C           2.2728  -12.5126  -45.0554 C.2       3 UNK         0.5000 
     56 O           3.0559  -13.4651  -45.0411 O.2       3 UNK        -0.5000 
     57 CA          1.9165  -11.8161  -46.3922 C.3       3 UNK         0.1400 
     58 CB          2.6975  -12.4035  -47.5822 C.3       3 UNK        -0.1800 
     59 N           0.4884  -11.8400  -46.7243 N.am      3 UNK        -0.5000 
     60 C          -0.5043  -11.1872  -46.1105 C.2       2 UNK         0.5000 
     61 O          -0.3230  -10.4456  -45.1434 O.2       2 UNK        -0.5000 
     62 CA         -1.9455  -11.3912  -46.6310 C.3       2 UNK         0.1400 
     63 CB         -2.4678  -10.1068  -47.3036 C.3       2 UNK        -0.1800 
     64 N          -2.1901  -12.5607  -47.4948 N.am      2 UNK        -0.5000 
     65 C          -1.7382  -12.8077  -48.7353 C.2       1 UNK         0.5000 
     66 O          -0.8732  -12.1293  -49.2884 O.2       1 UNK        -0.5000 
     67 C          -4.1239  -21.9026  -44.9554 C.2       11 UNK         0.5000 
     68 O          -5.1135  -22.5206  -45.3494 O.2       11 UNK        -0.5000 
     69 N          -3.3116  -22.3366  -43.9800 N.am      12 UNK        -0.5000 
     70 CA         -3.4621  -23.6131  -43.2822 C.3       12 UNK         0.1400 
     71 CB         -2.5534  -23.6286  -42.0434 C.3       12 UNK        -0.1800 
     72 C          -3.1814  -24.8257  -44.1904 C.2       12 UNK         0.5000 
     73 O          -3.9093  -25.8166  -44.1178 O.2       12 UNK        -0.5000 
     74 N          -2.1442  -24.7235  -45.0332 N.am      13 UNK        -0.5000 
     75 CA         -1.7720  -25.7402  -46.0200 C.3       13 UNK         0.1400 
     76 CB         -0.3577  -25.4403  -46.5382 C.3       13 UNK        -0.1800 
     77 C          -2.7711  -25.8482  -47.1895 C.2       13 UNK         0.5000 
     78 O          -2.9705  -26.9440  -47.7160 O.2       13 UNK        -0.5000 
     79 N          -3.3765  -24.7154  -47.5719 N.am      14 UNK        -0.5000 
     80 CA         -4.3212  -24.5354  -48.6738 C.3       14 UNK         0.1400 
     81 CB         -5.6614  -25.2392  -48.3652 C.3       14 UNK        -0.1800 
     82 C          -3.6772  -24.9362  -50.0153 C.2       14 UNK         0.5000 
     83 O          -2.6566  -24.3559  -50.3856 O.2       14 UNK        -0.5000 
     84 N          -4.2415  -25.9357  -50.7065 N.am      15 UNK        -0.5000 
     85 CA         -3.7426  -26.4631  -51.9803 C.3       15 UNK         0.1400 
     86 CB         -4.7088  -27.5433  -52.4887 C.3       15 UNK        -0.1800 
     87 C          -2.3033  -27.0147  -51.9146 C.2       15 UNK         0.5000 
     88 O          -1.5896  -26.9576  -52.9169 O.2       15 UNK        -0.5000 
     89 N          -1.8826  -27.4941  -50.7340 N.am      16 UNK        -0.5000 
     90 CA         -0.5297  -27.9925  -50.4768 C.3       16 UNK         0.1400 
     91 CB         -0.5251  -28.8157  -49.1794 C.3       16 UNK        -0.1800 
     92 C           0.5451  -26.8858  -50.4348 C.2       16 UNK         0.5000 
     93 O           1.7317  -27.2104  -50.4920 O.2       16 UNK        -0.5000 
     94 N           0.1361  -25.6084  -50.3588 N.am      17 UNK        -0.5000 
     95 CA          1.0357  -24.4551  -50.4496 C.3       17 UNK         0.1400 
     96 CB          0.3016  -23.1952  -49.9665 C.3       17 UNK        -0.1800 
     97 C           1.5675  -24.2208  -51.8767 C.2       17 UNK         0.5000 
     98 O           2.5920  -23.5545  -52.0307 O.2       17 UNK        -0.5000 
     99 N           0.8488  -24.7386  -52.8867 N.am      18 UNK        -0.5000 
    100 CA         1.0520  -24.6059  -54.3351 C.3       18 UNK         0.1400 
    101 CB         2.4139  -25.1741  -54.7775 C.3       18 UNK        -0.1800 
    102 C          0.8360  -23.1715  -54.8550 C.2       18 UNK         0.5000 
    103 O          0.0007  -22.9617  -55.7346 O.2       18 UNK        -0.5000 
    104 N          1.5438  -22.1997  -54.2695 N.am      19 UNK        -0.5000 
    105 CA         1.4452  -20.7644  -54.5396 C.3       19 UNK         0.1400 
    106 CB         2.8082  -20.1161  -54.2382 C.3       19 UNK        -0.1800 
    107 C          0.2890  -20.1066  -53.7534 C.2       19 UNK         0.5000 
    108 O          0.4570  -19.0265  -53.1844 O.2       19 UNK        -0.5000 
    109 N         -0.8687  -20.7763  -53.7204 N.am      20 UNK        -0.5000 
    110 CA        -2.0925  -20.3199  -53.0720 C.3       20 UNK         0.1400 
    111 CB        -2.9627  -21.5448  -52.7398 C.3       20 UNK        -0.1800 
    112 C         -2.8179  -19.3082  -53.9765 C.2       20 UNK         0.5000 
    113 O         -3.6765  -19.6966  -54.7703 O.2       20 UNK        -0.5000 
    114 N         -2.4204  -18.0334  -53.8764 N.am      21 UNK        -0.5000 
    115 CA        -3.0179  -16.9218  -54.6199 C.3       21 UNK         0.1400 
    116 CB        -2.0880  -15.7010  -54.5430 C.3       21 UNK        -0.1800 
    117 C         -4.4274  -16.5666  -54.1106 C.2       21 UNK         0.5000 
    118 O         -5.3062  -16.2581  -54.9159 O.2       21 UNK        -0.5000 
    119 N         -4.6065  -16.6322  -52.7844 N.am      22 UNK        -0.5000 
    120 CA        -5.8706  -16.4280  -52.0524 C.3       22 UNK         0.1400 
    121 C         -6.4401  -14.9768  -52.0990 C.2       22 UNK         0.5000 
    122 N         -5.6783  -13.9784  -52.5279 N.am      22 UNK        -0.7600 
    123 O         -7.5804  -14.7424  -51.7085 O.2       22 UNK        -0.5000 
    124 C124       -6.9610  -17.4943  -52.3737 C.3       23 UNK        -0.0398 
    125 S125       -6.3638  -19.2227  -52.3866 S.3       23 UNK        -0.2404 
    126 C126       -6.5777  -19.7361  -50.6490 C.3       23 UNK        -0.0205 
    127 H127       -5.9731  -14.4996  -47.3232 H         1 UNK         0.0600 
    128 H128       -6.0680  -15.5054  -48.7780 H         1 UNK         0.0600 
    129 H129       -6.9084  -13.9598  -48.7227 H         1 UNK         0.0600 
    130 H130       -3.6382  -15.4389  -48.6214 H         1 UNK         0.3000 
    131 H131       -2.5296  -13.6738  -50.5102 H         1 UNK         0.0600 
    132 H132       -1.0637  -15.5440  -48.5885 H         1 UNK         0.0800 
    133 H133       -0.3582  -14.7925  -49.9884 H         1 UNK         0.0800 
    134 H134       -1.3866  -17.7570  -48.5970 H         1 UNK         0.0800 
    135 H135       -1.5992  -18.8299  -49.9498 H         1 UNK         0.0800 
    136 H136       -3.9048  -19.1721  -50.9331 H         1 UNK         0.1150 
    137 H137       -7.1614  -18.7487  -48.1816 H         1 UNK         0.1150 
    138 H138       -3.2807  -17.2359  -47.1652 H         1 UNK         0.1150 
    139 H139       -5.1857  -16.7505  -45.7285 H         1 UNK         0.0800 
    140 H140       -6.8022  -17.0593  -46.3078 H         1 UNK         0.0800 
    141 H141       -4.0700  -19.5332  -43.6993 H         1 UNK         0.0800 
    142 H142       -3.6403  -18.4706  -44.9926 H         1 UNK         0.0800 
    143 H143       -4.2430  -20.5246  -46.5886 H         1 UNK         0.0600 
    144 H144       -1.8022  -19.7188  -45.4694 H         1 UNK         0.3000 
    145 H145        0.3193  -22.1211  -47.0579 H         1 UNK         0.0600 
    146 H146        1.4286  -20.1369  -47.9345 H         1 UNK         0.0600 
    147 H147        0.0661  -19.1144  -47.5009 H         1 UNK         0.0600 
    148 H148       -0.1051  -20.3246  -48.7714 H         1 UNK         0.0600 
    149 H149        0.9279  -19.9140  -45.3720 H         1 UNK         0.3000 
    150 H150        0.6219  -21.6978  -42.2607 H         1 UNK         0.0600 
    151 H151        2.8972  -22.1314  -43.2084 H         1 UNK         0.0600 
    152 H152        2.9170  -20.7907  -42.0720 H         1 UNK         0.0600 
    153 H153        2.9733  -20.4769  -43.8044 H         1 UNK         0.0600 
    154 H154        1.2603  -18.9814  -42.7940 H         1 UNK         0.3000 
    155 H155       -2.0980  -17.6952  -42.7538 H         1 UNK         0.0600 
    156 H156       -1.3489  -17.8047  -40.4081 H         1 UNK         0.0600 
    157 H157       -0.9358  -16.2346  -41.0826 H         1 UNK         0.0600 
    158 H158        0.3097  -17.4655  -40.8755 H         1 UNK         0.0600 
    159 H159        0.3438  -16.3479  -43.2162 H         1 UNK         0.3000 
    160 H160        0.4759  -16.8626  -46.7726 H         1 UNK         0.0600 
    161 H161       -0.0521  -14.3606  -45.1033 H         1 UNK         0.0600 
    162 H162       -1.1842  -15.0203  -46.2698 H         1 UNK         0.0600 
    163 H163        0.3922  -14.4663  -46.8129 H         1 UNK         0.0600 
    164 H164        2.1497  -15.3941  -44.9587 H         1 UNK         0.3000 
    165 H165        4.4043  -18.0920  -44.2592 H         1 UNK         0.0600 
    166 H166        5.9815  -16.3270  -45.0073 H         1 UNK         0.0600 
    167 H167        5.1544  -17.0371  -46.3850 H         1 UNK         0.0600 
    168 H168        4.6711  -15.4521  -45.7977 H         1 UNK         0.0600 
    169 H169        4.1794  -15.3653  -43.3518 H         1 UNK         0.3000 
    170 H170        2.1387  -16.0033  -40.5268 H         1 UNK         0.0600 
    171 H171        5.1751  -15.5916  -40.5569 H         1 UNK         0.0600 
    172 H172        4.0884  -15.2277  -39.2155 H         1 UNK         0.0600 
    173 H173        4.3316  -16.8911  -39.7228 H         1 UNK         0.0600 
    174 H174        3.6645  -13.7263  -41.2046 H         1 UNK         0.3000 
    175 H175        1.1738  -11.8930  -41.9719 H         1 UNK         0.0600 
    176 H176        4.1598  -12.0747  -42.6550 H         1 UNK         0.0600 
    177 H177        3.2694  -10.5885  -42.3544 H         1 UNK         0.0600 
    178 H178        3.4739  -11.7472  -41.0602 H         1 UNK         0.0600 
    179 H179        0.9946  -11.2916  -44.1060 H         1 UNK         0.3000 
    180 H180        2.2152  -10.7711  -46.2886 H         1 UNK         0.0600 
    181 H181        2.4892  -11.8546  -48.5008 H         1 UNK         0.0600 
    182 H182        2.4458  -13.4508  -47.7533 H         1 UNK         0.0600 
    183 H183        3.7733  -12.3486  -47.4107 H         1 UNK         0.0600 
    184 H184        0.2354  -12.3495  -47.5609 H         1 UNK         0.3000 
    185 H185       -2.5551  -11.5603  -45.7422 H         1 UNK         0.0600 
    186 H186       -3.5107  -10.2149  -47.6025 H         1 UNK         0.0600 
    187 H187       -2.4123   -9.2569  -46.6222 H         1 UNK         0.0600 
    188 H188       -1.8896   -9.8496  -48.1915 H         1 UNK         0.0600 
    189 H189       -2.8789  -13.2065  -47.1364 H         1 UNK         0.3000 
    190 H190       -2.5366  -21.7477  -43.6942 H         1 UNK         0.3000 
    191 H191       -4.4967  -23.6876  -42.9408 H         1 UNK         0.0600 
    192 H192       -2.7917  -22.8050  -41.3700 H         1 UNK         0.0600 
    193 H193       -1.5002  -23.5447  -42.3120 H         1 UNK         0.0600 
    194 H194       -2.6759  -24.5553  -41.4817 H         1 UNK         0.0600 
    195 H195       -1.5524  -23.9000  -44.9785 H         1 UNK         0.3000 
    196 H196       -1.7493  -26.7100  -45.5187 H         1 UNK         0.0600 
    197 H197        0.3727  -25.4765  -45.7299 H         1 UNK         0.0600 
    198 H198       -0.3023  -24.4514  -46.9899 H         1 UNK         0.0600 
    199 H199       -0.0466  -26.1640  -47.2913 H         1 UNK         0.0600 
    200 H200       -3.0445  -23.8456  -47.1642 H         1 UNK         0.3000 
    201 H201       -4.5154  -23.4637  -48.7371 H         1 UNK         0.0600 
    202 H202       -6.0805  -24.8714  -47.4282 H         1 UNK         0.0600 
    203 H203       -5.5526  -26.3201  -48.2723 H         1 UNK         0.0600 
    204 H204       -6.3991  -25.0410  -49.1437 H         1 UNK         0.0600 
    205 H205       -5.0611  -26.3823  -50.3220 H         1 UNK         0.3000 
    206 H206       -3.7410  -25.6399  -52.6977 H         1 UNK         0.0600 
    207 H207       -4.7769  -28.3810  -51.7935 H         1 UNK         0.0600 
    208 H208       -5.7120  -27.1410  -52.6307 H         1 UNK         0.0600 
    209 H209       -4.3805  -27.9403  -53.4503 H         1 UNK         0.0600 
    210 H210       -2.5121  -27.4642  -49.9412 H         1 UNK         0.3000 
    211 H211       -0.2612  -28.6641  -51.2951 H         1 UNK         0.0600 
    212 H212       -0.7459  -28.2018  -48.3078 H         1 UNK         0.0600 
    213 H213        0.4498  -29.2759  -49.0135 H         1 UNK         0.0600 
    214 H214       -1.2600  -29.6198  -49.2185 H         1 UNK         0.0600 
    215 H215       -0.8566  -25.4017  -50.3198 H         1 UNK         0.3000 
    216 H216        1.8890  -24.6299  -49.7911 H         1 UNK         0.0600 
    217 H217        0.9992  -22.3678  -49.8339 H         1 UNK         0.0600 
    218 H218       -0.1973  -23.3636  -49.0146 H         1 UNK         0.0600 
    219 H219       -0.4562  -22.8694  -50.6798 H         1 UNK         0.0600 
    220 H220        0.0235  -25.2660  -52.6317 H         1 UNK         0.3000 
    221 H221        0.2797  -25.2254  -54.7942 H         1 UNK         0.0600 
    222 H222        3.2507  -24.5992  -54.3804 H         1 UNK         0.0600 
    223 H223        2.5327  -26.2072  -54.4506 H         1 UNK         0.0600 
    224 H224        2.5019  -25.1648  -55.8645 H         1 UNK         0.0600 
    225 H225        2.1484  -22.4759  -53.4996 H         1 UNK         0.3000 
    226 H226        1.2339  -20.6164  -55.6005 H         1 UNK         0.0600 
    227 H227        3.6025  -20.5788  -54.8242 H         1 UNK         0.0600 
    228 H228        2.8026  -19.0537  -54.4852 H         1 UNK         0.0600 
    229 H229        3.0717  -20.2093  -53.1838 H         1 UNK         0.0600 
    230 H230       -0.9352  -21.6256  -54.2667 H         1 UNK         0.3000 
    231 H231       -1.8402  -19.8259  -52.1321 H         1 UNK         0.0600 
    232 H232       -3.9015  -21.2451  -52.2730 H         1 UNK         0.0600 
    233 H233       -2.4529  -22.2091  -52.0426 H         1 UNK         0.0600 
    234 H234       -3.2092  -22.1233  -53.6308 H         1 UNK         0.0600 
    235 H235       -1.6562  -17.8097  -53.2518 H         1 UNK         0.3000 
    236 H236       -3.1050  -17.2163  -55.6680 H         1 UNK         0.0600 
    237 H237       -1.9498  -15.3594  -53.5167 H         1 UNK         0.0600 
    238 H238       -1.1047  -15.9290  -54.9548 H         1 UNK         0.0600 
    239 H239       -2.4937  -14.8657  -55.1152 H         1 UNK         0.0600 
    240 H240       -3.8099  -16.8733  -52.2120 H         1 UNK         0.3000 
    241 H241       -5.6017  -16.5580  -51.0054 H         1 UNK         0.0600 
    242 H242       -4.7413  -14.1511  -52.8516 H         1 UNK         0.3800 
    243 H243       -6.0478  -13.0410  -52.5330 H         1 UNK         0.3800 
    244 H244       -7.3939  -17.2944  -53.3549 H         1 UNK         0.0800 
    245 H245       -7.7857  -17.4199  -51.6630 H         1 UNK         0.0800 
    246 H246       -7.6202  -19.5860  -50.3642 H         1 UNK         0.0800 
    247 H247       -6.3903  -20.8081  -50.5793 H         1 UNK         0.0800 
@<TRIPOS>BOND
     1    1    2 1    
     2    1  127 1    
     3    1  128 1    
     4    1  129 1    
     5    2    3 2    
     6    2    4 am   BACKBONE|DICT|INTERRES
     7    4    5 1    
     8    4  130 1    
     9    5    6 1    
    10    5   65 1    
    11    5  131 1    
    12    6    7 1    
    13    6  132 1    
    14    6  133 1    
    15    7    8 1    
    16    8    9 1    
    17    8  134 1    
    18    8  135 1    
    19    9   10 ar   
    20    9   14 ar   
    21   10   11 ar   
    22   10  136 1    
    23   11   12 ar   
    24   11  126 1    
    25   12   13 ar   
    26   12  137 1    
    27   13   14 ar   
    28   13   15 1    
    29   14  138 1    
    30   15   16 1    
    31   15  139 1    
    32   15  140 1    
    33   16   17 1    
    34   17   18 1    
    35   17  141 1    
    36   17  142 1    
    37   18   19 1    
    38   18   67 1    
    39   18  143 1    
    40   19   20 am   BACKBONE|DICT|INTERRES
    41   19  144 1    
    42   20   21 2    
    43   20   22 1    
    44   22   23 1    
    45   22   24 1    
    46   22  145 1    
    47   23  146 1    
    48   23  147 1    
    49   23  148 1    
    50   24   25 am   BACKBONE|DICT|INTERRES
    51   24  149 1    
    52   25   26 2    
    53   25   27 1    
    54   27   28 1    
    55   27   29 1    
    56   27  150 1    
    57   28  151 1    
    58   28  152 1    
    59   28  153 1    
    60   29   30 am   BACKBONE|DICT|INTERRES
    61   29  154 1    
    62   30   31 2    
    63   30   32 1    
    64   32   33 1    
    65   32   34 1    
    66   32  155 1    
    67   33  156 1    
    68   33  157 1    
    69   33  158 1    
    70   34   35 am   BACKBONE|DICT|INTERRES
    71   34  159 1    
    72   35   36 2    
    73   35   37 1    
    74   37   38 1    
    75   37   39 1    
    76   37  160 1    
    77   38  161 1    
    78   38  162 1    
    79   38  163 1    
    80   39   40 am   BACKBONE|DICT|INTERRES
    81   39  164 1    
    82   40   41 2    
    83   40   42 1    
    84   42   43 1    
    85   42   44 1    
    86   42  165 1    
    87   43  166 1    
    88   43  167 1    
    89   43  168 1    
    90   44   45 am   BACKBONE|DICT|INTERRES
    91   44  169 1    
    92   45   46 2    
    93   45   47 1    
    94   47   48 1    
    95   47   49 1    
    96   47  170 1    
    97   48  171 1    
    98   48  172 1    
    99   48  173 1    
   100   49   50 am   BACKBONE|DICT|INTERRES
   101   49  174 1    
   102   50   51 2    
   103   50   52 1    
   104   52   53 1    
   105   52   54 1    
   106   52  175 1    
   107   53  176 1    
   108   53  177 1    
   109   53  178 1    
   110   54   55 am   BACKBONE|DICT|INTERRES
   111   54  179 1    
   112   55   56 2    
   113   55   57 1    
   114   57   58 1    
   115   57   59 1    
   116   57  180 1    
   117   58  181 1    
   118   58  182 1    
   119   58  183 1    
   120   59   60 am   BACKBONE|DICT|INTERRES
   121   59  184 1    
   122   60   61 2    
   123   60   62 1    
   124   62   63 1    
   125   62   64 1    
   126   62  185 1    
   127   63  186 1    
   128   63  187 1    
   129   63  188 1    
   130   64   65 am   BACKBONE|DICT|INTERRES
   131   64  189 1    
   132   65   66 2    
   133   67   68 2    
   134   67   69 am   BACKBONE|DICT|INTERRES
   135   69   70 1    
   136   69  190 1    
   137   70   71 1    
   138   70   72 1    
   139   70  191 1    
   140   71  192 1    
   141   71  193 1    
   142   71  194 1    
   143   72   73 2    
   144   72   74 am   BACKBONE|DICT|INTERRES
   145   74   75 1    
   146   74  195 1    
   147   75   76 1    
   148   75   77 1    
   149   75  196 1    
   150   76  197 1    
   151   76  198 1    
   152   76  199 1    
   153   77   78 2    
   154   77   79 am   BACKBONE|DICT|INTERRES
   155   79   80 1    
   156   79  200 1    
   157   80   81 1    
   158   80   82 1    
   159   80  201 1    
   160   81  202 1    
   161   81  203 1    
   162   81  204 1    
   163   82   83 2    
   164   82   84 am   BACKBONE|DICT|INTERRES
   165   84   85 1    
   166   84  205 1    
   167   85   86 1    
   168   85   87 1    
   169   85  206 1    
   170   86  207 1    
   171   86  208 1    
   172   86  209 1    
   173   87   88 2    
   174   87   89 am   BACKBONE|DICT|INTERRES
   175   89   90 1    
   176   89  210 1    
   177   90   91 1    
   178   90   92 1    
   179   90  211 1    
   180   91  212 1    
   181   91  213 1    
   182   91  214 1    
   183   92   93 2    
   184   92   94 am   BACKBONE|DICT|INTERRES
   185   94   95 1    
   186   94  215 1    
   187   95   96 1    
   188   95   97 1    
   189   95  216 1    
   190   96  217 1    
   191   96  218 1    
   192   96  219 1    
   193   97   98 2    
   194   97   99 am   BACKBONE|DICT|INTERRES
   195   99  100 1    
   196   99  220 1    
   197  100  101 1    
   198  100  102 1    
   199  100  221 1    
   200  101  222 1    
   201  101  223 1    
   202  101  224 1    
   203  102  103 2    
   204  102  104 am   BACKBONE|DICT|INTERRES
   205  104  105 1    
   206  104  225 1    
   207  105  106 1    
   208  105  107 1    
   209  105  226 1    
   210  106  227 1    
   211  106  228 1    
   212  106  229 1    
   213  107  108 2    
   214  107  109 am   BACKBONE|DICT|INTERRES
   215  109  110 1    
   216  109  230 1    
   217  110  111 1    
   218  110  112 1    
   219  110  231 1    
   220  111  232 1    
   221  111  233 1    
   222  111  234 1    
   223  112  113 2    
   224  112  114 am   BACKBONE|DICT|INTERRES
   225  114  115 1    
   226  114  235 1    
   227  115  116 1    
   228  115  117 1    
   229  115  236 1    
   230  116  237 1    
   231  116  238 1    
   232  116  239 1    
   233  117  118 2    
   234  117  119 am   BACKBONE|DICT|INTERRES
   235  119  120 1    
   236  119  240 1    
   237  120  121 1    
   238  120  124 1    
   239  120  241 1    
   240  121  122 am   BACKBONE|DICT|INTERRES
   241  121  123 2    
   242  122  242 1    
   243  122  243 1    
   244  124  125 1    
   245  124  244 1    
   246  124  245 1    
   247  125  126 1    
   248  126  246 1    
   249  126  247 1    
@<TRIPOS>SUBSTRUCTURE
     1 UNK         1 GROUP             0       ****    0 ROOT    
