@<TRIPOS>MOLECULE
3R540
247   249    1
SMALL
USER_CHARGES


@<TRIPOS>ATOM
      1 CA          3.0228   -9.1356  -50.5441 C.3       0 UNK        -0.1800 
      2 C           2.7479  -10.0470  -49.3559 C.2       0 UNK         0.5000 
      3 O           1.7403   -9.8672  -48.6731 O.2       0 UNK        -0.5000 
      4 N           3.6379  -11.0212  -49.1206 N.am      1 UNK        -0.5000 
      5 CA          3.6111  -11.9895  -48.0197 C.3       1 UNK         0.1400 
      6 C6          2.3619  -12.9151  -48.0443 C.3       23 UNK        -0.0398 
      7 S7          2.6240  -14.4942  -47.1611 S.3       23 UNK        -0.2404 
      8 C8          3.6705  -15.4319  -48.3320 C.3       23 UNK        -0.0205 
      9 C9          2.9153  -16.4608  -49.1689 C.ar      23 UNK        -0.0193 
     10 C10         1.9277  -16.0589  -50.0735 C.ar      23 UNK        -0.1150 
     11 C11         1.2973  -16.9897  -50.9036 C.ar      23 UNK        -0.0193 
     12 C12         1.6681  -18.3357  -50.8349 C.ar      23 UNK        -0.1150 
     13 C13         2.6615  -18.7542  -49.9461 C.ar      23 UNK        -0.0193 
     14 C14         3.2706  -17.8142  -49.1066 C.ar      23 UNK        -0.1150 
     15 C15         3.1341  -20.2030  -49.9550 C.3       23 UNK        -0.0205 
     16 S16         2.5328  -21.1639  -48.5328 S.3       23 UNK        -0.2404 
     17 C17         0.7803  -21.4286  -48.9630 C.3       23 UNK        -0.0398 
     18 CA          0.1041  -22.4536  -48.0176 C.3       11 UNK         0.1400 
     19 N           0.0049  -21.9765  -46.6341 N.am      11 UNK        -0.5000 
     20 C          -0.3982  -22.7139  -45.5897 C.2       10 UNK         0.5000 
     21 O          -0.6782  -23.9095  -45.6666 O.2       10 UNK        -0.5000 
     22 CA         -0.5754  -21.9876  -44.2429 C.3       10 UNK         0.1400 
     23 CB          0.7661  -21.8287  -43.5122 C.3       10 UNK        -0.1800 
     24 N          -1.2262  -20.6852  -44.3946 N.am      10 UNK        -0.5000 
     25 C          -2.4921  -20.5253  -44.8077 C.2       9 UNK         0.5000 
     26 O          -3.2560  -21.4635  -45.0347 O.2       9 UNK        -0.5000 
     27 CA         -2.9771  -19.0837  -45.0492 C.3       9 UNK         0.1400 
     28 CB         -3.4372  -18.4331  -43.7365 C.3       9 UNK        -0.1800 
     29 N          -1.9629  -18.2419  -45.6822 N.am      9 UNK        -0.5000 
     30 C          -1.4539  -18.4482  -46.9053 C.2       8 UNK         0.5000 
     31 O          -1.8270  -19.3464  -47.6584 O.2       8 UNK        -0.5000 
     32 CA         -0.2869  -17.5365  -47.3253 C.3       8 UNK         0.1400 
     33 CB         -0.8107  -16.1687  -47.7873 C.3       8 UNK        -0.1800 
     34 N           0.6998  -17.3623  -46.2543 N.am      8 UNK        -0.5000 
     35 C           1.4036  -18.3639  -45.7052 C.2       7 UNK         0.5000 
     36 O           1.3039  -19.5345  -46.0569 O.2       7 UNK        -0.5000 
     37 CA          2.3148  -18.0256  -44.5130 C.3       7 UNK         0.1400 
     38 CB          3.6921  -17.5310  -44.9757 C.3       7 UNK        -0.1800 
     39 N           1.7007  -17.0468  -43.6186 N.am      7 UNK        -0.5000 
     40 C           0.6398  -17.3093  -42.8414 C.2       6 UNK         0.5000 
     41 O           0.1185  -18.4207  -42.7450 O.2       6 UNK        -0.5000 
     42 CA          0.0274  -16.1084  -42.0988 C.3       6 UNK         0.1400 
     43 CB          0.7928  -15.8228  -40.7991 C.3       6 UNK        -0.1800 
     44 N          -0.0018  -14.9041  -42.9346 N.am      6 UNK        -0.5000 
     45 C          -0.7559  -14.7811  -44.0379 C.2       5 UNK         0.5000 
     46 O          -1.5140  -15.6705  -44.4235 O.2       5 UNK        -0.5000 
     47 CA         -0.6129  -13.5022  -44.8918 C.3       5 UNK         0.1400 
     48 CB         -1.9801  -12.9394  -45.3301 C.3       5 UNK        -0.1800 
     49 N           0.2285  -12.4569  -44.3005 N.am      5 UNK        -0.5000 
     50 C          -0.0091  -11.7295  -43.1987 C.2       4 UNK         0.5000 
     51 O          -1.0174  -11.8363  -42.4996 O.2       4 UNK        -0.5000 
     52 CA          1.1116  -10.7458  -42.8154 C.3       4 UNK         0.1400 
     53 CB          0.9465  -10.1358  -41.4074 C.3       4 UNK        -0.1800 
     54 N           2.4359  -11.3518  -42.9909 N.am      4 UNK        -0.5000 
     55 C           2.9728  -12.3752  -42.3072 C.2       3 UNK         0.5000 
     56 O           2.3964  -12.9466  -41.3826 O.2       3 UNK        -0.5000 
     57 CA          4.3647  -12.8882  -42.7501 C.3       3 UNK         0.1400 
     58 CB          4.2923  -14.3778  -43.1269 C.3       3 UNK        -0.1800 
     59 N           4.9282  -12.1616  -43.8898 N.am      3 UNK        -0.5000 
     60 C           5.3822  -10.9016  -43.8798 C.2       2 UNK         0.5000 
     61 O           5.5317  -10.2428  -42.8506 O.2       2 UNK        -0.5000 
     62 CA          5.6652  -10.2452  -45.2494 C.3       2 UNK         0.1400 
     63 CB          7.1756  -10.0358  -45.4415 C.3       2 UNK        -0.1800 
     64 N           5.1389  -10.9627  -46.4203 N.am      2 UNK        -0.5000 
     65 C           3.8594  -11.2857  -46.6684 C.2       1 UNK         0.5000 
     66 O           2.9283  -11.0504  -45.8945 O.2       1 UNK        -0.5000 
     67 C          -1.2676  -22.8982  -48.5642 C.2       11 UNK         0.5000 
     68 O          -1.3556  -23.9752  -49.1534 O.2       11 UNK        -0.5000 
     69 N          -2.3160  -22.0989  -48.3164 N.am      12 UNK        -0.5000 
     70 CA         -3.7043  -22.4102  -48.6646 C.3       12 UNK         0.1400 
     71 CB         -4.6063  -21.2153  -48.3229 C.3       12 UNK        -0.1800 
     72 C          -4.2162  -23.6840  -47.9716 C.2       12 UNK         0.5000 
     73 O          -4.8307  -24.5248  -48.6282 O.2       12 UNK        -0.5000 
     74 N          -3.9276  -23.8173  -46.6690 N.am      13 UNK        -0.5000 
     75 CA         -4.2631  -24.9870  -45.8583 C.3       13 UNK         0.1400 
     76 CB         -3.9775  -24.6929  -44.3781 C.3       13 UNK        -0.1800 
     77 C          -3.5294  -26.2582  -46.3204 C.2       13 UNK         0.5000 
     78 O          -4.1655  -27.3030  -46.4589 O.2       13 UNK        -0.5000 
     79 N          -2.2219  -26.1418  -46.5944 N.am      14 UNK        -0.5000 
     80 CA         -1.3750  -27.2212  -47.1105 C.3       14 UNK         0.1400 
     81 CB          0.0902  -26.7607  -47.1273 C.3       14 UNK        -0.1800 
     82 C          -1.8061  -27.7104  -48.5059 C.2       14 UNK         0.5000 
     83 O          -1.7680  -28.9126  -48.7696 O.2       14 UNK        -0.5000 
     84 N          -2.2446  -26.7747  -49.3571 N.am      15 UNK        -0.5000 
     85 CA         -2.8083  -27.0398  -50.6803 C.3       15 UNK         0.1400 
     86 CB         -2.6784  -25.7669  -51.5297 C.3       15 UNK        -0.1800 
     87 C          -4.2780  -27.5070  -50.6450 C.2       15 UNK         0.5000 
     88 O          -4.8273  -27.8109  -51.7037 O.2       15 UNK        -0.5000 
     89 N          -4.9088  -27.5151  -49.4598 N.am      16 UNK        -0.5000 
     90 CA         -6.3194  -27.8357  -49.2051 C.3       16 UNK         0.1400 
     91 CB         -6.5734  -29.3425  -49.4144 C.3       16 UNK        -0.1800 
     92 C          -7.2944  -26.9436  -50.0067 C.2       16 UNK         0.5000 
     93 O          -8.3428  -27.4126  -50.4526 O.2       16 UNK        -0.5000 
     94 N          -6.8986  -25.6769  -50.2014 N.am      17 UNK        -0.5000 
     95 CA         -7.5480  -24.6302  -50.9960 C.3       17 UNK         0.1400 
     96 CB         -8.9174  -24.2561  -50.3930 C.3       17 UNK        -0.1800 
     97 C          -7.6331  -24.9178  -52.5137 C.2       17 UNK         0.5000 
     98 O          -8.3082  -24.1711  -53.2242 O.2       17 UNK        -0.5000 
     99 N          -6.9379  -25.9550  -53.0079 N.am      18 UNK        -0.5000 
    100 CA        -6.8532  -26.2847  -54.4363 C.3       18 UNK         0.1400 
    101 CB        -6.4787  -27.7662  -54.5945 C.3       18 UNK        -0.1800 
    102 C         -5.8499  -25.3890  -55.1914 C.2       18 UNK         0.5000 
    103 O         -5.8993  -25.3155  -56.4199 O.2       18 UNK        -0.5000 
    104 N         -4.9699  -24.7204  -54.4420 N.am      19 UNK        -0.5000 
    105 CA        -4.0074  -23.7234  -54.8862 C.3       19 UNK         0.1400 
    106 CB        -2.7077  -24.4152  -55.3379 C.3       19 UNK        -0.1800 
    107 C         -3.7730  -22.7527  -53.7168 C.2       19 UNK         0.5000 
    108 O         -4.3129  -22.9712  -52.6275 O.2       19 UNK        -0.5000 
    109 N         -2.9772  -21.7028  -53.9668 N.am      20 UNK        -0.5000 
    110 CA        -2.6300  -20.6279  -53.0291 C.3       20 UNK         0.1400 
    111 CB        -1.7308  -21.1516  -51.8894 C.3       20 UNK        -0.1800 
    112 C         -3.8780  -19.8684  -52.5340 C.2       20 UNK         0.5000 
    113 O         -4.1312  -19.7784  -51.3322 O.2       20 UNK        -0.5000 
    114 N         -4.6331  -19.3131  -53.4947 N.am      21 UNK        -0.5000 
    115 CA        -5.8553  -18.5215  -53.2852 C.3       21 UNK         0.1400 
    116 CB        -6.4628  -18.1816  -54.6552 C.3       21 UNK        -0.1800 
    117 C         -5.6592  -17.2396  -52.4434 C.2       21 UNK         0.5000 
    118 O         -6.6386  -16.6695  -51.9611 O.2       21 UNK        -0.5000 
    119 N         -4.3976  -16.8338  -52.2645 N.am      22 UNK        -0.5000 
    120 CA        -3.9151  -15.8653  -51.2722 C.3       22 UNK         0.1400 
    121 C         -4.2291  -16.2303  -49.7884 C.2       22 UNK         0.5000 
    122 N         -4.4337  -17.4968  -49.4437 N.am      22 UNK        -0.7600 
    123 O         -4.2933  -15.3440  -48.9414 O.2       22 UNK        -0.5000 
    124 C124       -2.3972  -15.6058  -51.4684 C.3       23 UNK        -0.0398 
    125 S125       -1.4025  -17.1437  -51.4416 S.3       23 UNK        -0.2404 
    126 C126        0.2454  -16.5374  -51.9041 C.3       23 UNK        -0.0205 
    127 H127        3.1171   -8.1023  -50.2100 H         1 UNK         0.0600 
    128 H128        3.9414   -9.4099  -51.0634 H         1 UNK         0.0600 
    129 H129        2.2001   -9.1906  -51.2571 H         1 UNK         0.0600 
    130 H130        4.4414  -11.0913  -49.7298 H         1 UNK         0.3000 
    131 H131        4.4827  -12.6204  -48.1964 H         1 UNK         0.0600 
    132 H132        1.4887  -12.4141  -47.6235 H         1 UNK         0.0800 
    133 H133        2.0949  -13.1417  -49.0752 H         1 UNK         0.0800 
    134 H134        4.1879  -14.7525  -49.0092 H         1 UNK         0.0800 
    135 H135        4.4544  -15.9243  -47.7550 H         1 UNK         0.0800 
    136 H136        1.6568  -15.0173  -50.1465 H         1 UNK         0.1150 
    137 H137        1.1950  -19.0523  -51.4917 H         1 UNK         0.1150 
    138 H138        4.0500  -18.1366  -48.4306 H         1 UNK         0.1150 
    139 H139        2.8405  -20.7012  -50.8802 H         1 UNK         0.0800 
    140 H140        4.2248  -20.2166  -49.9425 H         1 UNK         0.0800 
    141 H141        0.7390  -21.7776  -49.9964 H         1 UNK         0.0800 
    142 H142        0.2597  -20.4703  -48.9378 H         1 UNK         0.0800 
    143 H143        0.7317  -23.3473  -47.9975 H         1 UNK         0.0600 
    144 H144        0.2920  -21.0134  -46.4699 H         1 UNK         0.3000 
    145 H145       -1.2214  -22.6069  -43.6171 H         1 UNK         0.0600 
    146 H146        0.6354  -21.3333  -42.5499 H         1 UNK         0.0600 
    147 H147        1.2187  -22.8020  -43.3195 H         1 UNK         0.0600 
    148 H148        1.4811  -21.2479  -44.0932 H         1 UNK         0.0600 
    149 H149       -0.6655  -19.8646  -44.1989 H         1 UNK         0.3000 
    150 H150       -3.8345  -19.1317  -45.7234 H         1 UNK         0.0600 
    151 H151       -4.2139  -19.0293  -43.2562 H         1 UNK         0.0600 
    152 H152       -3.8506  -17.4399  -43.9135 H         1 UNK         0.0600 
    153 H153       -2.6151  -18.3300  -43.0278 H         1 UNK         0.0600 
    154 H154       -1.6368  -17.4412  -45.1477 H         1 UNK         0.3000 
    155 H155        0.2207  -18.0092  -48.1683 H         1 UNK         0.0600 
    156 H156       -0.0029  -15.5096  -48.0986 H         1 UNK         0.0600 
    157 H157       -1.3801  -15.6616  -47.0110 H         1 UNK         0.0600 
    158 H158       -1.4766  -16.2873  -48.6397 H         1 UNK         0.0600 
    159 H159        0.8354  -16.4261  -45.9087 H         1 UNK         0.3000 
    160 H160        2.4704  -18.9477  -43.9489 H         1 UNK         0.0600 
    161 H161        3.6297  -16.5687  -45.4783 H         1 UNK         0.0600 
    162 H162        4.1463  -18.2368  -45.6725 H         1 UNK         0.0600 
    163 H163        4.3737  -17.4225  -44.1320 H         1 UNK         0.0600 
    164 H164        2.0619  -16.1064  -43.6440 H         1 UNK         0.3000 
    165 H165       -1.0017  -16.3648  -41.8382 H         1 UNK         0.0600 
    166 H166        1.8410  -15.5907  -40.9888 H         1 UNK         0.0600 
    167 H167        0.3562  -14.9818  -40.2600 H         1 UNK         0.0600 
    168 H168        0.7646  -16.6867  -40.1338 H         1 UNK         0.0600 
    169 H169        0.5782  -14.1289  -42.6445 H         1 UNK         0.3000 
    170 H170       -0.0913  -13.8141  -45.7971 H         1 UNK         0.0600 
    171 H171       -2.5380  -13.6733  -45.9131 H         1 UNK         0.0600 
    172 H172       -2.6007  -12.6664  -44.4765 H         1 UNK         0.0600 
    173 H173       -1.8602  -12.0554  -45.9563 H         1 UNK         0.0600 
    174 H174        1.0953  -12.2718  -44.7897 H         1 UNK         0.3000 
    175 H175        1.0553   -9.9272  -43.5344 H         1 UNK         0.0600 
    176 H176        1.7668   -9.4571  -41.1738 H         1 UNK         0.0600 
    177 H177        0.0215   -9.5623  -41.3395 H         1 UNK         0.0600 
    178 H178        0.9112  -10.9001  -40.6308 H         1 UNK         0.0600 
    179 H179        2.9501  -11.0149  -43.7966 H         1 UNK         0.3000 
    180 H180        5.0396  -12.7762  -41.8993 H         1 UNK         0.0600 
    181 H181        3.6179  -14.5424  -43.9677 H         1 UNK         0.0600 
    182 H182        3.9361  -14.9816  -42.2916 H         1 UNK         0.0600 
    183 H183        5.2735  -14.7635  -43.4044 H         1 UNK         0.0600 
    184 H184        4.8460  -12.6150  -44.7873 H         1 UNK         0.3000 
    185 H185        5.1855   -9.2647  -45.2313 H         1 UNK         0.0600 
    186 H186        7.3846   -9.4760  -46.3534 H         1 UNK         0.0600 
    187 H187        7.6033   -9.4703  -44.6124 H         1 UNK         0.0600 
    188 H188        7.7080  -10.9860  -45.4995 H         1 UNK         0.0600 
    189 H189        5.8270  -11.1953  -47.1221 H         1 UNK         0.3000 
    190 H190       -2.1508  -21.1963  -47.8768 H         1 UNK         0.3000 
    191 H191       -3.7524  -22.5748  -49.7422 H         1 UNK         0.0600 
    192 H192       -4.2298  -20.2980  -48.7721 H         1 UNK         0.0600 
    193 H193       -5.6174  -21.3728  -48.6997 H         1 UNK         0.0600 
    194 H194       -4.6769  -21.0503  -47.2483 H         1 UNK         0.0600 
    195 H195       -3.4591  -23.0522  -46.1924 H         1 UNK         0.3000 
    196 H196       -5.3349  -25.1664  -45.9653 H         1 UNK         0.0600 
    197 H197       -4.2425  -25.5459  -43.7521 H         1 UNK         0.0600 
    198 H198       -4.5579  -23.8392  -44.0277 H         1 UNK         0.0600 
    199 H199       -2.9240  -24.4729  -44.2052 H         1 UNK         0.0600 
    200 H200       -1.7609  -25.2526  -46.4144 H         1 UNK         0.3000 
    201 H201       -1.4586  -28.0658  -46.4236 H         1 UNK         0.0600 
    202 H202        0.4308  -26.4940  -46.1267 H         1 UNK         0.0600 
    203 H203        0.2305  -25.8914  -47.7706 H         1 UNK         0.0600 
    204 H204        0.7455  -27.5516  -47.4942 H         1 UNK         0.0600 
    205 H205       -2.1805  -25.7980  -49.0846 H         1 UNK         0.3000 
    206 H206       -2.2278  -27.8301  -51.1602 H         1 UNK         0.0600 
    207 H207       -1.6373  -25.4593  -51.6281 H         1 UNK         0.0600 
    208 H208       -3.0671  -25.9261  -52.5352 H         1 UNK         0.0600 
    209 H209       -3.2315  -24.9365  -51.0891 H         1 UNK         0.0600 
    210 H210       -4.3826  -27.2259  -48.6446 H         1 UNK         0.3000 
    211 H211       -6.4982  -27.6113  -48.1527 H         1 UNK         0.0600 
    212 H212       -6.4646  -29.6297  -50.4607 H         1 UNK         0.0600 
    213 H213       -7.5817  -29.6171  -49.1024 H         1 UNK         0.0600 
    214 H214       -5.8786  -29.9433  -48.8275 H         1 UNK         0.0600 
    215 H215       -6.0344  -25.3868  -49.7457 H         1 UNK         0.3000 
    216 H216       -6.9017  -23.7560  -50.9022 H         1 UNK         0.0600 
    217 H217       -8.8313  -24.0312  -49.3299 H         1 UNK         0.0600 
    218 H218       -9.6451  -25.0595  -50.5094 H         1 UNK         0.0600 
    219 H219       -9.3306  -23.3704  -50.8768 H         1 UNK         0.0600 
    220 H220       -6.3968  -26.5374  -52.3782 H         1 UNK         0.3000 
    221 H221       -7.8358  -26.1370  -54.8893 H         1 UNK         0.0600 
    222 H222       -5.4641  -27.9653  -54.2490 H         1 UNK         0.0600 
    223 H223       -7.1579  -28.4096  -54.0348 H         1 UNK         0.0600 
    224 H224       -6.5301  -28.0695  -55.6409 H         1 UNK         0.0600 
    225 H225       -5.0513  -24.7783  -53.4346 H         1 UNK         0.3000 
    226 H226       -4.4317  -23.1560  -55.7170 H         1 UNK         0.0600 
    227 H227       -2.9015  -25.1448  -56.1243 H         1 UNK         0.0600 
    228 H228       -1.9950  -23.6941  -55.7387 H         1 UNK         0.0600 
    229 H229       -2.2184  -24.9350  -54.5143 H         1 UNK         0.0600 
    230 H230       -2.5867  -21.6111  -54.8942 H         1 UNK         0.3000 
    231 H231       -2.0398  -19.9014  -53.5897 H         1 UNK         0.0600 
    232 H232       -1.4754  -20.3543  -51.1897 H         1 UNK         0.0600 
    233 H233       -0.7960  -21.5521  -52.2806 H         1 UNK         0.0600 
    234 H234       -2.2156  -21.9424  -51.3204 H         1 UNK         0.0600 
    235 H235       -4.3530  -19.4446  -54.4557 H         1 UNK         0.3000 
    236 H236       -6.5630  -19.1517  -52.7431 H         1 UNK         0.0600 
    237 H237       -7.3940  -17.6244  -54.5439 H         1 UNK         0.0600 
    238 H238       -5.7853  -17.5721  -55.2544 H         1 UNK         0.0600 
    239 H239       -6.6935  -19.0848  -55.2204 H         1 UNK         0.0600 
    240 H240       -3.6725  -17.3813  -52.7022 H         1 UNK         0.3000 
    241 H241       -4.4390  -14.9285  -51.4696 H         1 UNK         0.0600 
    242 H242       -4.3373  -18.2449  -50.1245 H         1 UNK         0.3800 
    243 H243       -4.6330  -17.7196  -48.4835 H         1 UNK         0.3800 
    244 H244       -2.2382  -15.1139  -52.4289 H         1 UNK         0.0800 
    245 H245       -2.0159  -14.9159  -50.7132 H         1 UNK         0.0800 
    246 H246        0.4989  -16.9177  -52.8945 H         1 UNK         0.0800 
    247 H247        0.2385  -15.4497  -51.9871 H         1 UNK         0.0800 
@<TRIPOS>BOND
     1    1    2 1    
     2    1  127 1    
     3    1  128 1    
     4    1  129 1    
     5    2    3 2    
     6    2    4 am   BACKBONE|DICT|INTERRES
     7    4    5 1    
     8    4  130 1    
     9    5    6 1    
    10    5   65 1    
    11    5  131 1    
    12    6    7 1    
    13    6  132 1    
    14    6  133 1    
    15    7    8 1    
    16    8    9 1    
    17    8  134 1    
    18    8  135 1    
    19    9   10 ar   
    20    9   14 ar   
    21   10   11 ar   
    22   10  136 1    
    23   11   12 ar   
    24   11  126 1    
    25   12   13 ar   
    26   12  137 1    
    27   13   14 ar   
    28   13   15 1    
    29   14  138 1    
    30   15   16 1    
    31   15  139 1    
    32   15  140 1    
    33   16   17 1    
    34   17   18 1    
    35   17  141 1    
    36   17  142 1    
    37   18   19 1    
    38   18   67 1    
    39   18  143 1    
    40   19   20 am   BACKBONE|DICT|INTERRES
    41   19  144 1    
    42   20   21 2    
    43   20   22 1    
    44   22   23 1    
    45   22   24 1    
    46   22  145 1    
    47   23  146 1    
    48   23  147 1    
    49   23  148 1    
    50   24   25 am   BACKBONE|DICT|INTERRES
    51   24  149 1    
    52   25   26 2    
    53   25   27 1    
    54   27   28 1    
    55   27   29 1    
    56   27  150 1    
    57   28  151 1    
    58   28  152 1    
    59   28  153 1    
    60   29   30 am   BACKBONE|DICT|INTERRES
    61   29  154 1    
    62   30   31 2    
    63   30   32 1    
    64   32   33 1    
    65   32   34 1    
    66   32  155 1    
    67   33  156 1    
    68   33  157 1    
    69   33  158 1    
    70   34   35 am   BACKBONE|DICT|INTERRES
    71   34  159 1    
    72   35   36 2    
    73   35   37 1    
    74   37   38 1    
    75   37   39 1    
    76   37  160 1    
    77   38  161 1    
    78   38  162 1    
    79   38  163 1    
    80   39   40 am   BACKBONE|DICT|INTERRES
    81   39  164 1    
    82   40   41 2    
    83   40   42 1    
    84   42   43 1    
    85   42   44 1    
    86   42  165 1    
    87   43  166 1    
    88   43  167 1    
    89   43  168 1    
    90   44   45 am   BACKBONE|DICT|INTERRES
    91   44  169 1    
    92   45   46 2    
    93   45   47 1    
    94   47   48 1    
    95   47   49 1    
    96   47  170 1    
    97   48  171 1    
    98   48  172 1    
    99   48  173 1    
   100   49   50 am   BACKBONE|DICT|INTERRES
   101   49  174 1    
   102   50   51 2    
   103   50   52 1    
   104   52   53 1    
   105   52   54 1    
   106   52  175 1    
   107   53  176 1    
   108   53  177 1    
   109   53  178 1    
   110   54   55 am   BACKBONE|DICT|INTERRES
   111   54  179 1    
   112   55   56 2    
   113   55   57 1    
   114   57   58 1    
   115   57   59 1    
   116   57  180 1    
   117   58  181 1    
   118   58  182 1    
   119   58  183 1    
   120   59   60 am   BACKBONE|DICT|INTERRES
   121   59  184 1    
   122   60   61 2    
   123   60   62 1    
   124   62   63 1    
   125   62   64 1    
   126   62  185 1    
   127   63  186 1    
   128   63  187 1    
   129   63  188 1    
   130   64   65 am   BACKBONE|DICT|INTERRES
   131   64  189 1    
   132   65   66 2    
   133   67   68 2    
   134   67   69 am   BACKBONE|DICT|INTERRES
   135   69   70 1    
   136   69  190 1    
   137   70   71 1    
   138   70   72 1    
   139   70  191 1    
   140   71  192 1    
   141   71  193 1    
   142   71  194 1    
   143   72   73 2    
   144   72   74 am   BACKBONE|DICT|INTERRES
   145   74   75 1    
   146   74  195 1    
   147   75   76 1    
   148   75   77 1    
   149   75  196 1    
   150   76  197 1    
   151   76  198 1    
   152   76  199 1    
   153   77   78 2    
   154   77   79 am   BACKBONE|DICT|INTERRES
   155   79   80 1    
   156   79  200 1    
   157   80   81 1    
   158   80   82 1    
   159   80  201 1    
   160   81  202 1    
   161   81  203 1    
   162   81  204 1    
   163   82   83 2    
   164   82   84 am   BACKBONE|DICT|INTERRES
   165   84   85 1    
   166   84  205 1    
   167   85   86 1    
   168   85   87 1    
   169   85  206 1    
   170   86  207 1    
   171   86  208 1    
   172   86  209 1    
   173   87   88 2    
   174   87   89 am   BACKBONE|DICT|INTERRES
   175   89   90 1    
   176   89  210 1    
   177   90   91 1    
   178   90   92 1    
   179   90  211 1    
   180   91  212 1    
   181   91  213 1    
   182   91  214 1    
   183   92   93 2    
   184   92   94 am   BACKBONE|DICT|INTERRES
   185   94   95 1    
   186   94  215 1    
   187   95   96 1    
   188   95   97 1    
   189   95  216 1    
   190   96  217 1    
   191   96  218 1    
   192   96  219 1    
   193   97   98 2    
   194   97   99 am   BACKBONE|DICT|INTERRES
   195   99  100 1    
   196   99  220 1    
   197  100  101 1    
   198  100  102 1    
   199  100  221 1    
   200  101  222 1    
   201  101  223 1    
   202  101  224 1    
   203  102  103 2    
   204  102  104 am   BACKBONE|DICT|INTERRES
   205  104  105 1    
   206  104  225 1    
   207  105  106 1    
   208  105  107 1    
   209  105  226 1    
   210  106  227 1    
   211  106  228 1    
   212  106  229 1    
   213  107  108 2    
   214  107  109 am   BACKBONE|DICT|INTERRES
   215  109  110 1    
   216  109  230 1    
   217  110  111 1    
   218  110  112 1    
   219  110  231 1    
   220  111  232 1    
   221  111  233 1    
   222  111  234 1    
   223  112  113 2    
   224  112  114 am   BACKBONE|DICT|INTERRES
   225  114  115 1    
   226  114  235 1    
   227  115  116 1    
   228  115  117 1    
   229  115  236 1    
   230  116  237 1    
   231  116  238 1    
   232  116  239 1    
   233  117  118 2    
   234  117  119 am   BACKBONE|DICT|INTERRES
   235  119  120 1    
   236  119  240 1    
   237  120  121 1    
   238  120  124 1    
   239  120  241 1    
   240  121  122 am   BACKBONE|DICT|INTERRES
   241  121  123 2    
   242  122  242 1    
   243  122  243 1    
   244  124  125 1    
   245  124  244 1    
   246  124  245 1    
   247  125  126 1    
   248  126  246 1    
   249  126  247 1    
@<TRIPOS>SUBSTRUCTURE
     1 UNK         1 GROUP             0       ****    0 ROOT    
