@<TRIPOS>MOLECULE
3R540
247   249    1
SMALL
USER_CHARGES


@<TRIPOS>ATOM
      1 CA          4.2326   -9.3478  -46.4951 C.3       0 UNK        -0.1800 
      2 C           4.1311  -10.8588  -46.3530 C.2       0 UNK         0.5000 
      3 O           4.7571  -11.4353  -45.4635 O.2       0 UNK        -0.5000 
      4 N           3.3300  -11.5067  -47.2091 N.am      1 UNK        -0.5000 
      5 CA          3.1145  -12.9605  -47.2373 C.3       1 UNK         0.1400 
      6 C6          2.2584  -13.4133  -48.4439 C.3       23 UNK        -0.0398 
      7 S7          0.6752  -12.5156  -48.6333 S.3       23 UNK        -0.2404 
      8 C8          0.0982  -13.1502  -50.2408 C.3       23 UNK        -0.0205 
      9 C9         -0.5199  -14.5334  -50.1064 C.ar      23 UNK        -0.0193 
     10 C10        -1.9026  -14.6770  -49.9510 C.ar      23 UNK        -0.1150 
     11 C11        -2.4720  -15.9459  -49.8047 C.ar      23 UNK        -0.0193 
     12 C12        -1.6436  -17.0711  -49.7914 C.ar      23 UNK        -0.1150 
     13 C13        -0.2621  -16.9395  -49.9447 C.ar      23 UNK        -0.0193 
     14 C14         0.2911  -15.6713  -50.1280 C.ar      23 UNK        -0.1150 
     15 C15         0.6342  -18.1649  -49.8911 C.3       23 UNK        -0.0205 
     16 S16         1.5280  -18.2925  -48.3061 S.3       23 UNK        -0.2404 
     17 C17         0.1848  -18.3481  -47.0680 C.3       23 UNK        -0.0398 
     18 CA         -0.2860  -19.7889  -46.7543 C.3       11 UNK         0.1400 
     19 N          -0.7147  -19.9356  -45.3628 N.am      11 UNK        -0.5000 
     20 C          -0.9935  -21.1060  -44.7724 C.2       10 UNK         0.5000 
     21 O          -0.8383  -22.2006  -45.3132 O.2       10 UNK        -0.5000 
     22 CA         -1.6087  -21.0318  -43.3647 C.3       10 UNK         0.1400 
     23 CB         -0.5189  -20.8810  -42.2925 C.3       10 UNK        -0.1800 
     24 N          -2.5710  -19.9326  -43.2598 N.am      10 UNK        -0.5000 
     25 C          -3.7663  -19.9245  -43.8684 C.2       9 UNK         0.5000 
     26 O          -4.1989  -20.8695  -44.5265 O.2       9 UNK        -0.5000 
     27 CA         -4.6006  -18.6344  -43.7580 C.3       9 UNK         0.1400 
     28 CB         -5.4425  -18.6471  -42.4737 C.3       9 UNK        -0.1800 
     29 N          -3.7804  -17.4228  -43.7847 N.am      9 UNK        -0.5000 
     30 C          -3.0746  -16.9963  -44.8428 C.2       8 UNK         0.5000 
     31 O          -3.0758  -17.5570  -45.9368 O.2       8 UNK        -0.5000 
     32 CA         -2.1606  -15.7765  -44.6142 C.3       8 UNK         0.1400 
     33 CB         -2.9296  -14.4728  -44.8689 C.3       8 UNK        -0.1800 
     34 N          -1.5804  -15.7590  -43.2656 N.am      8 UNK        -0.5000 
     35 C          -0.7494  -16.7055  -42.8106 C.2       7 UNK         0.5000 
     36 O          -0.3357  -17.6361  -43.5103 O.2       7 UNK        -0.5000 
     37 CA         -0.3843  -16.6576  -41.3208 C.3       7 UNK         0.1400 
     38 CB         -1.5610  -17.1702  -40.4663 C.3       7 UNK        -0.1800 
     39 N           0.7866  -17.5036  -41.1410 N.am      7 UNK        -0.5000 
     40 C           1.5518  -17.6314  -40.0521 C.2       6 UNK         0.5000 
     41 O           1.3239  -17.0781  -38.9758 O.2       6 UNK        -0.5000 
     42 CA          2.8053  -18.5201  -40.2068 C.3       6 UNK         0.1400 
     43 CB          2.5002  -19.9641  -39.7798 C.3       6 UNK        -0.1800 
     44 N           3.3388  -18.5239  -41.5752 N.am      6 UNK        -0.5000 
     45 C           3.8616  -17.4447  -42.1738 C.2       5 UNK         0.5000 
     46 O           4.0284  -16.3699  -41.5938 O.2       5 UNK        -0.5000 
     47 CA          4.2149  -17.5896  -43.6674 C.3       5 UNK         0.1400 
     48 CB          2.9479  -17.8230  -44.5080 C.3       5 UNK        -0.1800 
     49 N           4.8782  -16.3841  -44.1593 N.am      5 UNK        -0.5000 
     50 C           6.1806  -16.1123  -44.0085 C.2       4 UNK         0.5000 
     51 O           7.0096  -16.9242  -43.5941 O.2       4 UNK        -0.5000 
     52 CA          6.6214  -14.6767  -44.3490 C.3       4 UNK         0.1400 
     53 CB          6.7183  -14.4781  -45.8693 C.3       4 UNK        -0.1800 
     54 N           5.7140  -13.6785  -43.7801 N.am      4 UNK        -0.5000 
     55 C           5.6020  -13.4086  -42.4704 C.2       3 UNK         0.5000 
     56 O           6.3273  -13.9063  -41.6081 O.2       3 UNK        -0.5000 
     57 CA          4.5099  -12.4104  -42.0449 C.3       3 UNK         0.1400 
     58 CB          5.0809  -10.9852  -41.9745 C.3       3 UNK        -0.1800 
     59 N           3.3730  -12.4243  -42.9656 N.am      3 UNK        -0.5000 
     60 C           2.2381  -13.1122  -42.7718 C.2       2 UNK         0.5000 
     61 O           1.9869  -13.7527  -41.7516 O.2       2 UNK        -0.5000 
     62 CA          1.1850  -13.0695  -43.8981 C.3       2 UNK         0.1400 
     63 CB          0.0912  -12.0448  -43.5615 C.3       2 UNK        -0.1800 
     64 N           1.7390  -12.7475  -45.2128 N.am      2 UNK        -0.5000 
     65 C           2.5711  -13.5325  -45.9101 C.2       1 UNK         0.5000 
     66 O           2.9606  -14.6327  -45.5197 O.2       1 UNK        -0.5000 
     67 C          -1.3791  -20.2706  -47.7337 C.2       11 UNK         0.5000 
     68 O          -1.0730  -21.0226  -48.6569 O.2       11 UNK        -0.5000 
     69 N          -2.6408  -19.8840  -47.4882 N.am      12 UNK        -0.5000 
     70 CA         -3.8122  -20.3330  -48.2456 C.3       12 UNK         0.1400 
     71 CB         -5.0694  -19.5949  -47.7640 C.3       12 UNK        -0.1800 
     72 C          -4.0240  -21.8557  -48.1715 C.2       12 UNK         0.5000 
     73 O          -4.3300  -22.4688  -49.1916 O.2       12 UNK        -0.5000 
     74 N          -3.8211  -22.4427  -46.9835 N.am      13 UNK        -0.5000 
     75 CA         -3.8736  -23.8875  -46.7559 C.3       13 UNK         0.1400 
     76 CB         -3.8371  -24.1776  -45.2482 C.3       13 UNK        -0.1800 
     77 C          -2.7562  -24.6519  -47.4912 C.2       13 UNK         0.5000 
     78 O          -3.0111  -25.7382  -48.0088 O.2       13 UNK        -0.5000 
     79 N          -1.5520  -24.0673  -47.5604 N.am      14 UNK        -0.5000 
     80 CA         -0.4276  -24.5932  -48.3393 C.3       14 UNK         0.1400 
     81 CB          0.8649  -23.8746  -47.9228 C.3       14 UNK        -0.1800 
     82 C          -0.6573  -24.4787  -49.8605 C.2       14 UNK         0.5000 
     83 O          -0.2471  -25.3662  -50.6082 O.2       14 UNK        -0.5000 
     84 N          -1.3264  -23.3991  -50.2842 N.am      15 UNK        -0.5000 
     85 CA         -1.7041  -23.1126  -51.6684 C.3       15 UNK         0.1400 
     86 CB         -1.9397  -21.5997  -51.8059 C.3       15 UNK        -0.1800 
     87 C          -2.9322  -23.9049  -52.1632 C.2       15 UNK         0.5000 
     88 O          -3.2645  -23.8121  -53.3479 O.2       15 UNK        -0.5000 
     89 N          -3.6061  -24.6518  -51.2771 N.am      16 UNK        -0.5000 
     90 CA         -4.7405  -25.5169  -51.6039 C.3       16 UNK         0.1400 
     91 CB         -5.3260  -26.1135  -50.3176 C.3       16 UNK        -0.1800 
     92 C          -4.3352  -26.6248  -52.5913 C.2       16 UNK         0.5000 
     93 O          -3.2550  -27.2025  -52.4515 O.2       16 UNK        -0.5000 
     94 N          -5.1871  -26.8577  -53.5990 N.am      17 UNK        -0.5000 
     95 CA         -5.0135  -27.7407  -54.7640 C.3       17 UNK         0.1400 
     96 CB         -4.8260  -29.2101  -54.3407 C.3       17 UNK        -0.1800 
     97 C          -3.9083  -27.2980  -55.7489 C.2       17 UNK         0.5000 
     98 O          -4.1096  -27.4036  -56.9586 O.2       17 UNK        -0.5000 
     99 N          -2.7820  -26.7930  -55.2298 N.am      18 UNK        -0.5000 
    100 CA        -1.6390  -26.2821  -55.9869 C.3       18 UNK         0.1400 
    101 CB        -0.4694  -26.0283  -55.0225 C.3       18 UNK        -0.1800 
    102 C         -1.9753  -25.0089  -56.7837 C.2       18 UNK         0.5000 
    103 O         -1.6421  -24.9250  -57.9665 O.2       18 UNK        -0.5000 
    104 N         -2.6453  -24.0573  -56.1231 N.am      19 UNK        -0.5000 
    105 CA        -3.1170  -22.7957  -56.6982 C.3       19 UNK         0.1400 
    106 CB        -2.2199  -21.6529  -56.1932 C.3       19 UNK        -0.1800 
    107 C         -4.6030  -22.5450  -56.3709 C.2       19 UNK         0.5000 
    108 O         -5.0993  -21.4467  -56.6218 O.2       19 UNK        -0.5000 
    109 N         -5.2827  -23.5659  -55.8243 N.am      20 UNK        -0.5000 
    110 CA        -6.6862  -23.5818  -55.3945 C.3       20 UNK         0.1400 
    111 CB        -7.6377  -23.3757  -56.5921 C.3       20 UNK        -0.1800 
    112 C         -6.9853  -22.6360  -54.2096 C.2       20 UNK         0.5000 
    113 O         -8.1101  -22.1472  -54.0863 O.2       20 UNK        -0.5000 
    114 N         -5.9833  -22.4333  -53.3400 N.am      21 UNK        -0.5000 
    115 CA        -6.0178  -21.6051  -52.1286 C.3       21 UNK         0.1400 
    116 CB        -6.9767  -22.2153  -51.0784 C.3       21 UNK        -0.1800 
    117 C         -6.2907  -20.1123  -52.4268 C.2       21 UNK         0.5000 
    118 O         -5.9109  -19.6237  -53.4930 O.2       21 UNK        -0.5000 
    119 N         -6.9151  -19.4133  -51.4714 N.am      22 UNK        -0.5000 
    120 CA        -7.2808  -17.9865  -51.5446 C.3       22 UNK         0.1400 
    121 C         -8.8099  -17.7489  -51.3661 C.2       22 UNK         0.5000 
    122 N         -9.6534  -18.7739  -51.4092 N.am      22 UNK        -0.7600 
    123 O         -9.2492  -16.6138  -51.2026 O.2       22 UNK        -0.5000 
    124 C124       -6.4397  -17.1248  -50.5626 C.3       23 UNK        -0.0398 
    125 S125       -4.6635  -17.1606  -50.9655 S.3       23 UNK        -0.2404 
    126 C126       -3.9763  -16.1082  -49.6487 C.3       23 UNK        -0.0205 
    127 H127        3.9155   -8.8632  -45.5718 H         1 UNK         0.0600 
    128 H128        3.6097   -8.9744  -47.3082 H         1 UNK         0.0600 
    129 H129        5.2645   -9.0599  -46.6956 H         1 UNK         0.0600 
    130 H130        2.8208  -10.9820  -47.9067 H         1 UNK         0.3000 
    131 H131        4.1012  -13.4064  -47.3717 H         1 UNK         0.0600 
    132 H132        2.8350  -13.2754  -49.3595 H         1 UNK         0.0800 
    133 H133        2.0601  -14.4836  -48.3758 H         1 UNK         0.0800 
    134 H134       -0.6367  -12.4539  -50.6476 H         1 UNK         0.0800 
    135 H135        0.9229  -13.1698  -50.9548 H         1 UNK         0.0800 
    136 H136       -2.5337  -13.7995  -49.9418 H         1 UNK         0.1150 
    137 H137       -2.0800  -18.0509  -49.6617 H         1 UNK         0.1150 
    138 H138        1.3591  -15.5723  -50.2588 H         1 UNK         0.1150 
    139 H139        0.0589  -19.0742  -50.0659 H         1 UNK         0.0800 
    140 H140        1.3632  -18.1128  -50.7008 H         1 UNK         0.0800 
    141 H141       -0.6430  -17.6953  -47.3439 H         1 UNK         0.0800 
    142 H142        0.6001  -17.8957  -46.1672 H         1 UNK         0.0800 
    143 H143        0.5686  -20.4588  -46.8738 H         1 UNK         0.0600 
    144 H144       -0.8241  -19.0832  -44.8239 H         1 UNK         0.3000 
    145 H145       -2.1382  -21.9685  -43.1783 H         1 UNK         0.0600 
    146 H146       -0.9509  -20.8120  -41.2940 H         1 UNK         0.0600 
    147 H147        0.1496  -21.7427  -42.2985 H         1 UNK         0.0600 
    148 H148        0.0940  -19.9959  -42.4556 H         1 UNK         0.0600 
    149 H149       -2.2652  -19.1035  -42.7752 H         1 UNK         0.3000 
    150 H150       -5.2801  -18.6019  -44.6120 H         1 UNK         0.0600 
    151 H151       -6.0801  -19.5313  -42.4342 H         1 UNK         0.0600 
    152 H152       -6.0951  -17.7753  -42.4215 H         1 UNK         0.0600 
    153 H153       -4.8169  -18.6529  -41.5801 H         1 UNK         0.0600 
    154 H154       -3.7276  -16.8924  -42.9283 H         1 UNK         0.3000 
    155 H155       -1.3423  -15.8362  -45.3354 H         1 UNK         0.0600 
    156 H156       -3.7443  -14.3370  -44.1566 H         1 UNK         0.0600 
    157 H157       -2.2728  -13.6076  -44.7981 H         1 UNK         0.0600 
    158 H158       -3.3629  -14.4663  -45.8702 H         1 UNK         0.0600 
    159 H159       -1.8940  -15.0284  -42.6428 H         1 UNK         0.3000 
    160 H160       -0.1314  -15.6314  -41.0474 H         1 UNK         0.0600 
    161 H161       -1.8000  -18.2099  -40.6924 H         1 UNK         0.0600 
    162 H162       -2.4617  -16.5795  -40.6364 H         1 UNK         0.0600 
    163 H163       -1.3389  -17.1063  -39.4013 H         1 UNK         0.0600 
    164 H164        1.0604  -17.9805  -41.9906 H         1 UNK         0.3000 
    165 H165        3.5756  -18.1228  -39.5424 H         1 UNK         0.0600 
    166 H166        3.3972  -20.5829  -39.8109 H         1 UNK         0.0600 
    167 H167        2.1200  -19.9963  -38.7579 H         1 UNK         0.0600 
    168 H168        1.7505  -20.4259  -40.4226 H         1 UNK         0.0600 
    169 H169        3.2457  -19.3837  -42.0961 H         1 UNK         0.3000 
    170 H170        4.8800  -18.4474  -43.7858 H         1 UNK         0.0600 
    171 H171        2.4486  -18.7537  -44.2368 H         1 UNK         0.0600 
    172 H172        2.2274  -17.0145  -44.3776 H         1 UNK         0.0600 
    173 H173        3.1872  -17.8844  -45.5698 H         1 UNK         0.0600 
    174 H174        4.2632  -15.6529  -44.5046 H         1 UNK         0.3000 
    175 H175        7.6137  -14.5157  -43.9224 H         1 UNK         0.0600 
    176 H176        7.4628  -15.1483  -46.3005 H         1 UNK         0.0600 
    177 H177        5.7694  -14.6852  -46.3632 H         1 UNK         0.0600 
    178 H178        7.0127  -13.4584  -46.1185 H         1 UNK         0.0600 
    179 H179        5.1422  -13.1556  -44.4323 H         1 UNK         0.3000 
    180 H180        4.1808  -12.6898  -41.0417 H         1 UNK         0.0600 
    181 H181        5.4475  -10.6468  -42.9442 H         1 UNK         0.0600 
    182 H182        5.9146  -10.9339  -41.2731 H         1 UNK         0.0600 
    183 H183        4.3265  -10.2753  -41.6351 H         1 UNK         0.0600 
    184 H184        3.5087  -11.9414  -43.8453 H         1 UNK         0.3000 
    185 H185        0.7271  -14.0586  -43.9622 H         1 UNK         0.0600 
    186 H186       -0.4240  -12.3132  -42.6383 H         1 UNK         0.0600 
    187 H187        0.5065  -11.0452  -43.4273 H         1 UNK         0.0600 
    188 H188       -0.6588  -11.9882  -44.3497 H         1 UNK         0.0600 
    189 H189        1.4818  -11.8555  -45.6101 H         1 UNK         0.3000 
    190 H190       -2.8114  -19.2036  -46.7517 H         1 UNK         0.3000 
    191 H191       -3.6479  -20.0659  -49.2910 H         1 UNK         0.0600 
    192 H192       -5.3256  -19.8582  -46.7386 H         1 UNK         0.0600 
    193 H193       -5.9278  -19.8431  -48.3887 H         1 UNK         0.0600 
    194 H194       -4.9384  -18.5155  -47.8059 H         1 UNK         0.0600 
    195 H195       -3.6421  -21.8585  -46.1731 H         1 UNK         0.3000 
    196 H196       -4.8282  -24.2484  -47.1446 H         1 UNK         0.0600 
    197 H197       -3.9167  -25.2481  -45.0554 H         1 UNK         0.0600 
    198 H198       -4.6660  -23.6916  -44.7332 H         1 UNK         0.0600 
    199 H199       -2.9104  -23.8306  -44.7919 H         1 UNK         0.0600 
    200 H200       -1.3993  -23.1987  -47.0595 H         1 UNK         0.3000 
    201 H201       -0.3152  -25.6527  -48.0998 H         1 UNK         0.0600 
    202 H202        1.0531  -23.9897  -46.8552 H         1 UNK         0.0600 
    203 H203        0.8246  -22.8074  -48.1407 H         1 UNK         0.0600 
    204 H204        1.7259  -24.2843  -48.4521 H         1 UNK         0.0600 
    205 H205       -1.5543  -22.6822  -49.6018 H         1 UNK         0.3000 
    206 H206       -0.8705  -23.3842  -52.3188 H         1 UNK         0.0600 
    207 H207       -1.0332  -21.0393  -51.5766 H         1 UNK         0.0600 
    208 H208       -2.2394  -21.3300  -52.8178 H         1 UNK         0.0600 
    209 H209       -2.7214  -21.2532  -51.1317 H         1 UNK         0.0600 
    210 H210       -3.2856  -24.6651  -50.3192 H         1 UNK         0.3000 
    211 H211       -5.5048  -24.8948  -52.0703 H         1 UNK         0.0600 
    212 H212       -4.6249  -26.7977  -49.8386 H         1 UNK         0.0600 
    213 H213       -6.2373  -26.6743  -50.5278 H         1 UNK         0.0600 
    214 H214       -5.5802  -25.3333  -49.5994 H         1 UNK         0.0600 
    215 H215       -6.0537  -26.3398  -53.6000 H         1 UNK         0.3000 
    216 H216       -5.9544  -27.6823  -55.3137 H         1 UNK         0.0600 
    217 H217       -4.8279  -29.8668  -55.2116 H         1 UNK         0.0600 
    218 H218       -5.6328  -29.5377  -53.6852 H         1 UNK         0.0600 
    219 H219       -3.8826  -29.3702  -53.8183 H         1 UNK         0.0600 
    220 H220       -2.7037  -26.7875  -54.2166 H         1 UNK         0.3000 
    221 H221       -1.3346  -27.0522  -56.6986 H         1 UNK         0.0600 
    222 H222       -0.7293  -25.2986  -54.2543 H         1 UNK         0.0600 
    223 H223       -0.1682  -26.9473  -54.5195 H         1 UNK         0.0600 
    224 H224        0.4028  -25.6486  -55.5561 H         1 UNK         0.0600 
    225 H225       -2.8338  -24.1793  -55.1304 H         1 UNK         0.3000 
    226 H226       -3.0496  -22.8287  -57.7873 H         1 UNK         0.0600 
    227 H227       -1.1753  -21.8292  -56.4500 H         1 UNK         0.0600 
    228 H228       -2.5062  -20.6989  -56.6374 H         1 UNK         0.0600 
    229 H229       -2.2856  -21.5457  -55.1113 H         1 UNK         0.0600 
    230 H230       -4.7693  -24.4221  -55.6786 H         1 UNK         0.3000 
    231 H231       -6.8672  -24.5882  -55.0158 H         1 UNK         0.0600 
    232 H232       -8.6737  -23.5580  -56.3044 H         1 UNK         0.0600 
    233 H233       -7.4034  -24.0627  -57.4052 H         1 UNK         0.0600 
    234 H234       -7.5838  -22.3598  -56.9838 H         1 UNK         0.0600 
    235 H235       -5.0825  -22.8461  -53.5548 H         1 UNK         0.3000 
    236 H236       -5.0116  -21.6443  -51.7130 H         1 UNK         0.0600 
    237 H237       -8.0210  -22.1371  -51.3818 H         1 UNK         0.0600 
    238 H238       -6.7584  -23.2692  -50.9125 H         1 UNK         0.0600 
    239 H239       -6.8736  -21.7258  -50.1098 H         1 UNK         0.0600 
    240 H240       -7.1994  -19.8912  -50.6292 H         1 UNK         0.3000 
    241 H241       -7.0776  -17.6162  -52.5508 H         1 UNK         0.0600 
    242 H242      -10.6411  -18.6043  -51.2989 H         1 UNK         0.3800 
    243 H243       -9.3263  -19.7069  -51.6025 H         1 UNK         0.3800 
    244 H244       -6.7582  -16.0813  -50.5917 H         1 UNK         0.0800 
    245 H245       -6.5826  -17.4642  -49.5359 H         1 UNK         0.0800 
    246 H246       -4.4739  -15.1375  -49.6722 H         1 UNK         0.0800 
    247 H247       -4.1859  -16.5437  -48.6719 H         1 UNK         0.0800 
@<TRIPOS>BOND
     1    1    2 1    
     2    1  127 1    
     3    1  128 1    
     4    1  129 1    
     5    2    3 2    
     6    2    4 am   BACKBONE|DICT|INTERRES
     7    4    5 1    
     8    4  130 1    
     9    5    6 1    
    10    5   65 1    
    11    5  131 1    
    12    6    7 1    
    13    6  132 1    
    14    6  133 1    
    15    7    8 1    
    16    8    9 1    
    17    8  134 1    
    18    8  135 1    
    19    9   10 ar   
    20    9   14 ar   
    21   10   11 ar   
    22   10  136 1    
    23   11   12 ar   
    24   11  126 1    
    25   12   13 ar   
    26   12  137 1    
    27   13   14 ar   
    28   13   15 1    
    29   14  138 1    
    30   15   16 1    
    31   15  139 1    
    32   15  140 1    
    33   16   17 1    
    34   17   18 1    
    35   17  141 1    
    36   17  142 1    
    37   18   19 1    
    38   18   67 1    
    39   18  143 1    
    40   19   20 am   BACKBONE|DICT|INTERRES
    41   19  144 1    
    42   20   21 2    
    43   20   22 1    
    44   22   23 1    
    45   22   24 1    
    46   22  145 1    
    47   23  146 1    
    48   23  147 1    
    49   23  148 1    
    50   24   25 am   BACKBONE|DICT|INTERRES
    51   24  149 1    
    52   25   26 2    
    53   25   27 1    
    54   27   28 1    
    55   27   29 1    
    56   27  150 1    
    57   28  151 1    
    58   28  152 1    
    59   28  153 1    
    60   29   30 am   BACKBONE|DICT|INTERRES
    61   29  154 1    
    62   30   31 2    
    63   30   32 1    
    64   32   33 1    
    65   32   34 1    
    66   32  155 1    
    67   33  156 1    
    68   33  157 1    
    69   33  158 1    
    70   34   35 am   BACKBONE|DICT|INTERRES
    71   34  159 1    
    72   35   36 2    
    73   35   37 1    
    74   37   38 1    
    75   37   39 1    
    76   37  160 1    
    77   38  161 1    
    78   38  162 1    
    79   38  163 1    
    80   39   40 am   BACKBONE|DICT|INTERRES
    81   39  164 1    
    82   40   41 2    
    83   40   42 1    
    84   42   43 1    
    85   42   44 1    
    86   42  165 1    
    87   43  166 1    
    88   43  167 1    
    89   43  168 1    
    90   44   45 am   BACKBONE|DICT|INTERRES
    91   44  169 1    
    92   45   46 2    
    93   45   47 1    
    94   47   48 1    
    95   47   49 1    
    96   47  170 1    
    97   48  171 1    
    98   48  172 1    
    99   48  173 1    
   100   49   50 am   BACKBONE|DICT|INTERRES
   101   49  174 1    
   102   50   51 2    
   103   50   52 1    
   104   52   53 1    
   105   52   54 1    
   106   52  175 1    
   107   53  176 1    
   108   53  177 1    
   109   53  178 1    
   110   54   55 am   BACKBONE|DICT|INTERRES
   111   54  179 1    
   112   55   56 2    
   113   55   57 1    
   114   57   58 1    
   115   57   59 1    
   116   57  180 1    
   117   58  181 1    
   118   58  182 1    
   119   58  183 1    
   120   59   60 am   BACKBONE|DICT|INTERRES
   121   59  184 1    
   122   60   61 2    
   123   60   62 1    
   124   62   63 1    
   125   62   64 1    
   126   62  185 1    
   127   63  186 1    
   128   63  187 1    
   129   63  188 1    
   130   64   65 am   BACKBONE|DICT|INTERRES
   131   64  189 1    
   132   65   66 2    
   133   67   68 2    
   134   67   69 am   BACKBONE|DICT|INTERRES
   135   69   70 1    
   136   69  190 1    
   137   70   71 1    
   138   70   72 1    
   139   70  191 1    
   140   71  192 1    
   141   71  193 1    
   142   71  194 1    
   143   72   73 2    
   144   72   74 am   BACKBONE|DICT|INTERRES
   145   74   75 1    
   146   74  195 1    
   147   75   76 1    
   148   75   77 1    
   149   75  196 1    
   150   76  197 1    
   151   76  198 1    
   152   76  199 1    
   153   77   78 2    
   154   77   79 am   BACKBONE|DICT|INTERRES
   155   79   80 1    
   156   79  200 1    
   157   80   81 1    
   158   80   82 1    
   159   80  201 1    
   160   81  202 1    
   161   81  203 1    
   162   81  204 1    
   163   82   83 2    
   164   82   84 am   BACKBONE|DICT|INTERRES
   165   84   85 1    
   166   84  205 1    
   167   85   86 1    
   168   85   87 1    
   169   85  206 1    
   170   86  207 1    
   171   86  208 1    
   172   86  209 1    
   173   87   88 2    
   174   87   89 am   BACKBONE|DICT|INTERRES
   175   89   90 1    
   176   89  210 1    
   177   90   91 1    
   178   90   92 1    
   179   90  211 1    
   180   91  212 1    
   181   91  213 1    
   182   91  214 1    
   183   92   93 2    
   184   92   94 am   BACKBONE|DICT|INTERRES
   185   94   95 1    
   186   94  215 1    
   187   95   96 1    
   188   95   97 1    
   189   95  216 1    
   190   96  217 1    
   191   96  218 1    
   192   96  219 1    
   193   97   98 2    
   194   97   99 am   BACKBONE|DICT|INTERRES
   195   99  100 1    
   196   99  220 1    
   197  100  101 1    
   198  100  102 1    
   199  100  221 1    
   200  101  222 1    
   201  101  223 1    
   202  101  224 1    
   203  102  103 2    
   204  102  104 am   BACKBONE|DICT|INTERRES
   205  104  105 1    
   206  104  225 1    
   207  105  106 1    
   208  105  107 1    
   209  105  226 1    
   210  106  227 1    
   211  106  228 1    
   212  106  229 1    
   213  107  108 2    
   214  107  109 am   BACKBONE|DICT|INTERRES
   215  109  110 1    
   216  109  230 1    
   217  110  111 1    
   218  110  112 1    
   219  110  231 1    
   220  111  232 1    
   221  111  233 1    
   222  111  234 1    
   223  112  113 2    
   224  112  114 am   BACKBONE|DICT|INTERRES
   225  114  115 1    
   226  114  235 1    
   227  115  116 1    
   228  115  117 1    
   229  115  236 1    
   230  116  237 1    
   231  116  238 1    
   232  116  239 1    
   233  117  118 2    
   234  117  119 am   BACKBONE|DICT|INTERRES
   235  119  120 1    
   236  119  240 1    
   237  120  121 1    
   238  120  124 1    
   239  120  241 1    
   240  121  122 am   BACKBONE|DICT|INTERRES
   241  121  123 2    
   242  122  242 1    
   243  122  243 1    
   244  124  125 1    
   245  124  244 1    
   246  124  245 1    
   247  125  126 1    
   248  126  246 1    
   249  126  247 1    
@<TRIPOS>SUBSTRUCTURE
     1 UNK         1 GROUP             0       ****    0 ROOT    
