@<TRIPOS>MOLECULE
3R540
247   249    1
SMALL
USER_CHARGES


@<TRIPOS>ATOM
      1 CA          5.5484  -13.1670  -45.0243 C.3       0 UNK        -0.1800 
      2 C           5.6156  -14.3032  -46.0352 C.2       0 UNK         0.5000 
      3 O           6.7066  -14.6806  -46.4624 O.2       0 UNK        -0.5000 
      4 N           4.4545  -14.8476  -46.4161 N.am      1 UNK        -0.5000 
      5 CA          4.3239  -16.0058  -47.3061 C.3       1 UNK         0.1400 
      6 C6          2.9308  -16.0534  -47.9789 C.3       23 UNK        -0.0398 
      7 S7          2.8271  -14.8972  -49.3844 S.3       23 UNK        -0.2404 
      8 C8          3.5139  -15.9073  -50.7414 C.3       23 UNK        -0.0205 
      9 C9          2.5630  -17.0052  -51.2012 C.ar      23 UNK        -0.0193 
     10 C10         1.6139  -16.7439  -52.1926 C.ar      23 UNK        -0.1150 
     11 C11         0.7564  -17.7539  -52.6375 C.ar      23 UNK        -0.0193 
     12 C12         0.8303  -19.0243  -52.0589 C.ar      23 UNK        -0.1150 
     13 C13         1.7679  -19.3023  -51.0594 C.ar      23 UNK        -0.0193 
     14 C14         2.6517  -18.2918  -50.6609 C.ar      23 UNK        -0.1150 
     15 C15         1.8311  -20.7092  -50.4635 C.3       23 UNK        -0.0205 
     16 S16         2.3529  -20.7721  -48.7136 S.3       23 UNK        -0.2404 
     17 C17         0.9559  -19.9534  -47.8746 C.3       23 UNK        -0.0398 
     18 CA          0.4675  -20.7482  -46.6394 C.3       11 UNK         0.1400 
     19 N          -0.2210  -19.8974  -45.6652 N.am      11 UNK        -0.5000 
     20 C          -0.2642  -20.1579  -44.3522 C.2       10 UNK         0.5000 
     21 O           0.2741  -21.1316  -43.8258 O.2       10 UNK        -0.5000 
     22 CA         -1.0187  -19.1483  -43.4758 C.3       10 UNK         0.1400 
     23 CB         -0.1768  -17.8800  -43.2610 C.3       10 UNK        -0.1800 
     24 N          -2.3234  -18.7740  -44.0158 N.am      10 UNK        -0.5000 
     25 C          -3.3944  -19.5791  -44.0382 C.2       9 UNK         0.5000 
     26 O          -3.3600  -20.7760  -43.7506 O.2       9 UNK        -0.5000 
     27 CA         -4.7283  -18.9320  -44.4379 C.3       9 UNK         0.1400 
     28 CB         -5.1712  -17.8878  -43.3990 C.3       9 UNK        -0.1800 
     29 N          -4.6066  -18.2914  -45.7426 N.am      9 UNK        -0.5000 
     30 C          -5.3131  -18.6305  -46.8276 C.2       8 UNK         0.5000 
     31 O          -6.2270  -19.4551  -46.8158 O.2       8 UNK        -0.5000 
     32 CA         -4.9496  -17.9472  -48.1623 C.3       8 UNK         0.1400 
     33 CB         -6.0615  -16.9797  -48.5944 C.3       8 UNK        -0.1800 
     34 N          -3.6756  -17.2272  -48.1599 N.am      8 UNK        -0.5000 
     35 C          -2.4672  -17.7844  -48.0103 C.2       7 UNK         0.5000 
     36 O          -2.2783  -18.9865  -47.8322 O.2       7 UNK        -0.5000 
     37 CA         -1.2677  -16.8231  -47.9782 C.3       7 UNK         0.1400 
     38 CB         -0.7693  -16.5672  -49.4054 C.3       7 UNK        -0.1800 
     39 N          -1.5344  -15.5425  -47.3164 N.am      7 UNK        -0.5000 
     40 C          -2.0337  -15.3743  -46.0843 C.2       6 UNK         0.5000 
     41 O          -2.3853  -16.3059  -45.3567 O.2       6 UNK        -0.5000 
     42 CA         -2.1300  -13.9209  -45.5826 C.3       6 UNK         0.1400 
     43 CB         -3.0341  -13.7942  -44.3433 C.3       6 UNK        -0.1800 
     44 N          -0.8086  -13.3910  -45.2525 N.am      6 UNK        -0.5000 
     45 C           0.1407  -13.0291  -46.1274 C.2       5 UNK         0.5000 
     46 O          -0.0210  -13.0438  -47.3479 O.2       5 UNK        -0.5000 
     47 CA          1.4976  -12.5800  -45.5464 C.3       5 UNK         0.1400 
     48 CB          1.6665  -11.0591  -45.6780 C.3       5 UNK        -0.1800 
     49 N           1.6711  -12.9561  -44.1388 N.am      5 UNK        -0.5000 
     50 C           1.9663  -14.1882  -43.7074 C.2       4 UNK         0.5000 
     51 O           2.2480  -15.1276  -44.4599 O.2       4 UNK        -0.5000 
     52 CA          1.9166  -14.4018  -42.1863 C.3       4 UNK         0.1400 
     53 CB          0.4895  -14.2089  -41.6386 C.3       4 UNK        -0.1800 
     54 N           2.3731  -15.7530  -41.8948 N.am      4 UNK        -0.5000 
     55 C           2.9442  -16.1746  -40.7612 C.2       3 UNK         0.5000 
     56 O           3.0997  -15.4625  -39.7684 O.2       3 UNK        -0.5000 
     57 CA          3.4318  -17.6403  -40.7300 C.3       3 UNK         0.1400 
     58 CB          2.4420  -18.5172  -39.9469 C.3       3 UNK        -0.1800 
     59 N           3.6263  -18.2235  -42.0623 N.am      3 UNK        -0.5000 
     60 C           4.5675  -17.8418  -42.9361 C.2       2 UNK         0.5000 
     61 O           5.4253  -16.9942  -42.6841 O.2       2 UNK        -0.5000 
     62 CA          4.5160  -18.4525  -44.3440 C.3       2 UNK         0.1400 
     63 CB          3.4610  -19.5616  -44.5373 C.3       2 UNK        -0.1800 
     64 N           4.2562  -17.3555  -45.2655 N.am      2 UNK        -0.5000 
     65 C           4.6112  -17.3186  -46.5528 C.2       1 UNK         0.5000 
     66 O           5.1556  -18.2518  -47.1432 O.2       1 UNK        -0.5000 
     67 C          -0.4150  -21.9470  -47.0253 C.2       11 UNK         0.5000 
     68 O           0.0880  -23.0667  -47.1061 O.2       11 UNK        -0.5000 
     69 N          -1.7206  -21.6978  -47.2027 N.am      12 UNK        -0.5000 
     70 CA         -2.7533  -22.6629  -47.5840 C.3       12 UNK         0.1400 
     71 CB         -4.1236  -21.9735  -47.5211 C.3       12 UNK        -0.1800 
     72 C          -2.7782  -23.9489  -46.7421 C.2       12 UNK         0.5000 
     73 O          -2.9514  -25.0342  -47.2980 O.2       12 UNK        -0.5000 
     74 N          -2.5563  -23.8017  -45.4290 N.am      13 UNK        -0.5000 
     75 CA         -2.4811  -24.8924  -44.4570 C.3       13 UNK         0.1400 
     76 CB         -2.3685  -24.2874  -43.0494 C.3       13 UNK        -0.1800 
     77 C          -1.3275  -25.8854  -44.7090 C.2       13 UNK         0.5000 
     78 O          -1.4527  -27.0536  -44.3390 O.2       13 UNK        -0.5000 
     79 N          -0.2372  -25.4134  -45.3273 N.am      14 UNK        -0.5000 
     80 CA          0.9254  -26.2198  -45.6944 C.3       14 UNK         0.1400 
     81 CB          2.2034  -25.4257  -45.3788 C.3       14 UNK        -0.1800 
     82 C           0.8893  -26.6095  -47.1816 C.2       14 UNK         0.5000 
     83 O           1.2230  -27.7454  -47.5204 O.2       14 UNK        -0.5000 
     84 N           0.5016  -25.6589  -48.0420 N.am      15 UNK        -0.5000 
     85 CA          0.5081  -25.7903  -49.4978 C.3       15 UNK         0.1400 
     86 CB          0.3926  -24.3894  -50.1223 C.3       15 UNK        -0.1800 
     87 C          -0.5965  -26.7064  -50.0520 C.2       15 UNK         0.5000 
     88 O          -0.4015  -27.2874  -51.1202 O.2       15 UNK        -0.5000 
     89 N          -1.7368  -26.7898  -49.3462 N.am      16 UNK        -0.5000 
     90 CA         -2.9845  -27.4408  -49.7724 C.3       16 UNK         0.1400 
     91 CB         -2.8107  -28.9705  -49.8747 C.3       16 UNK        -0.1800 
     92 C          -3.5575  -26.7989  -51.0571 C.2       16 UNK         0.5000 
     93 O          -4.0439  -27.4936  -51.9515 O.2       16 UNK        -0.5000 
     94 N          -3.4591  -25.4681  -51.1169 N.am      17 UNK        -0.5000 
     95 CA         -3.8470  -24.5892  -52.2134 C.3       17 UNK         0.1400 
     96 CB         -2.7928  -24.6506  -53.3388 C.3       17 UNK        -0.1800 
     97 C          -4.0205  -23.1820  -51.6150 C.2       17 UNK         0.5000 
     98 O          -4.3229  -23.0779  -50.4268 O.2       17 UNK        -0.5000 
     99 N          -3.8301  -22.1249  -52.4177 N.am      18 UNK        -0.5000 
    100 CA        -3.7698  -20.6949  -52.0576 C.3       18 UNK         0.1400 
    101 CB        -2.5934  -20.4246  -51.0991 C.3       18 UNK        -0.1800 
    102 C         -5.0666  -20.0635  -51.5036 C.2       18 UNK         0.5000 
    103 O         -5.2394  -18.8517  -51.6384 O.2       18 UNK        -0.5000 
    104 N         -5.9572  -20.8730  -50.9169 N.am      19 UNK        -0.5000 
    105 CA        -7.2070  -20.5068  -50.2389 C.3       19 UNK         0.1400 
    106 CB        -7.8587  -21.7873  -49.6966 C.3       19 UNK        -0.1800 
    107 C         -8.2166  -19.7031  -51.0834 C.2       19 UNK         0.5000 
    108 O         -9.0700  -19.0200  -50.5179 O.2       19 UNK        -0.5000 
    109 N         -8.0811  -19.7629  -52.4138 N.am      20 UNK        -0.5000 
    110 CA        -8.8252  -18.9612  -53.3890 C.3       20 UNK         0.1400 
    111 CB        -8.7521  -19.6756  -54.7495 C.3       20 UNK        -0.1800 
    112 C         -8.3282  -17.4994  -53.5051 C.2       20 UNK         0.5000 
    113 O         -8.8094  -16.7767  -54.3784 O.2       20 UNK        -0.5000 
    114 N         -7.3737  -17.1021  -52.6487 N.am      21 UNK        -0.5000 
    115 CA        -6.5964  -15.8595  -52.6644 C.3       21 UNK         0.1400 
    116 CB        -7.4885  -14.6004  -52.6197 C.3       21 UNK        -0.1800 
    117 C         -5.5770  -15.8741  -53.8166 C.2       21 UNK         0.5000 
    118 O         -5.4745  -14.9088  -54.5765 O.2       21 UNK        -0.5000 
    119 N         -4.8456  -16.9937  -53.9086 N.am      22 UNK        -0.5000 
    120 CA        -3.8402  -17.3015  -54.9382 C.3       22 UNK         0.1400 
    121 C         -4.4442  -17.3789  -56.3778 C.2       22 UNK         0.5000 
    122 N         -3.6618  -17.1838  -57.4322 N.am      22 UNK        -0.7600 
    123 O         -5.6209  -17.6846  -56.5587 O.2       22 UNK        -0.5000 
    124 C124       -2.5756  -16.4028  -54.8107 C.3       23 UNK        -0.0398 
    125 S125       -1.7187  -16.6319  -53.2115 S.3       23 UNK        -0.2404 
    126 C126       -0.2142  -17.4834  -53.7755 C.3       23 UNK        -0.0205 
    127 H127        6.1554  -12.3267  -45.3612 H         1 UNK         0.0600 
    128 H128        5.9310  -13.5017  -44.0601 H         1 UNK         0.0600 
    129 H129        4.5294  -12.8089  -44.8819 H         1 UNK         0.0600 
    130 H130        3.5962  -14.5431  -45.9756 H         1 UNK         0.3000 
    131 H131        5.0840  -15.9305  -48.0868 H         1 UNK         0.0600 
    132 H132        2.1469  -15.8004  -47.2627 H         1 UNK         0.0800 
    133 H133        2.6826  -17.0536  -48.3270 H         1 UNK         0.0800 
    134 H134        3.7406  -15.2492  -51.5815 H         1 UNK         0.0800 
    135 H135        4.4681  -16.3378  -50.4344 H         1 UNK         0.0800 
    136 H136        1.5520  -15.7574  -52.6303 H         1 UNK         0.1150 
    137 H137        0.1687  -19.8045  -52.4053 H         1 UNK         0.1150 
    138 H138        3.4106  -18.5030  -49.9214 H         1 UNK         0.1150 
    139 H139        0.8616  -21.2023  -50.5521 H         1 UNK         0.0800 
    140 H140        2.5324  -21.2997  -51.0540 H         1 UNK         0.0800 
    141 H141        0.1449  -19.7663  -48.5801 H         1 UNK         0.0800 
    142 H142        1.3184  -18.9738  -47.5627 H         1 UNK         0.0800 
    143 H143        1.3532  -21.1558  -46.1463 H         1 UNK         0.0600 
    144 H144       -0.7553  -19.1205  -46.0251 H         1 UNK         0.3000 
    145 H145       -1.1791  -19.6129  -42.5004 H         1 UNK         0.0600 
    146 H146        0.7907  -18.1254  -42.8254 H         1 UNK         0.0600 
    147 H147        0.0072  -17.3468  -44.1949 H         1 UNK         0.0600 
    148 H148       -0.6744  -17.1934  -42.5767 H         1 UNK         0.0600 
    149 H149       -2.4205  -17.8092  -44.3236 H         1 UNK         0.3000 
    150 H150       -5.4785  -19.7252  -44.4592 H         1 UNK         0.0600 
    151 H151       -5.2290  -18.3272  -42.4024 H         1 UNK         0.0600 
    152 H152       -6.1593  -17.4947  -43.6388 H         1 UNK         0.0600 
    153 H153       -4.4820  -17.0436  -43.3489 H         1 UNK         0.0600 
    154 H154       -3.8661  -17.6058  -45.8387 H         1 UNK         0.3000 
    155 H155       -4.8700  -18.7383  -48.9077 H         1 UNK         0.0600 
    156 H156       -6.1704  -16.1533  -47.8912 H         1 UNK         0.0600 
    157 H157       -7.0253  -17.4863  -48.6582 H         1 UNK         0.0600 
    158 H158       -5.8532  -16.5606  -49.5770 H         1 UNK         0.0600 
    159 H159       -3.7242  -16.2257  -48.2736 H         1 UNK         0.3000 
    160 H160       -0.4683  -17.3086  -47.4175 H         1 UNK         0.0600 
    161 H161       -1.5220  -16.0641  -50.0134 H         1 UNK         0.0600 
    162 H162       -0.5180  -17.5033  -49.9051 H         1 UNK         0.0600 
    163 H163        0.1262  -15.9491  -49.4082 H         1 UNK         0.0600 
    164 H164       -1.2023  -14.7123  -47.7953 H         1 UNK         0.3000 
    165 H165       -2.5658  -13.3175  -46.3817 H         1 UNK         0.0600 
    166 H166       -3.1451  -12.7526  -44.0413 H         1 UNK         0.0600 
    167 H167       -4.0335  -14.1807  -44.5477 H         1 UNK         0.0600 
    168 H168       -2.6360  -14.3489  -43.4924 H         1 UNK         0.0600 
    169 H169       -0.5803  -13.3553  -44.2715 H         1 UNK         0.3000 
    170 H170        2.2757  -13.0576  -46.1435 H         1 UNK         0.0600 
    171 H171        1.5749  -10.7439  -46.7184 H         1 UNK         0.0600 
    172 H172        0.9133  -10.5184  -45.1035 H         1 UNK         0.0600 
    173 H173        2.6491  -10.7402  -45.3295 H         1 UNK         0.0600 
    174 H174        1.4798  -12.2328  -43.4596 H         1 UNK         0.3000 
    175 H175        2.5933  -13.6818  -41.7215 H         1 UNK         0.0600 
    176 H176       -0.2250  -14.8657  -42.1355 H         1 UNK         0.0600 
    177 H177        0.4447  -14.4183  -40.5697 H         1 UNK         0.0600 
    178 H178        0.1452  -13.1836  -41.7760 H         1 UNK         0.0600 
    179 H179        2.3321  -16.3780  -42.6876 H         1 UNK         0.3000 
    180 H180        4.3912  -17.6552  -40.2087 H         1 UNK         0.0600 
    181 H181        1.4617  -18.5454  -40.4239 H         1 UNK         0.0600 
    182 H182        2.3017  -18.1380  -38.9337 H         1 UNK         0.0600 
    183 H183        2.8042  -19.5418  -39.8606 H         1 UNK         0.0600 
    184 H184        2.9733  -18.9416  -42.3390 H         1 UNK         0.3000 
    185 H185        5.5054  -18.8693  -44.5435 H         1 UNK         0.0600 
    186 H186        3.5354  -19.9997  -45.5328 H         1 UNK         0.0600 
    187 H187        3.5955  -20.3746  -43.8228 H         1 UNK         0.0600 
    188 H188        2.4499  -19.1729  -44.4282 H         1 UNK         0.0600 
    189 H189        3.8323  -16.5290  -44.8593 H         1 UNK         0.3000 
    190 H190       -2.0186  -20.7263  -47.1820 H         1 UNK         0.3000 
    191 H191       -2.5462  -22.9535  -48.6136 H         1 UNK         0.0600 
    192 H192       -4.3359  -21.5934  -46.5214 H         1 UNK         0.0600 
    193 H193       -4.9249  -22.6644  -47.7857 H         1 UNK         0.0600 
    194 H194       -4.1792  -21.1381  -48.2179 H         1 UNK         0.0600 
    195 H195       -2.4289  -22.8661  -45.0674 H         1 UNK         0.3000 
    196 H196       -3.4154  -25.4542  -44.5166 H         1 UNK         0.0600 
    197 H197       -2.3323  -25.0678  -42.2881 H         1 UNK         0.0600 
    198 H198       -3.2253  -23.6523  -42.8231 H         1 UNK         0.0600 
    199 H199       -1.4670  -23.6817  -42.9446 H         1 UNK         0.0600 
    200 H200       -0.2344  -24.4507  -45.6449 H         1 UNK         0.3000 
    201 H201        0.9509  -27.1402  -45.1073 H         1 UNK         0.0600 
    202 H202        2.2664  -25.1899  -44.3164 H         1 UNK         0.0600 
    203 H203        2.2446  -24.4862  -45.9318 H         1 UNK         0.0600 
    204 H204        3.0939  -25.9995  -45.6383 H         1 UNK         0.0600 
    205 H205        0.2842  -24.7328  -47.6784 H         1 UNK         0.3000 
    206 H206        1.4689  -26.2160  -49.7949 H         1 UNK         0.0600 
    207 H207        1.2112  -23.7462  -49.7985 H         1 UNK         0.0600 
    208 H208        0.4298  -24.4398  -51.2113 H         1 UNK         0.0600 
    209 H209       -0.5435  -23.9015  -49.8482 H         1 UNK         0.0600 
    210 H210       -1.8102  -26.2502  -48.4896 H         1 UNK         0.3000 
    211 H211       -3.7136  -27.2462  -48.9845 H         1 UNK         0.0600 
    212 H212       -2.1464  -29.2527  -50.6917 H         1 UNK         0.0600 
    213 H213       -3.7693  -29.4595  -50.0516 H         1 UNK         0.0600 
    214 H214       -2.4018  -29.3824  -48.9521 H         1 UNK         0.0600 
    215 H215       -3.1392  -24.9742  -50.2940 H         1 UNK         0.3000 
    216 H216       -4.8163  -24.9078  -52.6010 H         1 UNK         0.0600 
    217 H217       -3.1009  -24.0692  -54.2081 H         1 UNK         0.0600 
    218 H218       -2.6409  -25.6737  -53.6829 H         1 UNK         0.0600 
    219 H219       -1.8270  -24.2693  -53.0041 H         1 UNK         0.0600 
    220 H220       -3.6284  -22.3200  -53.3884 H         1 UNK         0.3000 
    221 H221       -3.5539  -20.1707  -52.9895 H         1 UNK         0.0600 
    222 H222       -1.6691  -20.8584  -51.4774 H         1 UNK         0.0600 
    223 H223       -2.7700  -20.8408  -50.1080 H         1 UNK         0.0600 
    224 H224       -2.4268  -19.3534  -50.9753 H         1 UNK         0.0600 
    225 H225       -5.6547  -21.8351  -50.7932 H         1 UNK         0.3000 
    226 H226       -6.9408  -19.8804  -49.3882 H         1 UNK         0.0600 
    227 H227       -7.1926  -22.3052  -49.0062 H         1 UNK         0.0600 
    228 H228       -8.7762  -21.5613  -49.1515 H         1 UNK         0.0600 
    229 H229       -8.1135  -22.4788  -50.5006 H         1 UNK         0.0600 
    230 H230       -7.3468  -20.3488  -52.7829 H         1 UNK         0.3000 
    231 H231       -9.8720  -18.9217  -53.0809 H         1 UNK         0.0600 
    232 H232       -9.3584  -19.1629  -55.4973 H         1 UNK         0.0600 
    233 H233       -9.1243  -20.6979  -54.6806 H         1 UNK         0.0600 
    234 H234       -7.7293  -19.7131  -55.1274 H         1 UNK         0.0600 
    235 H235       -7.0147  -17.8060  -52.0149 H         1 UNK         0.3000 
    236 H236       -6.0049  -15.8619  -51.7493 H         1 UNK         0.0600 
    237 H237       -8.2084  -14.6559  -51.8032 H         1 UNK         0.0600 
    238 H238       -6.8840  -13.7070  -52.4602 H         1 UNK         0.0600 
    239 H239       -8.0408  -14.4523  -53.5476 H         1 UNK         0.0600 
    240 H240       -5.0003  -17.7147  -53.2121 H         1 UNK         0.3000 
    241 H241       -3.5275  -18.3254  -54.7328 H         1 UNK         0.0600 
    242 H242       -4.0653  -17.2621  -58.3531 H         1 UNK         0.3800 
    243 H243       -2.6838  -16.9602  -57.3432 H         1 UNK         0.3800 
    244 H244       -2.8382  -15.3497  -54.9174 H         1 UNK         0.0800 
    245 H245       -1.8642  -16.6113  -55.6093 H         1 UNK         0.0800 
    246 H246        0.2845  -16.8756  -54.5321 H         1 UNK         0.0800 
    247 H247       -0.4929  -18.4177  -54.2655 H         1 UNK         0.0800 
@<TRIPOS>BOND
     1    1    2 1    
     2    1  127 1    
     3    1  128 1    
     4    1  129 1    
     5    2    3 2    
     6    2    4 am   BACKBONE|DICT|INTERRES
     7    4    5 1    
     8    4  130 1    
     9    5    6 1    
    10    5   65 1    
    11    5  131 1    
    12    6    7 1    
    13    6  132 1    
    14    6  133 1    
    15    7    8 1    
    16    8    9 1    
    17    8  134 1    
    18    8  135 1    
    19    9   10 ar   
    20    9   14 ar   
    21   10   11 ar   
    22   10  136 1    
    23   11   12 ar   
    24   11  126 1    
    25   12   13 ar   
    26   12  137 1    
    27   13   14 ar   
    28   13   15 1    
    29   14  138 1    
    30   15   16 1    
    31   15  139 1    
    32   15  140 1    
    33   16   17 1    
    34   17   18 1    
    35   17  141 1    
    36   17  142 1    
    37   18   19 1    
    38   18   67 1    
    39   18  143 1    
    40   19   20 am   BACKBONE|DICT|INTERRES
    41   19  144 1    
    42   20   21 2    
    43   20   22 1    
    44   22   23 1    
    45   22   24 1    
    46   22  145 1    
    47   23  146 1    
    48   23  147 1    
    49   23  148 1    
    50   24   25 am   BACKBONE|DICT|INTERRES
    51   24  149 1    
    52   25   26 2    
    53   25   27 1    
    54   27   28 1    
    55   27   29 1    
    56   27  150 1    
    57   28  151 1    
    58   28  152 1    
    59   28  153 1    
    60   29   30 am   BACKBONE|DICT|INTERRES
    61   29  154 1    
    62   30   31 2    
    63   30   32 1    
    64   32   33 1    
    65   32   34 1    
    66   32  155 1    
    67   33  156 1    
    68   33  157 1    
    69   33  158 1    
    70   34   35 am   BACKBONE|DICT|INTERRES
    71   34  159 1    
    72   35   36 2    
    73   35   37 1    
    74   37   38 1    
    75   37   39 1    
    76   37  160 1    
    77   38  161 1    
    78   38  162 1    
    79   38  163 1    
    80   39   40 am   BACKBONE|DICT|INTERRES
    81   39  164 1    
    82   40   41 2    
    83   40   42 1    
    84   42   43 1    
    85   42   44 1    
    86   42  165 1    
    87   43  166 1    
    88   43  167 1    
    89   43  168 1    
    90   44   45 am   BACKBONE|DICT|INTERRES
    91   44  169 1    
    92   45   46 2    
    93   45   47 1    
    94   47   48 1    
    95   47   49 1    
    96   47  170 1    
    97   48  171 1    
    98   48  172 1    
    99   48  173 1    
   100   49   50 am   BACKBONE|DICT|INTERRES
   101   49  174 1    
   102   50   51 2    
   103   50   52 1    
   104   52   53 1    
   105   52   54 1    
   106   52  175 1    
   107   53  176 1    
   108   53  177 1    
   109   53  178 1    
   110   54   55 am   BACKBONE|DICT|INTERRES
   111   54  179 1    
   112   55   56 2    
   113   55   57 1    
   114   57   58 1    
   115   57   59 1    
   116   57  180 1    
   117   58  181 1    
   118   58  182 1    
   119   58  183 1    
   120   59   60 am   BACKBONE|DICT|INTERRES
   121   59  184 1    
   122   60   61 2    
   123   60   62 1    
   124   62   63 1    
   125   62   64 1    
   126   62  185 1    
   127   63  186 1    
   128   63  187 1    
   129   63  188 1    
   130   64   65 am   BACKBONE|DICT|INTERRES
   131   64  189 1    
   132   65   66 2    
   133   67   68 2    
   134   67   69 am   BACKBONE|DICT|INTERRES
   135   69   70 1    
   136   69  190 1    
   137   70   71 1    
   138   70   72 1    
   139   70  191 1    
   140   71  192 1    
   141   71  193 1    
   142   71  194 1    
   143   72   73 2    
   144   72   74 am   BACKBONE|DICT|INTERRES
   145   74   75 1    
   146   74  195 1    
   147   75   76 1    
   148   75   77 1    
   149   75  196 1    
   150   76  197 1    
   151   76  198 1    
   152   76  199 1    
   153   77   78 2    
   154   77   79 am   BACKBONE|DICT|INTERRES
   155   79   80 1    
   156   79  200 1    
   157   80   81 1    
   158   80   82 1    
   159   80  201 1    
   160   81  202 1    
   161   81  203 1    
   162   81  204 1    
   163   82   83 2    
   164   82   84 am   BACKBONE|DICT|INTERRES
   165   84   85 1    
   166   84  205 1    
   167   85   86 1    
   168   85   87 1    
   169   85  206 1    
   170   86  207 1    
   171   86  208 1    
   172   86  209 1    
   173   87   88 2    
   174   87   89 am   BACKBONE|DICT|INTERRES
   175   89   90 1    
   176   89  210 1    
   177   90   91 1    
   178   90   92 1    
   179   90  211 1    
   180   91  212 1    
   181   91  213 1    
   182   91  214 1    
   183   92   93 2    
   184   92   94 am   BACKBONE|DICT|INTERRES
   185   94   95 1    
   186   94  215 1    
   187   95   96 1    
   188   95   97 1    
   189   95  216 1    
   190   96  217 1    
   191   96  218 1    
   192   96  219 1    
   193   97   98 2    
   194   97   99 am   BACKBONE|DICT|INTERRES
   195   99  100 1    
   196   99  220 1    
   197  100  101 1    
   198  100  102 1    
   199  100  221 1    
   200  101  222 1    
   201  101  223 1    
   202  101  224 1    
   203  102  103 2    
   204  102  104 am   BACKBONE|DICT|INTERRES
   205  104  105 1    
   206  104  225 1    
   207  105  106 1    
   208  105  107 1    
   209  105  226 1    
   210  106  227 1    
   211  106  228 1    
   212  106  229 1    
   213  107  108 2    
   214  107  109 am   BACKBONE|DICT|INTERRES
   215  109  110 1    
   216  109  230 1    
   217  110  111 1    
   218  110  112 1    
   219  110  231 1    
   220  111  232 1    
   221  111  233 1    
   222  111  234 1    
   223  112  113 2    
   224  112  114 am   BACKBONE|DICT|INTERRES
   225  114  115 1    
   226  114  235 1    
   227  115  116 1    
   228  115  117 1    
   229  115  236 1    
   230  116  237 1    
   231  116  238 1    
   232  116  239 1    
   233  117  118 2    
   234  117  119 am   BACKBONE|DICT|INTERRES
   235  119  120 1    
   236  119  240 1    
   237  120  121 1    
   238  120  124 1    
   239  120  241 1    
   240  121  122 am   BACKBONE|DICT|INTERRES
   241  121  123 2    
   242  122  242 1    
   243  122  243 1    
   244  124  125 1    
   245  124  244 1    
   246  124  245 1    
   247  125  126 1    
   248  126  246 1    
   249  126  247 1    
@<TRIPOS>SUBSTRUCTURE
     1 UNK         1 GROUP             0       ****    0 ROOT    
