@<TRIPOS>MOLECULE
3R540
247   249    1
SMALL
USER_CHARGES


@<TRIPOS>ATOM
      1 CA         -1.4255  -14.0606  -50.4176 C.3       0 UNK        -0.1800 
      2 C          -0.3868  -13.2452  -49.6605 C.2       0 UNK         0.5000 
      3 O          -0.4274  -12.0154  -49.6974 O.2       0 UNK        -0.5000 
      4 N           0.5513  -13.9276  -48.9937 N.am      1 UNK        -0.5000 
      5 CA          1.6451  -13.3448  -48.2121 C.3       1 UNK         0.1400 
      6 C6          2.6681  -14.4154  -47.7647 C.3       23 UNK        -0.0398 
      7 S7          3.3732  -15.3896  -49.1360 S.3       23 UNK        -0.2404 
      8 C8          2.9276  -17.0830  -48.6356 C.3       23 UNK        -0.0205 
      9 C9          1.5804  -17.5172  -49.1963 C.ar      23 UNK        -0.0193 
     10 C10         1.5413  -18.2451  -50.3875 C.ar      23 UNK        -0.1150 
     11 C11         0.3272  -18.6779  -50.9245 C.ar      23 UNK        -0.0193 
     12 C12        -0.8626  -18.3726  -50.2540 C.ar      23 UNK        -0.1150 
     13 C13        -0.8443  -17.6265  -49.0713 C.ar      23 UNK        -0.0193 
     14 C14         0.3832  -17.2131  -48.5377 C.ar      23 UNK        -0.1150 
     15 C15        -2.1554  -17.2199  -48.4092 C.3       23 UNK        -0.0205 
     16 S16        -2.3641  -17.9192  -46.7447 S.3       23 UNK        -0.2404 
     17 C17        -2.8362  -19.6484  -47.0679 C.3       23 UNK        -0.0398 
     18 CA         -1.6353  -20.5993  -47.2849 C.3       11 UNK         0.1400 
     19 N          -0.5374  -20.3656  -46.3413 N.am      11 UNK        -0.5000 
     20 C           0.6984  -20.8712  -46.4421 C.2       10 UNK         0.5000 
     21 O           1.0517  -21.6321  -47.3440 O.2       10 UNK        -0.5000 
     22 CA          1.6911  -20.5069  -45.3222 C.3       10 UNK         0.1400 
     23 CB          2.5942  -19.3507  -45.7659 C.3       10 UNK        -0.1800 
     24 N           1.0806  -20.1511  -44.0371 N.am      10 UNK        -0.5000 
     25 C           0.2827  -20.9381  -43.2987 C.2       9 UNK         0.5000 
     26 O          -0.1626  -22.0184  -43.6914 O.2       9 UNK        -0.5000 
     27 CA         -0.0477  -20.4217  -41.8807 C.3       9 UNK         0.1400 
     28 CB         -0.6252  -21.5129  -40.9558 C.3       9 UNK        -0.1800 
     29 N           1.1008  -19.7503  -41.2577 N.am      9 UNK        -0.5000 
     30 C           2.3058  -20.2840  -40.9981 C.2       8 UNK         0.5000 
     31 O           2.5697  -21.4799  -41.1286 O.2       8 UNK        -0.5000 
     32 CA          3.4219  -19.3259  -40.5459 C.3       8 UNK         0.1400 
     33 CB          4.4914  -19.1936  -41.6443 C.3       8 UNK        -0.1800 
     34 N           2.9208  -17.9871  -40.2217 N.am      8 UNK        -0.5000 
     35 C           3.0061  -17.4228  -39.0100 C.2       7 UNK         0.5000 
     36 O           3.4768  -17.9866  -38.0210 O.2       7 UNK        -0.5000 
     37 CA          2.4954  -15.9783  -38.8703 C.3       7 UNK         0.1400 
     38 CB          3.6166  -14.9778  -39.1916 C.3       7 UNK        -0.1800 
     39 N           1.3276  -15.6752  -39.6983 N.am      7 UNK        -0.5000 
     40 C           0.0901  -16.1281  -39.4516 C.2       6 UNK         0.5000 
     41 O          -0.1748  -16.9528  -38.5769 O.2       6 UNK        -0.5000 
     42 CA         -1.0437  -15.5533  -40.3142 C.3       6 UNK         0.1400 
     43 CB         -1.4084  -14.1354  -39.8461 C.3       6 UNK        -0.1800 
     44 N          -0.6620  -15.5058  -41.7226 N.am      6 UNK        -0.5000 
     45 C          -1.0845  -16.3687  -42.6557 C.2       5 UNK         0.5000 
     46 O          -1.8708  -17.2897  -42.4367 O.2       5 UNK        -0.5000 
     47 CA         -0.5198  -16.1823  -44.0774 C.3       5 UNK         0.1400 
     48 CB         -1.4234  -15.2254  -44.8697 C.3       5 UNK        -0.1800 
     49 N           0.8534  -15.6751  -44.1022 N.am      5 UNK        -0.5000 
     50 C           1.9029  -16.2810  -43.5280 C.2       4 UNK         0.5000 
     51 O           1.8421  -17.3951  -43.0051 O.2       4 UNK        -0.5000 
     52 CA          3.2284  -15.4995  -43.4643 C.3       4 UNK         0.1400 
     53 CB          4.2053  -15.9868  -44.5430 C.3       4 UNK        -0.1800 
     54 N           3.0818  -14.0416  -43.5505 N.am      4 UNK        -0.5000 
     55 C           2.4376  -13.2757  -42.6557 C.2       3 UNK         0.5000 
     56 O           1.7956  -13.7254  -41.7054 O.2       3 UNK        -0.5000 
     57 CA          2.4736  -11.7643  -42.9054 C.3       3 UNK         0.1400 
     58 CB          3.9147  -11.2173  -42.8972 C.3       3 UNK        -0.1800 
     59 N           1.8065  -11.5033  -44.1741 N.am      3 UNK        -0.5000 
     60 C           1.3834  -10.3277  -44.6428 C.2       2 UNK         0.5000 
     61 O           1.5868   -9.2570  -44.0675 O.2       2 UNK        -0.5000 
     62 CA          0.5823  -10.3626  -45.9694 C.3       2 UNK         0.1400 
     63 CB          0.4123   -8.9644  -46.5912 C.3       2 UNK        -0.1800 
     64 N           1.1215  -11.2647  -46.9973 N.am      2 UNK        -0.5000 
     65 C           1.1030  -12.6036  -46.9730 C.2       1 UNK         0.5000 
     66 O           0.7067  -13.2602  -46.0071 O.2       1 UNK        -0.5000 
     67 C          -2.1220  -22.0633  -47.3092 C.2       11 UNK         0.5000 
     68 O          -2.8583  -22.4310  -48.2260 O.2       11 UNK        -0.5000 
     69 N          -1.6968  -22.8873  -46.3380 N.am      12 UNK        -0.5000 
     70 CA         -1.9048  -24.3372  -46.3030 C.3       12 UNK         0.1400 
     71 CB         -1.2930  -24.9044  -45.0146 C.3       12 UNK        -0.1800 
     72 C          -1.3356  -25.0657  -47.5382 C.2       12 UNK         0.5000 
     73 O          -1.9081  -26.0705  -47.9596 O.2       12 UNK        -0.5000 
     74 N          -0.2748  -24.5083  -48.1441 N.am      13 UNK        -0.5000 
     75 CA          0.2972  -24.9555  -49.4188 C.3       13 UNK         0.1400 
     76 CB          1.6017  -24.1861  -49.6749 C.3       13 UNK        -0.1800 
     77 C          -0.6643  -24.7903  -50.6159 C.2       13 UNK         0.5000 
     78 O          -0.5481  -25.5292  -51.5936 O.2       13 UNK        -0.5000 
     79 N          -1.6105  -23.8504  -50.4977 N.am      14 UNK        -0.5000 
     80 CA         -2.6801  -23.5788  -51.4542 C.3       14 UNK         0.1400 
     81 CB         -2.7800  -22.0561  -51.6416 C.3       14 UNK        -0.1800 
     82 C          -4.0266  -24.1613  -50.9815 C.2       14 UNK         0.5000 
     83 O          -5.0691  -23.7410  -51.4849 O.2       14 UNK        -0.5000 
     84 N          -3.9977  -25.0792  -50.0018 N.am      15 UNK        -0.5000 
     85 CA         -5.1513  -25.7092  -49.3507 C.3       15 UNK         0.1400 
     86 CB         -5.8995  -26.6299  -50.3377 C.3       15 UNK        -0.1800 
     87 C          -6.0672  -24.6793  -48.6554 C.2       15 UNK         0.5000 
     88 O          -7.2869  -24.7249  -48.8145 O.2       15 UNK        -0.5000 
     89 N          -5.4386  -23.7521  -47.9170 N.am      16 UNK        -0.5000 
     90 CA         -6.0334  -22.5960  -47.2371 C.3       16 UNK         0.1400 
     91 CB         -7.0800  -23.0219  -46.1858 C.3       16 UNK        -0.1800 
     92 C          -6.5504  -21.5493  -48.2438 C.2       16 UNK         0.5000 
     93 O          -7.6569  -21.0298  -48.0913 O.2       16 UNK        -0.5000 
     94 N          -5.7188  -21.2725  -49.2609 N.am      17 UNK        -0.5000 
     95 CA         -5.9486  -20.3371  -50.3715 C.3       17 UNK         0.1400 
     96 CB         -6.0426  -18.8846  -49.8578 C.3       17 UNK        -0.1800 
     97 C          -7.1329  -20.7245  -51.2856 C.2       17 UNK         0.5000 
     98 O          -7.7274  -19.8521  -51.9215 O.2       17 UNK        -0.5000 
     99 N          -7.4514  -22.0234  -51.3486 N.am      18 UNK        -0.5000 
    100 CA        -8.4873  -22.5798  -52.2161 C.3       18 UNK         0.1400 
    101 CB        -8.9938  -23.9002  -51.6186 C.3       18 UNK        -0.1800 
    102 C         -7.9757  -22.7964  -53.6505 C.2       18 UNK         0.5000 
    103 O         -8.7397  -22.6147  -54.5996 O.2       18 UNK        -0.5000 
    104 N         -6.6989  -23.1791  -53.7877 N.am      19 UNK        -0.5000 
    105 CA        -6.0277  -23.3746  -55.0683 C.3       19 UNK         0.1400 
    106 CB        -4.7708  -24.2346  -54.8581 C.3       19 UNK        -0.1800 
    107 C         -5.6609  -22.0187  -55.6912 C.2       19 UNK         0.5000 
    108 O         -4.8497  -21.2884  -55.1185 O.2       19 UNK        -0.5000 
    109 N         -6.2294  -21.7197  -56.8666 N.am      20 UNK        -0.5000 
    110 CA        -5.9835  -20.4869  -57.6253 C.3       20 UNK         0.1400 
    111 CB        -6.9791  -20.4089  -58.7926 C.3       20 UNK        -0.1800 
    112 C         -4.5352  -20.3571  -58.1404 C.2       20 UNK         0.5000 
    113 O         -4.0473  -19.2404  -58.3154 O.2       20 UNK        -0.5000 
    114 N         -3.8682  -21.5015  -58.3433 N.am      21 UNK        -0.5000 
    115 CA        -2.4521  -21.6040  -58.7015 C.3       21 UNK         0.1400 
    116 CB        -2.2163  -22.9743  -59.3578 C.3       21 UNK        -0.1800 
    117 C         -1.5009  -21.4079  -57.5002 C.2       21 UNK         0.5000 
    118 O         -0.2876  -21.3472  -57.7021 O.2       21 UNK        -0.5000 
    119 N         -2.0514  -21.3271  -56.2800 N.am      22 UNK        -0.5000 
    120 CA        -1.3305  -21.2100  -55.0024 C.3       22 UNK         0.1400 
    121 C         -0.5674  -22.5025  -54.5713 C.2       22 UNK         0.5000 
    122 N         -0.9068  -23.6729  -55.0984 N.am      22 UNK        -0.7600 
    123 O          0.3277  -22.4584  -53.7336 O.2       22 UNK        -0.5000 
    124 C124       -0.4762  -19.9077  -54.8961 C.3       23 UNK        -0.0398 
    125 S125       -0.8922  -18.8978  -53.4327 S.3       23 UNK        -0.2404 
    126 C126        0.3262  -19.4918  -52.2136 C.3       23 UNK        -0.0205 
    127 H127       -2.3788  -14.0387  -49.8899 H         1 UNK         0.0600 
    128 H128       -1.5767  -13.6459  -51.4143 H         1 UNK         0.0600 
    129 H129       -1.1172  -15.0999  -50.5321 H         1 UNK         0.0600 
    130 H130        0.5405  -14.9369  -49.0293 H         1 UNK         0.3000 
    131 H131        2.1655  -12.6275  -48.8502 H         1 UNK         0.0600 
    132 H132        2.2060  -15.0937  -47.0467 H         1 UNK         0.0800 
    133 H133        3.5007  -13.9425  -47.2409 H         1 UNK         0.0800 
    134 H134        2.9391  -17.1695  -47.5509 H         1 UNK         0.0800 
    135 H135        3.7075  -17.7594  -48.9889 H         1 UNK         0.0800 
    136 H136        2.4656  -18.4809  -50.8963 H         1 UNK         0.1150 
    137 H137       -1.8060  -18.7011  -50.6669 H         1 UNK         0.1150 
    138 H138        0.4010  -16.6509  -47.6145 H         1 UNK         0.1150 
    139 H139       -3.0115  -17.4886  -49.0291 H         1 UNK         0.0800 
    140 H140       -2.1757  -16.1331  -48.3231 H         1 UNK         0.0800 
    141 H141       -3.4296  -19.9737  -46.2113 H         1 UNK         0.0800 
    142 H142       -3.5057  -19.6804  -47.9280 H         1 UNK         0.0800 
    143 H143       -1.2355  -20.4020  -48.2809 H         1 UNK         0.0600 
    144 H144       -0.7404  -19.7494  -45.5687 H         1 UNK         0.3000 
    145 H145        2.3172  -21.3851  -45.1532 H         1 UNK         0.0600 
    146 H146        3.3995  -19.1858  -45.0507 H         1 UNK         0.0600 
    147 H147        3.0551  -19.5579  -46.7326 H         1 UNK         0.0600 
    148 H148        2.0269  -18.4240  -45.8555 H         1 UNK         0.0600 
    149 H149        1.3836  -19.2719  -43.6300 H         1 UNK         0.3000 
    150 H150       -0.8181  -19.6618  -42.0073 H         1 UNK         0.0600 
    151 H151       -1.5569  -21.9114  -41.3589 H         1 UNK         0.0600 
    152 H152       -0.8451  -21.1136  -39.9657 H         1 UNK         0.0600 
    153 H153        0.0614  -22.3512  -40.8355 H         1 UNK         0.0600 
    154 H154        1.0023  -18.7535  -41.1341 H         1 UNK         0.3000 
    155 H155        3.8923  -19.7865  -39.6750 H         1 UNK         0.0600 
    156 H156        4.9302  -20.1632  -41.8829 H         1 UNK         0.0600 
    157 H157        5.3039  -18.5401  -41.3264 H         1 UNK         0.0600 
    158 H158        4.0768  -18.7879  -42.5668 H         1 UNK         0.0600 
    159 H159        2.5174  -17.4629  -40.9878 H         1 UNK         0.3000 
    160 H160        2.2107  -15.8331  -37.8258 H         1 UNK         0.0600 
    161 H161        3.9510  -15.0623  -40.2253 H         1 UNK         0.0600 
    162 H162        3.2870  -13.9512  -39.0303 H         1 UNK         0.0600 
    163 H163        4.4842  -15.1446  -38.5520 H         1 UNK         0.0600 
    164 H164        1.4619  -14.9746  -40.4237 H         1 UNK         0.3000 
    165 H165       -1.9226  -16.1867  -40.1762 H         1 UNK         0.0600 
    166 H166       -2.2529  -13.7414  -40.4116 H         1 UNK         0.0600 
    167 H167       -1.6924  -14.1322  -38.7930 H         1 UNK         0.0600 
    168 H168       -0.5749  -13.4416  -39.9648 H         1 UNK         0.0600 
    169 H169        0.0183  -14.8015  -41.9821 H         1 UNK         0.3000 
    170 H170       -0.5218  -17.1586  -44.5647 H         1 UNK         0.0600 
    171 H171       -2.4643  -15.5498  -44.8393 H         1 UNK         0.0600 
    172 H172       -1.3866  -14.2116  -44.4692 H         1 UNK         0.0600 
    173 H173       -1.1297  -15.1844  -45.9185 H         1 UNK         0.0600 
    174 H174        0.9831  -14.7724  -44.5425 H         1 UNK         0.3000 
    175 H175        3.6753  -15.7221  -42.4941 H         1 UNK         0.0600 
    176 H176        3.8206  -15.8219  -45.5472 H         1 UNK         0.0600 
    177 H177        5.1666  -15.4790  -44.4638 H         1 UNK         0.0600 
    178 H178        4.3989  -17.0547  -44.4394 H         1 UNK         0.0600 
    179 H179        3.5774  -13.5858  -44.3022 H         1 UNK         0.3000 
    180 H180        1.9077  -11.2810  -42.1064 H         1 UNK         0.0600 
    181 H181        4.4380  -11.5106  -41.9861 H         1 UNK         0.0600 
    182 H182        4.4955  -11.5828  -43.7444 H         1 UNK         0.0600 
    183 H183        3.9249  -10.1282  -42.9353 H         1 UNK         0.0600 
    184 H184        1.5231  -12.3239  -44.7052 H         1 UNK         0.3000 
    185 H185       -0.4145  -10.7247  -45.7094 H         1 UNK         0.0600 
    186 H186       -0.0739   -8.2786  -45.8961 H         1 UNK         0.0600 
    187 H187        1.3736   -8.5290  -46.8667 H         1 UNK         0.0600 
    188 H188       -0.2081   -9.0038  -47.4869 H         1 UNK         0.0600 
    189 H189        1.4713  -10.8111  -47.8291 H         1 UNK         0.3000 
    190 H190       -1.1166  -22.5037  -45.5998 H         1 UNK         0.3000 
    191 H191       -2.9809  -24.5184  -46.2790 H         1 UNK         0.0600 
    192 H192       -1.4471  -25.9822  -44.9479 H         1 UNK         0.0600 
    193 H193       -1.7486  -24.4557  -44.1316 H         1 UNK         0.0600 
    194 H194       -0.2189  -24.7204  -44.9654 H         1 UNK         0.0600 
    195 H195        0.1292  -23.6701  -47.7427 H         1 UNK         0.3000 
    196 H196        0.5340  -26.0176  -49.3283 H         1 UNK         0.0600 
    197 H197        2.0778  -24.5193  -50.5980 H         1 UNK         0.0600 
    198 H198        2.3166  -24.3388  -48.8661 H         1 UNK         0.0600 
    199 H199        1.4232  -23.1137  -49.7665 H         1 UNK         0.0600 
    200 H200       -1.6644  -23.3235  -49.6345 H         1 UNK         0.3000 
    201 H201       -2.4482  -24.0318  -52.4194 H         1 UNK         0.0600 
    202 H202       -1.8311  -21.6452  -51.9752 H         1 UNK         0.0600 
    203 H203       -3.0412  -21.5493  -50.7138 H         1 UNK         0.0600 
    204 H204       -3.5291  -21.7945  -52.3901 H         1 UNK         0.0600 
    205 H205       -3.0950  -25.3544  -49.6343 H         1 UNK         0.3000 
    206 H206       -4.7499  -26.3402  -48.5565 H         1 UNK         0.0600 
    207 H207       -5.2291  -27.3789  -50.7588 H         1 UNK         0.0600 
    208 H208       -6.7087  -27.1641  -49.8386 H         1 UNK         0.0600 
    209 H209       -6.3371  -26.0728  -51.1656 H         1 UNK         0.0600 
    210 H210       -4.4260  -23.7512  -47.9345 H         1 UNK         0.3000 
    211 H211       -5.2195  -22.1129  -46.6951 H         1 UNK         0.0600 
    212 H212       -7.9766  -23.4398  -46.6440 H         1 UNK         0.0600 
    213 H213       -7.3935  -22.1680  -45.5842 H         1 UNK         0.0600 
    214 H214       -6.6723  -23.7673  -45.5031 H         1 UNK         0.0600 
    215 H215       -4.8407  -21.7740  -49.2856 H         1 UNK         0.3000 
    216 H216       -5.0650  -20.3931  -51.0060 H         1 UNK         0.0600 
    217 H217       -6.0433  -18.1757  -50.6866 H         1 UNK         0.0600 
    218 H218       -5.1967  -18.6314  -49.2210 H         1 UNK         0.0600 
    219 H219       -6.9547  -18.7156  -49.2850 H         1 UNK         0.0600 
    220 H220       -6.8737  -22.6873  -50.8480 H         1 UNK         0.3000 
    221 H221       -9.3291  -21.8855  -52.2590 H         1 UNK         0.0600 
    222 H222       -8.1983  -24.6424  -51.5525 H         1 UNK         0.0600 
    223 H223       -9.3939  -23.7506  -50.6155 H         1 UNK         0.0600 
    224 H224       -9.7915  -24.3255  -52.2287 H         1 UNK         0.0600 
    225 H225       -6.1294  -23.2977  -52.9532 H         1 UNK         0.3000 
    226 H226       -6.6987  -23.9155  -55.7391 H         1 UNK         0.0600 
    227 H227       -5.0184  -25.1893  -54.3937 H         1 UNK         0.0600 
    228 H228       -4.2824  -24.4504  -55.8089 H         1 UNK         0.0600 
    229 H229       -4.0415  -23.7336  -54.2215 H         1 UNK         0.0600 
    230 H230       -6.8982  -22.3642  -57.2640 H         1 UNK         0.3000 
    231 H231       -6.1700  -19.6415  -56.9596 H         1 UNK         0.0600 
    232 H232       -6.8564  -21.2443  -59.4832 H         1 UNK         0.0600 
    233 H233       -8.0087  -20.4164  -58.4344 H         1 UNK         0.0600 
    234 H234       -6.8418  -19.4890  -59.3627 H         1 UNK         0.0600 
    235 H235       -4.3586  -22.3700  -58.1890 H         1 UNK         0.3000 
    236 H236       -2.2163  -20.8292  -59.4339 H         1 UNK         0.0600 
    237 H237       -2.4320  -23.7931  -58.6704 H         1 UNK         0.0600 
    238 H238       -2.8435  -23.1019  -60.2403 H         1 UNK         0.0600 
    239 H239       -1.1801  -23.0818  -59.6812 H         1 UNK         0.0600 
    240 H240       -3.0606  -21.3558  -56.1949 H         1 UNK         0.3000 
    241 H241       -2.1405  -21.1345  -54.2789 H         1 UNK         0.0600 
    242 H242       -0.4153  -24.5017  -54.8030 H         1 UNK         0.3800 
    243 H243       -1.6270  -23.7373  -55.7976 H         1 UNK         0.3800 
    244 H244       -0.6547  -19.2637  -55.7578 H         1 UNK         0.0800 
    245 H245        0.5951  -20.1133  -54.9219 H         1 UNK         0.0800 
    246 H246        0.1274  -20.5322  -51.9622 H         1 UNK         0.0800 
    247 H247        1.3148  -19.4712  -52.6747 H         1 UNK         0.0800 
@<TRIPOS>BOND
     1    1    2 1    
     2    1  127 1    
     3    1  128 1    
     4    1  129 1    
     5    2    3 2    
     6    2    4 am   BACKBONE|DICT|INTERRES
     7    4    5 1    
     8    4  130 1    
     9    5    6 1    
    10    5   65 1    
    11    5  131 1    
    12    6    7 1    
    13    6  132 1    
    14    6  133 1    
    15    7    8 1    
    16    8    9 1    
    17    8  134 1    
    18    8  135 1    
    19    9   10 ar   
    20    9   14 ar   
    21   10   11 ar   
    22   10  136 1    
    23   11   12 ar   
    24   11  126 1    
    25   12   13 ar   
    26   12  137 1    
    27   13   14 ar   
    28   13   15 1    
    29   14  138 1    
    30   15   16 1    
    31   15  139 1    
    32   15  140 1    
    33   16   17 1    
    34   17   18 1    
    35   17  141 1    
    36   17  142 1    
    37   18   19 1    
    38   18   67 1    
    39   18  143 1    
    40   19   20 am   BACKBONE|DICT|INTERRES
    41   19  144 1    
    42   20   21 2    
    43   20   22 1    
    44   22   23 1    
    45   22   24 1    
    46   22  145 1    
    47   23  146 1    
    48   23  147 1    
    49   23  148 1    
    50   24   25 am   BACKBONE|DICT|INTERRES
    51   24  149 1    
    52   25   26 2    
    53   25   27 1    
    54   27   28 1    
    55   27   29 1    
    56   27  150 1    
    57   28  151 1    
    58   28  152 1    
    59   28  153 1    
    60   29   30 am   BACKBONE|DICT|INTERRES
    61   29  154 1    
    62   30   31 2    
    63   30   32 1    
    64   32   33 1    
    65   32   34 1    
    66   32  155 1    
    67   33  156 1    
    68   33  157 1    
    69   33  158 1    
    70   34   35 am   BACKBONE|DICT|INTERRES
    71   34  159 1    
    72   35   36 2    
    73   35   37 1    
    74   37   38 1    
    75   37   39 1    
    76   37  160 1    
    77   38  161 1    
    78   38  162 1    
    79   38  163 1    
    80   39   40 am   BACKBONE|DICT|INTERRES
    81   39  164 1    
    82   40   41 2    
    83   40   42 1    
    84   42   43 1    
    85   42   44 1    
    86   42  165 1    
    87   43  166 1    
    88   43  167 1    
    89   43  168 1    
    90   44   45 am   BACKBONE|DICT|INTERRES
    91   44  169 1    
    92   45   46 2    
    93   45   47 1    
    94   47   48 1    
    95   47   49 1    
    96   47  170 1    
    97   48  171 1    
    98   48  172 1    
    99   48  173 1    
   100   49   50 am   BACKBONE|DICT|INTERRES
   101   49  174 1    
   102   50   51 2    
   103   50   52 1    
   104   52   53 1    
   105   52   54 1    
   106   52  175 1    
   107   53  176 1    
   108   53  177 1    
   109   53  178 1    
   110   54   55 am   BACKBONE|DICT|INTERRES
   111   54  179 1    
   112   55   56 2    
   113   55   57 1    
   114   57   58 1    
   115   57   59 1    
   116   57  180 1    
   117   58  181 1    
   118   58  182 1    
   119   58  183 1    
   120   59   60 am   BACKBONE|DICT|INTERRES
   121   59  184 1    
   122   60   61 2    
   123   60   62 1    
   124   62   63 1    
   125   62   64 1    
   126   62  185 1    
   127   63  186 1    
   128   63  187 1    
   129   63  188 1    
   130   64   65 am   BACKBONE|DICT|INTERRES
   131   64  189 1    
   132   65   66 2    
   133   67   68 2    
   134   67   69 am   BACKBONE|DICT|INTERRES
   135   69   70 1    
   136   69  190 1    
   137   70   71 1    
   138   70   72 1    
   139   70  191 1    
   140   71  192 1    
   141   71  193 1    
   142   71  194 1    
   143   72   73 2    
   144   72   74 am   BACKBONE|DICT|INTERRES
   145   74   75 1    
   146   74  195 1    
   147   75   76 1    
   148   75   77 1    
   149   75  196 1    
   150   76  197 1    
   151   76  198 1    
   152   76  199 1    
   153   77   78 2    
   154   77   79 am   BACKBONE|DICT|INTERRES
   155   79   80 1    
   156   79  200 1    
   157   80   81 1    
   158   80   82 1    
   159   80  201 1    
   160   81  202 1    
   161   81  203 1    
   162   81  204 1    
   163   82   83 2    
   164   82   84 am   BACKBONE|DICT|INTERRES
   165   84   85 1    
   166   84  205 1    
   167   85   86 1    
   168   85   87 1    
   169   85  206 1    
   170   86  207 1    
   171   86  208 1    
   172   86  209 1    
   173   87   88 2    
   174   87   89 am   BACKBONE|DICT|INTERRES
   175   89   90 1    
   176   89  210 1    
   177   90   91 1    
   178   90   92 1    
   179   90  211 1    
   180   91  212 1    
   181   91  213 1    
   182   91  214 1    
   183   92   93 2    
   184   92   94 am   BACKBONE|DICT|INTERRES
   185   94   95 1    
   186   94  215 1    
   187   95   96 1    
   188   95   97 1    
   189   95  216 1    
   190   96  217 1    
   191   96  218 1    
   192   96  219 1    
   193   97   98 2    
   194   97   99 am   BACKBONE|DICT|INTERRES
   195   99  100 1    
   196   99  220 1    
   197  100  101 1    
   198  100  102 1    
   199  100  221 1    
   200  101  222 1    
   201  101  223 1    
   202  101  224 1    
   203  102  103 2    
   204  102  104 am   BACKBONE|DICT|INTERRES
   205  104  105 1    
   206  104  225 1    
   207  105  106 1    
   208  105  107 1    
   209  105  226 1    
   210  106  227 1    
   211  106  228 1    
   212  106  229 1    
   213  107  108 2    
   214  107  109 am   BACKBONE|DICT|INTERRES
   215  109  110 1    
   216  109  230 1    
   217  110  111 1    
   218  110  112 1    
   219  110  231 1    
   220  111  232 1    
   221  111  233 1    
   222  111  234 1    
   223  112  113 2    
   224  112  114 am   BACKBONE|DICT|INTERRES
   225  114  115 1    
   226  114  235 1    
   227  115  116 1    
   228  115  117 1    
   229  115  236 1    
   230  116  237 1    
   231  116  238 1    
   232  116  239 1    
   233  117  118 2    
   234  117  119 am   BACKBONE|DICT|INTERRES
   235  119  120 1    
   236  119  240 1    
   237  120  121 1    
   238  120  124 1    
   239  120  241 1    
   240  121  122 am   BACKBONE|DICT|INTERRES
   241  121  123 2    
   242  122  242 1    
   243  122  243 1    
   244  124  125 1    
   245  124  244 1    
   246  124  245 1    
   247  125  126 1    
   248  126  246 1    
   249  126  247 1    
@<TRIPOS>SUBSTRUCTURE
     1 UNK         1 GROUP             0       ****    0 ROOT    
