@<TRIPOS>MOLECULE
3R540
247   249    1
SMALL
USER_CHARGES


@<TRIPOS>ATOM
      1 CA         -6.3983  -13.8811  -46.4119 C.3       0 UNK        -0.1800 
      2 C          -4.9908  -13.5061  -46.8525 C.2       0 UNK         0.5000 
      3 O          -4.6716  -12.3204  -46.9491 O.2       0 UNK        -0.5000 
      4 N          -4.1400  -14.5078  -47.1063 N.am      1 UNK        -0.5000 
      5 CA         -2.7510  -14.3685  -47.5675 C.3       1 UNK         0.1400 
      6 C6         -2.2797  -15.6216  -48.3500 C.3       23 UNK        -0.0398 
      7 S7         -3.3568  -16.0055  -49.7786 S.3       23 UNK        -0.2404 
      8 C8         -2.3306  -15.4416  -51.1832 C.3       23 UNK        -0.0205 
      9 C9         -1.1868  -16.3711  -51.6024 C.ar      23 UNK        -0.0193 
     10 C10        -0.5271  -16.1085  -52.8069 C.ar      23 UNK        -0.1150 
     11 C11         0.5515  -16.8929  -53.2270 C.ar      23 UNK        -0.0193 
     12 C12         0.9893  -17.9377  -52.4074 C.ar      23 UNK        -0.1150 
     13 C13         0.3294  -18.2405  -51.2154 C.ar      23 UNK        -0.0193 
     14 C14        -0.7627  -17.4580  -50.8274 C.ar      23 UNK        -0.1150 
     15 C15         0.8057  -19.4288  -50.3845 C.3       23 UNK        -0.0205 
     16 S16         0.7952  -19.1320  -48.5873 S.3       23 UNK        -0.2404 
     17 C17        -0.8378  -19.7841  -48.0831 C.3       23 UNK        -0.0398 
     18 CA         -0.7551  -21.2485  -47.5948 C.3       11 UNK         0.1400 
     19 N           0.1588  -21.4232  -46.4611 N.am      11 UNK        -0.5000 
     20 C           0.6232  -22.6100  -46.0495 C.2       10 UNK         0.5000 
     21 O           0.3278  -23.6763  -46.5874 O.2       10 UNK        -0.5000 
     22 CA          1.5301  -22.6171  -44.8064 C.3       10 UNK         0.1400 
     23 CB          2.9610  -22.1891  -45.1647 C.3       10 UNK        -0.1800 
     24 N           1.0119  -21.7769  -43.7262 N.am      10 UNK        -0.5000 
     25 C          -0.1358  -22.0115  -43.0741 C.2       9 UNK         0.5000 
     26 O          -0.8611  -22.9806  -43.2997 O.2       9 UNK        -0.5000 
     27 CA         -0.5681  -20.9745  -42.0201 C.3       9 UNK         0.1400 
     28 CB          0.1871  -21.1892  -40.7002 C.3       9 UNK        -0.1800 
     29 N          -0.3910  -19.5931  -42.4697 N.am      9 UNK        -0.5000 
     30 C          -1.0239  -19.0498  -43.5204 C.2       8 UNK         0.5000 
     31 O          -1.8555  -19.6441  -44.2036 O.2       8 UNK        -0.5000 
     32 CA         -0.6131  -17.6225  -43.9179 C.3       8 UNK         0.1400 
     33 CB         -1.2781  -16.5864  -43.0011 C.3       8 UNK        -0.1800 
     34 N           0.8363  -17.4338  -43.9071 N.am      8 UNK        -0.5000 
     35 C           1.7022  -18.1425  -44.6449 C.2       7 UNK         0.5000 
     36 O           1.3697  -19.0345  -45.4215 O.2       7 UNK        -0.5000 
     37 CA          3.1947  -17.8592  -44.4207 C.3       7 UNK         0.1400 
     38 CB          3.6157  -16.5405  -45.0874 C.3       7 UNK        -0.1800 
     39 N           3.5280  -17.8357  -42.9967 N.am      7 UNK        -0.5000 
     40 C           3.4717  -18.9066  -42.1909 C.2       6 UNK         0.5000 
     41 O           3.1726  -20.0378  -42.5728 O.2       6 UNK        -0.5000 
     42 CA          3.7659  -18.6639  -40.7000 C.3       6 UNK         0.1400 
     43 CB          5.2778  -18.7045  -40.4325 C.3       6 UNK        -0.1800 
     44 N           3.2221  -17.3924  -40.2216 N.am      6 UNK        -0.5000 
     45 C           1.9137  -17.1272  -40.0998 C.2       5 UNK         0.5000 
     46 O           1.0216  -17.9356  -40.3592 O.2       5 UNK        -0.5000 
     47 CA          1.5486  -15.6943  -39.6670 C.3       5 UNK         0.1400 
     48 CB          1.6932  -15.5292  -38.1466 C.3       5 UNK        -0.1800 
     49 N           2.3469  -14.6700  -40.3518 N.am      5 UNK        -0.5000 
     50 C           2.3200  -14.4720  -41.6751 C.2       4 UNK         0.5000 
     51 O           1.6305  -15.1455  -42.4465 O.2       4 UNK        -0.5000 
     52 CA          3.2205  -13.3687  -42.2481 C.3       4 UNK         0.1400 
     53 CB          4.6816  -13.8463  -42.3449 C.3       4 UNK        -0.1800 
     54 N           2.6880  -13.0593  -43.5675 N.am      4 UNK        -0.5000 
     55 C           2.9884  -12.0394  -44.3756 C.2       3 UNK         0.5000 
     56 O           3.8535  -11.1962  -44.1377 O.2       3 UNK        -0.5000 
     57 CA          2.1388  -11.9392  -45.6592 C.3       3 UNK         0.1400 
     58 CB          2.7666  -12.7672  -46.7909 C.3       3 UNK        -0.1800 
     59 N           0.7607  -12.3926  -45.4423 N.am      3 UNK        -0.5000 
     60 C          -0.1508  -11.7355  -44.7140 C.2       2 UNK         0.5000 
     61 O           0.0389  -10.6079  -44.2541 O.2       2 UNK        -0.5000 
     62 CA         -1.4831  -12.4687  -44.4478 C.3       2 UNK         0.1400 
     63 CB         -2.4889  -11.6113  -43.6586 C.3       2 UNK        -0.1800 
     64 N          -2.1385  -12.9434  -45.6664 N.am      2 UNK        -0.5000 
     65 C          -1.8067  -14.0174  -46.3922 C.2       1 UNK         0.5000 
     66 O          -0.8225  -14.7170  -46.1453 O.2       1 UNK        -0.5000 
     67 C          -2.1569  -21.8264  -47.3004 C.2       11 UNK         0.5000 
     68 O          -2.7828  -22.3909  -48.2025 O.2       11 UNK        -0.5000 
     69 N          -2.6112  -21.7238  -46.0419 N.am      12 UNK        -0.5000 
     70 CA         -3.8431  -22.3443  -45.5550 C.3       12 UNK         0.1400 
     71 CB         -4.1882  -21.8298  -44.1503 C.3       12 UNK        -0.1800 
     72 C          -3.7830  -23.8810  -45.5800 C.2       12 UNK         0.5000 
     73 O          -4.7558  -24.5193  -45.9811 O.2       12 UNK        -0.5000 
     74 N          -2.6329  -24.4452  -45.1874 N.am      13 UNK        -0.5000 
     75 CA         -2.3528  -25.8783  -45.2699 C.3       13 UNK         0.1400 
     76 CB         -1.0762  -26.1993  -44.4779 C.3       13 UNK        -0.1800 
     77 C          -2.2405  -26.3778  -46.7235 C.2       13 UNK         0.5000 
     78 O          -2.6775  -27.4925  -47.0122 O.2       13 UNK        -0.5000 
     79 N          -1.6678  -25.5478  -47.6078 N.am      14 UNK        -0.5000 
     80 CA         -1.5006  -25.8333  -49.0319 C.3       14 UNK         0.1400 
     81 CB         -0.5565  -24.8026  -49.6683 C.3       14 UNK        -0.1800 
     82 C          -2.8348  -25.9052  -49.7960 C.2       14 UNK         0.5000 
     83 O          -3.0411  -26.8698  -50.5342 O.2       14 UNK        -0.5000 
     84 N          -3.7176  -24.9127  -49.6022 N.am      15 UNK        -0.5000 
     85 CA         -5.0454  -24.8873  -50.2286 C.3       15 UNK         0.1400 
     86 CB         -4.9423  -24.5779  -51.7363 C.3       15 UNK        -0.1800 
     87 C          -6.0296  -23.9013  -49.5807 C.2       15 UNK         0.5000 
     88 O          -7.2338  -24.1452  -49.6622 O.2       15 UNK        -0.5000 
     89 N          -5.5310  -22.7950  -49.0026 N.am      16 UNK        -0.5000 
     90 CA         -6.3165  -21.6649  -48.4758 C.3       16 UNK         0.1400 
     91 CB         -7.2276  -22.1081  -47.3064 C.3       16 UNK        -0.1800 
     92 C          -7.1154  -20.9124  -49.5657 C.2       16 UNK         0.5000 
     93 O          -8.1641  -20.3374  -49.2678 O.2       16 UNK        -0.5000 
     94 N          -6.6179  -20.9345  -50.8092 N.am      17 UNK        -0.5000 
     95 CA         -7.3169  -20.4319  -51.9920 C.3       17 UNK         0.1400 
     96 CB         -8.1329  -21.5731  -52.6295 C.3       17 UNK        -0.1800 
     97 C          -6.3468  -19.7321  -52.9589 C.2       17 UNK         0.5000 
     98 O          -6.3995  -19.9642  -54.1682 O.2       17 UNK        -0.5000 
     99 N          -5.4848  -18.8747  -52.3913 N.am      18 UNK        -0.5000 
    100 CA        -4.5779  -17.9310  -53.0556 C.3       18 UNK         0.1400 
    101 CB        -5.3697  -16.7051  -53.5572 C.3       18 UNK        -0.1800 
    102 C         -3.7021  -18.5804  -54.1428 C.2       18 UNK         0.5000 
    103 O         -2.7302  -19.2520  -53.8043 O.2       18 UNK        -0.5000 
    104 N         -4.0699  -18.4097  -55.4201 N.am      19 UNK        -0.5000 
    105 CA        -3.3903  -18.9808  -56.5857 C.3       19 UNK         0.1400 
    106 CB        -4.1140  -18.5278  -57.8619 C.3       19 UNK        -0.1800 
    107 C         -3.2665  -20.5173  -56.5532 C.2       19 UNK         0.5000 
    108 O         -2.2664  -21.0499  -57.0359 O.2       19 UNK        -0.5000 
    109 N         -4.2490  -21.1998  -55.9471 N.am      20 UNK        -0.5000 
    110 CA        -4.2290  -22.6498  -55.7429 C.3       20 UNK         0.1400 
    111 CB        -5.6380  -23.1296  -55.3722 C.3       20 UNK        -0.1800 
    112 C         -3.2132  -23.0899  -54.6710 C.2       20 UNK         0.5000 
    113 O         -2.6991  -24.2054  -54.7526 O.2       20 UNK        -0.5000 
    114 N         -2.9359  -22.2110  -53.6969 N.am      21 UNK        -0.5000 
    115 CA        -1.8951  -22.4046  -52.6879 C.3       21 UNK         0.1400 
    116 CB        -2.2392  -21.5858  -51.4322 C.3       21 UNK        -0.1800 
    117 C         -0.5128  -22.0188  -53.2471 C.2       21 UNK         0.5000 
    118 O          0.4776  -22.6727  -52.9207 O.2       21 UNK        -0.5000 
    119 N         -0.4822  -20.9768  -54.0894 N.am      22 UNK        -0.5000 
    120 CA         0.6905  -20.5135  -54.8432 C.3       22 UNK         0.1400 
    121 C          1.2242  -21.5589  -55.8622 C.2       22 UNK         0.5000 
    122 N          0.3636  -22.1556  -56.6781 N.am      22 UNK        -0.7600 
    123 O          2.4199  -21.8343  -55.9098 O.2       22 UNK        -0.5000 
    124 C124        0.4216  -19.1440  -55.5310 C.3       23 UNK        -0.0398 
    125 S125        1.8750  -18.0403  -55.4642 S.3       23 UNK        -0.2404 
    126 C126        1.2262  -16.5840  -54.5639 C.3       23 UNK        -0.0205 
    127 H127       -7.1303  -13.4712  -47.1077 H         1 UNK         0.0600 
    128 H128       -6.5359  -14.9618  -46.3711 H         1 UNK         0.0600 
    129 H129       -6.6020  -13.4741  -45.4215 H         1 UNK         0.0600 
    130 H130       -4.4604  -15.4589  -46.9960 H         1 UNK         0.3000 
    131 H131       -2.7043  -13.5246  -48.2593 H         1 UNK         0.0600 
    132 H132       -2.2622  -16.4956  -47.6966 H         1 UNK         0.0800 
    133 H133       -1.2543  -15.4869  -48.6992 H         1 UNK         0.0800 
    134 H134       -2.9923  -15.2951  -52.0378 H         1 UNK         0.0800 
    135 H135       -1.9192  -14.4589  -50.9486 H         1 UNK         0.0800 
    136 H136       -0.8551  -15.2818  -53.4217 H         1 UNK         0.1150 
    137 H137        1.8389  -18.5334  -52.7065 H         1 UNK         0.1150 
    138 H138       -1.2663  -17.6913  -49.9053 H         1 UNK         0.1150 
    139 H139        0.2082  -20.3051  -50.6264 H         1 UNK         0.0800 
    140 H140        1.8302  -19.6821  -50.6610 H         1 UNK         0.0800 
    141 H141       -1.5345  -19.7022  -48.9186 H         1 UNK         0.0800 
    142 H142       -1.2278  -19.1416  -47.2914 H         1 UNK         0.0800 
    143 H143       -0.3475  -21.8348  -48.4201 H         1 UNK         0.0600 
    144 H144        0.4893  -20.5752  -46.0037 H         1 UNK         0.3000 
    145 H145        1.5712  -23.6436  -44.4361 H         1 UNK         0.0600 
    146 H146        3.6236  -22.2716  -44.3031 H         1 UNK         0.0600 
    147 H147        3.3712  -22.8217  -45.9528 H         1 UNK         0.0600 
    148 H148        2.9999  -21.1587  -45.5178 H         1 UNK         0.0600 
    149 H149        1.5716  -20.9709  -43.4682 H         1 UNK         0.3000 
    150 H150       -1.6323  -21.1243  -41.8276 H         1 UNK         0.0600 
    151 H151        0.0552  -22.2087  -40.3358 H         1 UNK         0.0600 
    152 H152       -0.1779  -20.5164  -39.9240 H         1 UNK         0.0600 
    153 H153        1.2574  -21.0165  -40.8150 H         1 UNK         0.0600 
    154 H154        0.2592  -19.0212  -41.9408 H         1 UNK         0.3000 
    155 H155       -0.9588  -17.4466  -44.9388 H         1 UNK         0.0600 
    156 H156       -0.9479  -16.6904  -41.9671 H         1 UNK         0.0600 
    157 H157       -2.3637  -16.6894  -43.0156 H         1 UNK         0.0600 
    158 H158       -1.0422  -15.5743  -43.3252 H         1 UNK         0.0600 
    159 H159        1.1900  -16.6994  -43.2982 H         1 UNK         0.3000 
    160 H160        3.7619  -18.6680  -44.8865 H         1 UNK         0.0600 
    161 H161        4.6849  -16.3628  -44.9727 H         1 UNK         0.0600 
    162 H162        3.0849  -15.6859  -44.6701 H         1 UNK         0.0600 
    163 H163        3.4034  -16.5633  -46.1571 H         1 UNK         0.0600 
    164 H164        3.7421  -16.9382  -42.5915 H         1 UNK         0.3000 
    165 H165        3.2969  -19.4707  -40.1326 H         1 UNK         0.0600 
    166 H166        5.4923  -18.6082  -39.3680 H         1 UNK         0.0600 
    167 H167        5.7070  -19.6506  -40.7651 H         1 UNK         0.0600 
    168 H168        5.8028  -17.9039  -40.9552 H         1 UNK         0.0600 
    169 H169        3.8855  -16.6680  -39.9899 H         1 UNK         0.3000 
    170 H170        0.5005  -15.5307  -39.9272 H         1 UNK         0.0600 
    171 H171        1.0982  -16.2734  -37.6154 H         1 UNK         0.0600 
    172 H172        2.7283  -15.6445  -37.8232 H         1 UNK         0.0600 
    173 H173        1.3474  -14.5475  -37.8224 H         1 UNK         0.0600 
    174 H174        2.9340  -14.0866  -39.7731 H         1 UNK         0.3000 
    175 H175        3.1507  -12.4825  -41.6147 H         1 UNK         0.0600 
    176 H176        4.7792  -14.7208  -42.9881 H         1 UNK         0.0600 
    177 H177        5.3296  -13.0666  -42.7447 H         1 UNK         0.0600 
    178 H178        5.0730  -14.1146  -41.3631 H         1 UNK         0.0600 
    179 H179        1.9453  -13.6926  -43.8395 H         1 UNK         0.3000 
    180 H180        2.1171  -10.8921  -45.9687 H         1 UNK         0.0600 
    181 H181        2.7924  -13.8299  -46.5472 H         1 UNK         0.0600 
    182 H182        3.7918  -12.4491  -46.9850 H         1 UNK         0.0600 
    183 H183        2.2086  -12.6506  -47.7201 H         1 UNK         0.0600 
    184 H184        0.5072  -13.3105  -45.7956 H         1 UNK         0.3000 
    185 H185       -1.2403  -13.3337  -43.8294 H         1 UNK         0.0600 
    186 H186       -2.0657  -11.2813  -42.7090 H         1 UNK         0.0600 
    187 H187       -2.7833  -10.7217  -44.2169 H         1 UNK         0.0600 
    188 H188       -3.3926  -12.1762  -43.4287 H         1 UNK         0.0600 
    189 H189       -2.9623  -12.4290  -45.9630 H         1 UNK         0.3000 
    190 H190       -2.0803  -21.1842  -45.3639 H         1 UNK         0.3000 
    191 H191       -4.6409  -22.0310  -46.2227 H         1 UNK         0.0600 
    192 H192       -3.4005  -22.0548  -43.4318 H         1 UNK         0.0600 
    193 H193       -5.1082  -22.2861  -43.7829 H         1 UNK         0.0600 
    194 H194       -4.3421  -20.7508  -44.1535 H         1 UNK         0.0600 
    195 H195       -1.8980  -23.8553  -44.8100 H         1 UNK         0.3000 
    196 H196       -3.1827  -26.4107  -44.8003 H         1 UNK         0.0600 
    197 H197       -0.2063  -25.6846  -44.8860 H         1 UNK         0.0600 
    198 H198       -0.8638  -27.2688  -44.4968 H         1 UNK         0.0600 
    199 H199       -1.1770  -25.9055  -43.4329 H         1 UNK         0.0600 
    200 H200       -1.2530  -24.6883  -47.2628 H         1 UNK         0.3000 
    201 H201       -1.0221  -26.8114  -49.1148 H         1 UNK         0.0600 
    202 H202       -0.9579  -23.7946  -49.5960 H         1 UNK         0.0600 
    203 H203       -0.3977  -25.0165  -50.7261 H         1 UNK         0.0600 
    204 H204        0.4204  -24.8095  -49.1846 H         1 UNK         0.0600 
    205 H205       -3.4837  -24.1677  -48.9553 H         1 UNK         0.3000 
    206 H206       -5.4855  -25.8802  -50.1119 H         1 UNK         0.0600 
    207 H207       -5.9236  -24.6178  -52.2110 H         1 UNK         0.0600 
    208 H208       -4.5428  -23.5810  -51.9084 H         1 UNK         0.0600 
    209 H209       -4.3065  -25.2889  -52.2630 H         1 UNK         0.0600 
    210 H210       -4.5243  -22.6729  -48.9481 H         1 UNK         0.3000 
    211 H211       -5.5915  -20.9498  -48.0854 H         1 UNK         0.0600 
    212 H212       -8.1148  -22.6327  -47.6624 H         1 UNK         0.0600 
    213 H213       -7.5713  -21.2455  -46.7347 H         1 UNK         0.0600 
    214 H214       -6.7181  -22.7757  -46.6145 H         1 UNK         0.0600 
    215 H215       -5.7401  -21.4051  -50.9723 H         1 UNK         0.3000 
    216 H216       -8.0229  -19.6520  -51.6992 H         1 UNK         0.0600 
    217 H217       -8.5973  -21.2631  -53.5664 H         1 UNK         0.0600 
    218 H218       -8.9356  -21.8916  -51.9642 H         1 UNK         0.0600 
    219 H219       -7.5149  -22.4464  -52.8315 H         1 UNK         0.0600 
    220 H220       -5.5069  -18.8044  -51.3839 H         1 UNK         0.3000 
    221 H221       -3.8849  -17.5878  -52.2887 H         1 UNK         0.0600 
    222 H222       -6.1610  -16.9820  -54.2547 H         1 UNK         0.0600 
    223 H223       -5.8364  -16.1804  -52.7234 H         1 UNK         0.0600 
    224 H224       -4.7156  -15.9899  -54.0579 H         1 UNK         0.0600 
    225 H225       -4.9100  -17.8815  -55.6049 H         1 UNK         0.3000 
    226 H226       -2.3791  -18.5714  -56.6064 H         1 UNK         0.0600 
    227 H227       -4.1229  -17.4410  -57.9465 H         1 UNK         0.0600 
    228 H228       -3.6181  -18.9176  -58.7519 H         1 UNK         0.0600 
    229 H229       -5.1476  -18.8758  -57.8824 H         1 UNK         0.0600 
    230 H230       -5.0264  -20.6891  -55.5396 H         1 UNK         0.3000 
    231 H231       -3.9458  -23.1252  -56.6845 H         1 UNK         0.0600 
    232 H232       -6.3668  -22.8512  -56.1335 H         1 UNK         0.0600 
    233 H233       -5.9601  -22.7022  -54.4248 H         1 UNK         0.0600 
    234 H234       -5.6683  -24.2151  -55.2697 H         1 UNK         0.0600 
    235 H235       -3.3447  -21.2868  -53.7451 H         1 UNK         0.3000 
    236 H236       -1.8658  -23.4586  -52.4024 H         1 UNK         0.0600 
    237 H237       -1.5364  -21.8044  -50.6310 H         1 UNK         0.0600 
    238 H238       -2.1986  -20.5121  -51.6143 H         1 UNK         0.0600 
    239 H239       -3.2333  -21.8228  -51.0566 H         1 UNK         0.0600 
    240 H240       -1.3378  -20.4448  -54.2137 H         1 UNK         0.3000 
    241 H241        1.4756  -20.3803  -54.0973 H         1 UNK         0.0600 
    242 H242        0.6983  -22.8393  -57.3377 H         1 UNK         0.3800 
    243 H243       -0.6141  -21.8756  -56.6982 H         1 UNK         0.3800 
    244 H244        0.1156  -19.2631  -56.5720 H         1 UNK         0.0800 
    245 H245       -0.4147  -18.6357  -55.0516 H         1 UNK         0.0800 
    246 H246        2.0483  -15.8903  -54.3848 H         1 UNK         0.0800 
    247 H247        0.5257  -16.0685  -55.2229 H         1 UNK         0.0800 
@<TRIPOS>BOND
     1    1    2 1    
     2    1  127 1    
     3    1  128 1    
     4    1  129 1    
     5    2    3 2    
     6    2    4 am   BACKBONE|DICT|INTERRES
     7    4    5 1    
     8    4  130 1    
     9    5    6 1    
    10    5   65 1    
    11    5  131 1    
    12    6    7 1    
    13    6  132 1    
    14    6  133 1    
    15    7    8 1    
    16    8    9 1    
    17    8  134 1    
    18    8  135 1    
    19    9   10 ar   
    20    9   14 ar   
    21   10   11 ar   
    22   10  136 1    
    23   11   12 ar   
    24   11  126 1    
    25   12   13 ar   
    26   12  137 1    
    27   13   14 ar   
    28   13   15 1    
    29   14  138 1    
    30   15   16 1    
    31   15  139 1    
    32   15  140 1    
    33   16   17 1    
    34   17   18 1    
    35   17  141 1    
    36   17  142 1    
    37   18   19 1    
    38   18   67 1    
    39   18  143 1    
    40   19   20 am   BACKBONE|DICT|INTERRES
    41   19  144 1    
    42   20   21 2    
    43   20   22 1    
    44   22   23 1    
    45   22   24 1    
    46   22  145 1    
    47   23  146 1    
    48   23  147 1    
    49   23  148 1    
    50   24   25 am   BACKBONE|DICT|INTERRES
    51   24  149 1    
    52   25   26 2    
    53   25   27 1    
    54   27   28 1    
    55   27   29 1    
    56   27  150 1    
    57   28  151 1    
    58   28  152 1    
    59   28  153 1    
    60   29   30 am   BACKBONE|DICT|INTERRES
    61   29  154 1    
    62   30   31 2    
    63   30   32 1    
    64   32   33 1    
    65   32   34 1    
    66   32  155 1    
    67   33  156 1    
    68   33  157 1    
    69   33  158 1    
    70   34   35 am   BACKBONE|DICT|INTERRES
    71   34  159 1    
    72   35   36 2    
    73   35   37 1    
    74   37   38 1    
    75   37   39 1    
    76   37  160 1    
    77   38  161 1    
    78   38  162 1    
    79   38  163 1    
    80   39   40 am   BACKBONE|DICT|INTERRES
    81   39  164 1    
    82   40   41 2    
    83   40   42 1    
    84   42   43 1    
    85   42   44 1    
    86   42  165 1    
    87   43  166 1    
    88   43  167 1    
    89   43  168 1    
    90   44   45 am   BACKBONE|DICT|INTERRES
    91   44  169 1    
    92   45   46 2    
    93   45   47 1    
    94   47   48 1    
    95   47   49 1    
    96   47  170 1    
    97   48  171 1    
    98   48  172 1    
    99   48  173 1    
   100   49   50 am   BACKBONE|DICT|INTERRES
   101   49  174 1    
   102   50   51 2    
   103   50   52 1    
   104   52   53 1    
   105   52   54 1    
   106   52  175 1    
   107   53  176 1    
   108   53  177 1    
   109   53  178 1    
   110   54   55 am   BACKBONE|DICT|INTERRES
   111   54  179 1    
   112   55   56 2    
   113   55   57 1    
   114   57   58 1    
   115   57   59 1    
   116   57  180 1    
   117   58  181 1    
   118   58  182 1    
   119   58  183 1    
   120   59   60 am   BACKBONE|DICT|INTERRES
   121   59  184 1    
   122   60   61 2    
   123   60   62 1    
   124   62   63 1    
   125   62   64 1    
   126   62  185 1    
   127   63  186 1    
   128   63  187 1    
   129   63  188 1    
   130   64   65 am   BACKBONE|DICT|INTERRES
   131   64  189 1    
   132   65   66 2    
   133   67   68 2    
   134   67   69 am   BACKBONE|DICT|INTERRES
   135   69   70 1    
   136   69  190 1    
   137   70   71 1    
   138   70   72 1    
   139   70  191 1    
   140   71  192 1    
   141   71  193 1    
   142   71  194 1    
   143   72   73 2    
   144   72   74 am   BACKBONE|DICT|INTERRES
   145   74   75 1    
   146   74  195 1    
   147   75   76 1    
   148   75   77 1    
   149   75  196 1    
   150   76  197 1    
   151   76  198 1    
   152   76  199 1    
   153   77   78 2    
   154   77   79 am   BACKBONE|DICT|INTERRES
   155   79   80 1    
   156   79  200 1    
   157   80   81 1    
   158   80   82 1    
   159   80  201 1    
   160   81  202 1    
   161   81  203 1    
   162   81  204 1    
   163   82   83 2    
   164   82   84 am   BACKBONE|DICT|INTERRES
   165   84   85 1    
   166   84  205 1    
   167   85   86 1    
   168   85   87 1    
   169   85  206 1    
   170   86  207 1    
   171   86  208 1    
   172   86  209 1    
   173   87   88 2    
   174   87   89 am   BACKBONE|DICT|INTERRES
   175   89   90 1    
   176   89  210 1    
   177   90   91 1    
   178   90   92 1    
   179   90  211 1    
   180   91  212 1    
   181   91  213 1    
   182   91  214 1    
   183   92   93 2    
   184   92   94 am   BACKBONE|DICT|INTERRES
   185   94   95 1    
   186   94  215 1    
   187   95   96 1    
   188   95   97 1    
   189   95  216 1    
   190   96  217 1    
   191   96  218 1    
   192   96  219 1    
   193   97   98 2    
   194   97   99 am   BACKBONE|DICT|INTERRES
   195   99  100 1    
   196   99  220 1    
   197  100  101 1    
   198  100  102 1    
   199  100  221 1    
   200  101  222 1    
   201  101  223 1    
   202  101  224 1    
   203  102  103 2    
   204  102  104 am   BACKBONE|DICT|INTERRES
   205  104  105 1    
   206  104  225 1    
   207  105  106 1    
   208  105  107 1    
   209  105  226 1    
   210  106  227 1    
   211  106  228 1    
   212  106  229 1    
   213  107  108 2    
   214  107  109 am   BACKBONE|DICT|INTERRES
   215  109  110 1    
   216  109  230 1    
   217  110  111 1    
   218  110  112 1    
   219  110  231 1    
   220  111  232 1    
   221  111  233 1    
   222  111  234 1    
   223  112  113 2    
   224  112  114 am   BACKBONE|DICT|INTERRES
   225  114  115 1    
   226  114  235 1    
   227  115  116 1    
   228  115  117 1    
   229  115  236 1    
   230  116  237 1    
   231  116  238 1    
   232  116  239 1    
   233  117  118 2    
   234  117  119 am   BACKBONE|DICT|INTERRES
   235  119  120 1    
   236  119  240 1    
   237  120  121 1    
   238  120  124 1    
   239  120  241 1    
   240  121  122 am   BACKBONE|DICT|INTERRES
   241  121  123 2    
   242  122  242 1    
   243  122  243 1    
   244  124  125 1    
   245  124  244 1    
   246  124  245 1    
   247  125  126 1    
   248  126  246 1    
   249  126  247 1    
@<TRIPOS>SUBSTRUCTURE
     1 UNK         1 GROUP             0       ****    0 ROOT    
