@<TRIPOS>MOLECULE
3R540
247   249    1
SMALL
USER_CHARGES


@<TRIPOS>ATOM
      1 CA          4.6251  -13.0137  -51.0081 C.3       0 UNK        -0.1800 
      2 C           4.3125  -13.4699  -49.5902 C.2       0 UNK         0.5000 
      3 O           3.2309  -14.0031  -49.3554 O.2       0 UNK        -0.5000 
      4 N           5.2546  -13.2440  -48.6612 N.am      1 UNK        -0.5000 
      5 CA          5.2613  -13.6286  -47.2374 C.3       1 UNK         0.1400 
      6 C6          5.7011  -15.1005  -46.9811 C.3       23 UNK        -0.0398 
      7 S7          4.4853  -16.3925  -47.4154 S.3       23 UNK        -0.2404 
      8 C8          5.1807  -17.0333  -48.9670 C.3       23 UNK        -0.0205 
      9 C9          4.1583  -17.8773  -49.7093 C.ar      23 UNK        -0.0193 
     10 C10         3.3208  -17.2890  -50.6601 C.ar      23 UNK        -0.1150 
     11 C11         2.3810  -18.0547  -51.3553 C.ar      23 UNK        -0.0193 
     12 C12         2.2785  -19.4223  -51.0788 C.ar      23 UNK        -0.1150 
     13 C13         3.0937  -20.0233  -50.1142 C.ar      23 UNK        -0.0193 
     14 C14         4.0468  -19.2444  -49.4468 C.ar      23 UNK        -0.1150 
     15 C15         2.9294  -21.5146  -49.8266 C.3       23 UNK        -0.0205 
     16 S16         3.2070  -21.9970  -48.0864 S.3       23 UNK        -0.2404 
     17 C17         1.9593  -20.9987  -47.2032 C.3       23 UNK        -0.0398 
     18 CA          0.7149  -21.8179  -46.7897 C.3       11 UNK         0.1400 
     19 N           0.0034  -21.2092  -45.6658 N.am      11 UNK        -0.5000 
     20 C          -0.9611  -21.8155  -44.9587 C.2       10 UNK         0.5000 
     21 O          -1.2941  -22.9895  -45.1210 O.2       10 UNK        -0.5000 
     22 CA         -1.7069  -20.9548  -43.9225 C.3       10 UNK         0.1400 
     23 CB         -0.9318  -20.9041  -42.5994 C.3       10 UNK        -0.1800 
     24 N          -1.9523  -19.5921  -44.3943 N.am      10 UNK        -0.5000 
     25 C          -2.7183  -19.2762  -45.4464 C.2       9 UNK         0.5000 
     26 O          -3.3480  -20.1025  -46.1051 O.2       9 UNK        -0.5000 
     27 CA         -2.7412  -17.7970  -45.8679 C.3       9 UNK         0.1400 
     28 CB         -3.7604  -16.9941  -45.0461 C.3       9 UNK        -0.1800 
     29 N          -1.4170  -17.1710  -45.7972 N.am      9 UNK        -0.5000 
     30 C          -0.4118  -17.4874  -46.6258 C.2       8 UNK         0.5000 
     31 O          -0.4826  -18.3772  -47.4733 O.2       8 UNK        -0.5000 
     32 CA          0.8920  -16.6838  -46.4913 C.3       8 UNK         0.1400 
     33 CB          0.7028  -15.2550  -47.0216 C.3       8 UNK        -0.1800 
     34 N           1.4604  -16.6335  -45.1418 N.am      8 UNK        -0.5000 
     35 C           1.7899  -17.6974  -44.3961 C.2       7 UNK         0.5000 
     36 O           1.4800  -18.8554  -44.6768 O.2       7 UNK        -0.5000 
     37 CA          2.6100  -17.4314  -43.1215 C.3       7 UNK         0.1400 
     38 CB          3.5630  -16.2275  -43.2363 C.3       7 UNK        -0.1800 
     39 N           1.6923  -17.2127  -42.0137 N.am      7 UNK        -0.5000 
     40 C           1.3205  -18.1480  -41.1299 C.2       6 UNK         0.5000 
     41 O           1.8410  -19.2612  -41.0513 O.2       6 UNK        -0.5000 
     42 CA          0.1688  -17.7918  -40.1650 C.3       6 UNK         0.1400 
     43 CB          0.7145  -17.5224  -38.7539 C.3       6 UNK        -0.1800 
     44 N          -0.6310  -16.6381  -40.5835 N.am      6 UNK        -0.5000 
     45 C          -1.3709  -16.5613  -41.6991 C.2       5 UNK         0.5000 
     46 O          -1.4969  -17.4852  -42.5002 O.2       5 UNK        -0.5000 
     47 CA         -2.0168  -15.1953  -42.0030 C.3       5 UNK         0.1400 
     48 CB         -3.4384  -15.1297  -41.4261 C.3       5 UNK        -0.1800 
     49 N          -1.2305  -14.0686  -41.4896 N.am      5 UNK        -0.5000 
     50 C           0.0037  -13.7561  -41.9051 C.2       4 UNK         0.5000 
     51 O           0.5946  -14.3538  -42.8103 O.2       4 UNK        -0.5000 
     52 CA          0.7172  -12.6395  -41.1341 C.3       4 UNK         0.1400 
     53 CB          1.2882  -13.1833  -39.8101 C.3       4 UNK        -0.1800 
     54 N           1.7925  -12.1215  -41.9682 N.am      4 UNK        -0.5000 
     55 C           2.4313  -10.9575  -41.8053 C.2       3 UNK         0.5000 
     56 O           2.1967  -10.1676  -40.8898 O.2       3 UNK        -0.5000 
     57 CA          3.5090  -10.6122  -42.8497 C.3       3 UNK         0.1400 
     58 CB          4.8892  -11.0960  -42.3792 C.3       3 UNK        -0.1800 
     59 N           3.2214  -11.2028  -44.1563 N.am      3 UNK        -0.5000 
     60 C           2.2989  -10.7614  -45.0189 C.2       2 UNK         0.5000 
     61 O           1.6320   -9.7428  -44.8284 O.2       2 UNK        -0.5000 
     62 CA          2.0886  -11.6000  -46.3008 C.3       2 UNK         0.1400 
     63 CB          1.3364  -10.8279  -47.3993 C.3       2 UNK        -0.1800 
     64 N           3.3303  -12.1301  -46.8729 N.am      2 UNK        -0.5000 
     65 C           4.0258  -13.1807  -46.4167 C.2       1 UNK         0.5000 
     66 O           3.7423  -13.7539  -45.3642 O.2       1 UNK        -0.5000 
     67 C          -0.2347  -22.0616  -47.9788 C.2       11 UNK         0.5000 
     68 O          -0.2856  -23.1791  -48.4913 O.2       11 UNK        -0.5000 
     69 N          -1.0067  -21.0358  -48.3669 N.am      12 UNK        -0.5000 
     70 CA         -1.9913  -21.0887  -49.4499 C.3       12 UNK         0.1400 
     71 CB         -2.6149  -19.7024  -49.6456 C.3       12 UNK        -0.1800 
     72 C          -3.0918  -22.1410  -49.2328 C.2       12 UNK         0.5000 
     73 O          -3.4783  -22.8149  -50.1859 O.2       12 UNK        -0.5000 
     74 N          -3.5355  -22.3027  -47.9800 N.am      13 UNK        -0.5000 
     75 CA         -4.4935  -23.3215  -47.5479 C.3       13 UNK         0.1400 
     76 CB         -4.9018  -23.0419  -46.0939 C.3       13 UNK        -0.1800 
     77 C          -3.9954  -24.7733  -47.7049 C.2       13 UNK         0.5000 
     78 O          -4.8243  -25.6828  -47.7031 O.2       13 UNK        -0.5000 
     79 N          -2.6777  -24.9716  -47.8423 N.am      14 UNK        -0.5000 
     80 CA         -2.0569  -26.2633  -48.1236 C.3       14 UNK         0.1400 
     81 CB         -0.8359  -26.4483  -47.2080 C.3       14 UNK        -0.1800 
     82 C          -1.6516  -26.3649  -49.6037 C.2       14 UNK         0.5000 
     83 O          -1.9722  -27.3593  -50.2548 O.2       14 UNK        -0.5000 
     84 N          -0.9506  -25.3406  -50.1089 N.am      15 UNK        -0.5000 
     85 CA         -0.3576  -25.3048  -51.4473 C.3       15 UNK         0.1400 
     86 CB          0.6444  -24.1420  -51.5157 C.3       15 UNK        -0.1800 
     87 C          -1.3834  -25.1881  -52.5882 C.2       15 UNK         0.5000 
     88 O          -1.1287  -25.6951  -53.6814 O.2       15 UNK        -0.5000 
     89 N          -2.5120  -24.5238  -52.3214 N.am      16 UNK        -0.5000 
     90 CA         -3.5930  -24.2745  -53.2699 C.3       16 UNK         0.1400 
     91 CB         -3.4793  -22.8301  -53.7906 C.3       16 UNK        -0.1800 
     92 C          -4.9393  -24.5594  -52.5870 C.2       16 UNK         0.5000 
     93 O          -5.8819  -23.7807  -52.7325 O.2       16 UNK        -0.5000 
     94 N          -4.9975  -25.6684  -51.8348 N.am      17 UNK        -0.5000 
     95 CA         -6.0745  -26.0671  -50.9192 C.3       17 UNK         0.1400 
     96 CB         -5.7368  -27.4515  -50.3447 C.3       17 UNK        -0.1800 
     97 C          -7.5040  -26.0757  -51.4982 C.2       17 UNK         0.5000 
     98 O          -8.4591  -25.9068  -50.7398 O.2       17 UNK        -0.5000 
     99 N          -7.6314  -26.2563  -52.8197 N.am      18 UNK        -0.5000 
    100 CA        -8.8978  -26.1936  -53.5524 C.3       18 UNK         0.1400 
    101 CB        -8.6711  -26.7066  -54.9827 C.3       18 UNK        -0.1800 
    102 C         -9.5268  -24.7843  -53.5797 C.2       18 UNK         0.5000 
    103 O        -10.7511  -24.6765  -53.6625 O.2       18 UNK        -0.5000 
    104 N         -8.6885  -23.7415  -53.5118 N.am      19 UNK        -0.5000 
    105 CA        -9.0945  -22.3346  -53.4890 C.3       19 UNK         0.1400 
    106 CB        -8.3756  -21.5958  -54.6300 C.3       19 UNK        -0.1800 
    107 C         -8.7647  -21.6629  -52.1447 C.2       19 UNK         0.5000 
    108 O         -9.4713  -20.7371  -51.7457 O.2       19 UNK        -0.5000 
    109 N         -7.6858  -22.1214  -51.4923 N.am      20 UNK        -0.5000 
    110 CA        -7.0511  -21.5638  -50.2943 C.3       20 UNK         0.1400 
    111 CB        -7.9748  -21.6659  -49.0641 C.3       20 UNK        -0.1800 
    112 C         -6.4797  -20.1475  -50.5231 C.2       20 UNK         0.5000 
    113 O         -6.4067  -19.3475  -49.5896 O.2       20 UNK        -0.5000 
    114 N         -6.0720  -19.8734  -51.7672 N.am      21 UNK        -0.5000 
    115 CA        -5.4545  -18.6360  -52.2202 C.3       21 UNK         0.1400 
    116 CB        -6.5237  -17.7090  -52.8204 C.3       21 UNK        -0.1800 
    117 C         -4.3958  -19.0257  -53.2568 C.2       21 UNK         0.5000 
    118 O         -4.7199  -19.7344  -54.2117 O.2       21 UNK        -0.5000 
    119 N         -3.1523  -18.5936  -53.0301 N.am      22 UNK        -0.5000 
    120 CA        -1.9756  -18.9578  -53.8356 C.3       22 UNK         0.1400 
    121 C         -1.7362  -18.0699  -55.0929 C.2       22 UNK         0.5000 
    122 N         -2.5308  -17.0355  -55.3394 N.am      22 UNK        -0.7600 
    123 O         -0.8224  -18.3351  -55.8691 O.2       22 UNK        -0.5000 
    124 C124       -0.7132  -19.0876  -52.9442 C.3       23 UNK        -0.0398 
    125 S125       -0.2756  -17.5495  -52.0524 S.3       23 UNK        -0.2404 
    126 C126        1.5039  -17.3974  -52.4160 C.3       23 UNK        -0.0205 
    127 H127        5.6093  -12.5500  -51.0796 H         1 UNK         0.0600 
    128 H128        3.8822  -12.2890  -51.3412 H         1 UNK         0.0600 
    129 H129        4.6005  -13.8653  -51.6881 H         1 UNK         0.0600 
    130 H130        6.0968  -12.7718  -48.9599 H         1 UNK         0.3000 
    131 H131        6.0632  -13.0181  -46.8195 H         1 UNK         0.0600 
    132 H132        6.6358  -15.2981  -47.5069 H         1 UNK         0.0800 
    133 H133        5.9407  -15.2289  -45.9243 H         1 UNK         0.0800 
    134 H134        6.0727  -17.6225  -48.7491 H         1 UNK         0.0800 
    135 H135        5.5041  -16.2049  -49.5982 H         1 UNK         0.0800 
    136 H136        3.4057  -16.2304  -50.8602 H         1 UNK         0.1150 
    137 H137        1.5566  -20.0225  -51.6119 H         1 UNK         0.1150 
    138 H138        4.6961  -19.6947  -48.7098 H         1 UNK         0.1150 
    139 H139        1.9290  -21.8409  -50.1124 H         1 UNK         0.0800 
    140 H140        3.6262  -22.0677  -50.4572 H         1 UNK         0.0800 
    141 H141        1.6857  -20.1095  -47.7734 H         1 UNK         0.0800 
    142 H142        2.4627  -20.6267  -46.3109 H         1 UNK         0.0800 
    143 H143        1.0581  -22.7955  -46.4433 H         1 UNK         0.0600 
    144 H144        0.2554  -20.2534  -45.4317 H         1 UNK         0.3000 
    145 H145       -2.6756  -21.4223  -43.7347 H         1 UNK         0.0600 
    146 H146        0.0452  -20.4390  -42.7311 H         1 UNK         0.0600 
    147 H147       -1.4755  -20.3369  -41.8439 H         1 UNK         0.0600 
    148 H148       -0.7684  -21.9065  -42.2021 H         1 UNK         0.0600 
    149 H149       -1.5183  -18.8387  -43.8680 H         1 UNK         0.3000 
    150 H150       -3.0649  -17.7597  -46.9101 H         1 UNK         0.0600 
    151 H151       -4.7679  -17.3823  -45.2004 H         1 UNK         0.0600 
    152 H152       -3.7690  -15.9441  -45.3386 H         1 UNK         0.0600 
    153 H153       -3.5576  -17.0465  -43.9784 H         1 UNK         0.0600 
    154 H154       -1.2673  -16.4710  -45.0863 H         1 UNK         0.3000 
    155 H155        1.6282  -17.1781  -47.1282 H         1 UNK         0.0600 
    156 H156        1.6608  -14.7463  -47.1153 H         1 UNK         0.0600 
    157 H157        0.2492  -15.2604  -48.0138 H         1 UNK         0.0600 
    158 H158        0.0656  -14.6592  -46.3673 H         1 UNK         0.0600 
    159 H159        1.7384  -15.7194  -44.8110 H         1 UNK         0.3000 
    160 H160        3.2242  -18.3168  -42.9445 H         1 UNK         0.0600 
    161 H161        4.1931  -16.3080  -44.1231 H         1 UNK         0.0600 
    162 H162        4.2260  -16.1751  -42.3728 H         1 UNK         0.0600 
    163 H163        3.0288  -15.2798  -43.2929 H         1 UNK         0.0600 
    164 H164        1.1850  -16.3371  -42.0331 H         1 UNK         0.3000 
    165 H165       -0.4942  -18.6580  -40.1190 H         1 UNK         0.0600 
    166 H166       -0.0942  -17.3509  -38.0432 H         1 UNK         0.0600 
    167 H167        1.2910  -18.3729  -38.3877 H         1 UNK         0.0600 
    168 H168        1.3693  -16.6501  -38.7366 H         1 UNK         0.0600 
    169 H169       -0.5856  -15.8241  -39.9895 H         1 UNK         0.3000 
    170 H170       -2.0810  -15.0947  -43.0884 H         1 UNK         0.0600 
    171 H171       -4.0509  -15.9526  -41.7965 H         1 UNK         0.0600 
    172 H172       -3.4347  -15.1894  -40.3370 H         1 UNK         0.0600 
    173 H173       -3.9366  -14.2027  -41.7105 H         1 UNK         0.0600 
    174 H174       -1.6487  -13.5317  -40.7430 H         1 UNK         0.3000 
    175 H175        0.0018  -11.8395  -40.9329 H         1 UNK         0.0600 
    176 H176        2.0095  -13.9832  -39.9838 H         1 UNK         0.0600 
    177 H177        1.7897  -12.4010  -39.2404 H         1 UNK         0.0600 
    178 H178        0.4985  -13.5845  -39.1742 H         1 UNK         0.0600 
    179 H179        2.0156  -12.7084  -42.7625 H         1 UNK         0.3000 
    180 H180        3.5417   -9.5256  -42.9538 H         1 UNK         0.0600 
    181 H181        4.9203  -12.1812  -42.2715 H         1 UNK         0.0600 
    182 H182        5.1466  -10.6617  -41.4123 H         1 UNK         0.0600 
    183 H183        5.6694  -10.8063  -43.0834 H         1 UNK         0.0600 
    184 H184        3.6844  -12.0774  -44.3823 H         1 UNK         0.3000 
    185 H185        1.4624  -12.4458  -46.0106 H         1 UNK         0.0600 
    186 H186        1.8938   -9.9491  -47.7254 H         1 UNK         0.0600 
    187 H187        1.1608  -11.4579  -48.2718 H         1 UNK         0.0600 
    188 H188        0.3611  -10.4894  -47.0472 H         1 UNK         0.0600 
    189 H189        3.6459  -11.6972  -47.7281 H         1 UNK         0.3000 
    190 H190       -0.8892  -20.1321  -47.9124 H         1 UNK         0.3000 
    191 H191       -1.4574  -21.3579  -50.3629 H         1 UNK         0.0600 
    192 H192       -3.1576  -19.3749  -48.7590 H         1 UNK         0.0600 
    193 H193       -3.3223  -19.7167  -50.4721 H         1 UNK         0.0600 
    194 H194       -1.8565  -18.9531  -49.8703 H         1 UNK         0.0600 
    195 H195       -3.2151  -21.6538  -47.2661 H         1 UNK         0.3000 
    196 H196       -5.3842  -23.2260  -48.1697 H         1 UNK         0.0600 
    197 H197       -5.6335  -23.7708  -45.7434 H         1 UNK         0.0600 
    198 H198       -5.3554  -22.0555  -45.9953 H         1 UNK         0.0600 
    199 H199       -4.0448  -23.0859  -45.4215 H         1 UNK         0.0600 
    200 H200       -2.0617  -24.1678  -47.8357 H         1 UNK         0.3000 
    201 H201       -2.7541  -27.0771  -47.9134 H         1 UNK         0.0600 
    202 H202       -1.1289  -26.4324  -46.1581 H         1 UNK         0.0600 
    203 H203       -0.0913  -25.6653  -47.3555 H         1 UNK         0.0600 
    204 H204       -0.3484  -27.4057  -47.3960 H         1 UNK         0.0600 
    205 H205       -0.7197  -24.5568  -49.4999 H         1 UNK         0.3000 
    206 H206        0.1928  -26.2363  -51.5947 H         1 UNK         0.0600 
    207 H207        0.1533  -23.1808  -51.3595 H         1 UNK         0.0600 
    208 H208        1.4222  -24.2485  -50.7592 H         1 UNK         0.0600 
    209 H209        1.1386  -24.1052  -52.4874 H         1 UNK         0.0600 
    210 H210       -2.6581  -24.1319  -51.3947 H         1 UNK         0.3000 
    211 H211       -3.5256  -24.9567  -54.1194 H         1 UNK         0.0600 
    212 H212       -3.5699  -22.1063  -52.9797 H         1 UNK         0.0600 
    213 H213       -4.2607  -22.6091  -54.5187 H         1 UNK         0.0600 
    214 H214       -2.5214  -22.6621  -54.2824 H         1 UNK         0.0600 
    215 H215       -4.1635  -26.2374  -51.7949 H         1 UNK         0.3000 
    216 H216       -6.0730  -25.3443  -50.1015 H         1 UNK         0.0600 
    217 H217       -6.4826  -27.7651  -49.6131 H         1 UNK         0.0600 
    218 H218       -4.7728  -27.4458  -49.8365 H         1 UNK         0.0600 
    219 H219       -5.6993  -28.2121  -51.1255 H         1 UNK         0.0600 
    220 H220       -6.7938  -26.3904  -53.3664 H         1 UNK         0.3000 
    221 H221       -9.6072  -26.8610  -53.0586 H         1 UNK         0.0600 
    222 H222       -7.9517  -26.0891  -55.5222 H         1 UNK         0.0600 
    223 H223       -8.3004  -27.7318  -54.9806 H         1 UNK         0.0600 
    224 H224       -9.6015  -26.7000  -55.5521 H         1 UNK         0.0600 
    225 H225       -7.6949  -23.9255  -53.4169 H         1 UNK         0.3000 
    226 H226      -10.1707  -22.2391  -53.6465 H         1 UNK         0.0600 
    227 H227       -8.6475  -22.0125  -55.5999 H         1 UNK         0.0600 
    228 H228       -8.6437  -20.5385  -54.6434 H         1 UNK         0.0600 
    229 H229       -7.2906  -21.6582  -54.5318 H         1 UNK         0.0600 
    230 H230       -7.1386  -22.8505  -51.9459 H         1 UNK         0.3000 
    231 H231       -6.1863  -22.1997  -50.1071 H         1 UNK         0.0600 
    232 H232       -7.4411  -21.3947  -48.1524 H         1 UNK         0.0600 
    233 H233       -8.3431  -22.6835  -48.9330 H         1 UNK         0.0600 
    234 H234       -8.8365  -21.0033  -49.1473 H         1 UNK         0.0600 
    235 H235       -6.1267  -20.5988  -52.4700 H         1 UNK         0.3000 
    236 H236       -4.9718  -18.1272  -51.3830 H         1 UNK         0.0600 
    237 H237       -6.0782  -16.7816  -53.1819 H         1 UNK         0.0600 
    238 H238       -7.2745  -17.4426  -52.0762 H         1 UNK         0.0600 
    239 H239       -7.0388  -18.1782  -53.6598 H         1 UNK         0.0600 
    240 H240       -2.9647  -17.9892  -52.2431 H         1 UNK         0.3000 
    241 H241       -2.1561  -19.9553  -54.2411 H         1 UNK         0.0600 
    242 H242       -2.3719  -16.4711  -56.1592 H         1 UNK         0.3800 
    243 H243       -3.2873  -16.8108  -54.7141 H         1 UNK         0.3800 
    244 H244       -0.8773  -19.8666  -52.2000 H         1 UNK         0.0800 
    245 H245        0.1310  -19.4354  -53.5412 H         1 UNK         0.0800 
    246 H246        1.7360  -17.8148  -53.3964 H         1 UNK         0.0800 
    247 H247        1.7352  -16.3333  -52.4853 H         1 UNK         0.0800 
@<TRIPOS>BOND
     1    1    2 1    
     2    1  127 1    
     3    1  128 1    
     4    1  129 1    
     5    2    3 2    
     6    2    4 am   BACKBONE|DICT|INTERRES
     7    4    5 1    
     8    4  130 1    
     9    5    6 1    
    10    5   65 1    
    11    5  131 1    
    12    6    7 1    
    13    6  132 1    
    14    6  133 1    
    15    7    8 1    
    16    8    9 1    
    17    8  134 1    
    18    8  135 1    
    19    9   10 ar   
    20    9   14 ar   
    21   10   11 ar   
    22   10  136 1    
    23   11   12 ar   
    24   11  126 1    
    25   12   13 ar   
    26   12  137 1    
    27   13   14 ar   
    28   13   15 1    
    29   14  138 1    
    30   15   16 1    
    31   15  139 1    
    32   15  140 1    
    33   16   17 1    
    34   17   18 1    
    35   17  141 1    
    36   17  142 1    
    37   18   19 1    
    38   18   67 1    
    39   18  143 1    
    40   19   20 am   BACKBONE|DICT|INTERRES
    41   19  144 1    
    42   20   21 2    
    43   20   22 1    
    44   22   23 1    
    45   22   24 1    
    46   22  145 1    
    47   23  146 1    
    48   23  147 1    
    49   23  148 1    
    50   24   25 am   BACKBONE|DICT|INTERRES
    51   24  149 1    
    52   25   26 2    
    53   25   27 1    
    54   27   28 1    
    55   27   29 1    
    56   27  150 1    
    57   28  151 1    
    58   28  152 1    
    59   28  153 1    
    60   29   30 am   BACKBONE|DICT|INTERRES
    61   29  154 1    
    62   30   31 2    
    63   30   32 1    
    64   32   33 1    
    65   32   34 1    
    66   32  155 1    
    67   33  156 1    
    68   33  157 1    
    69   33  158 1    
    70   34   35 am   BACKBONE|DICT|INTERRES
    71   34  159 1    
    72   35   36 2    
    73   35   37 1    
    74   37   38 1    
    75   37   39 1    
    76   37  160 1    
    77   38  161 1    
    78   38  162 1    
    79   38  163 1    
    80   39   40 am   BACKBONE|DICT|INTERRES
    81   39  164 1    
    82   40   41 2    
    83   40   42 1    
    84   42   43 1    
    85   42   44 1    
    86   42  165 1    
    87   43  166 1    
    88   43  167 1    
    89   43  168 1    
    90   44   45 am   BACKBONE|DICT|INTERRES
    91   44  169 1    
    92   45   46 2    
    93   45   47 1    
    94   47   48 1    
    95   47   49 1    
    96   47  170 1    
    97   48  171 1    
    98   48  172 1    
    99   48  173 1    
   100   49   50 am   BACKBONE|DICT|INTERRES
   101   49  174 1    
   102   50   51 2    
   103   50   52 1    
   104   52   53 1    
   105   52   54 1    
   106   52  175 1    
   107   53  176 1    
   108   53  177 1    
   109   53  178 1    
   110   54   55 am   BACKBONE|DICT|INTERRES
   111   54  179 1    
   112   55   56 2    
   113   55   57 1    
   114   57   58 1    
   115   57   59 1    
   116   57  180 1    
   117   58  181 1    
   118   58  182 1    
   119   58  183 1    
   120   59   60 am   BACKBONE|DICT|INTERRES
   121   59  184 1    
   122   60   61 2    
   123   60   62 1    
   124   62   63 1    
   125   62   64 1    
   126   62  185 1    
   127   63  186 1    
   128   63  187 1    
   129   63  188 1    
   130   64   65 am   BACKBONE|DICT|INTERRES
   131   64  189 1    
   132   65   66 2    
   133   67   68 2    
   134   67   69 am   BACKBONE|DICT|INTERRES
   135   69   70 1    
   136   69  190 1    
   137   70   71 1    
   138   70   72 1    
   139   70  191 1    
   140   71  192 1    
   141   71  193 1    
   142   71  194 1    
   143   72   73 2    
   144   72   74 am   BACKBONE|DICT|INTERRES
   145   74   75 1    
   146   74  195 1    
   147   75   76 1    
   148   75   77 1    
   149   75  196 1    
   150   76  197 1    
   151   76  198 1    
   152   76  199 1    
   153   77   78 2    
   154   77   79 am   BACKBONE|DICT|INTERRES
   155   79   80 1    
   156   79  200 1    
   157   80   81 1    
   158   80   82 1    
   159   80  201 1    
   160   81  202 1    
   161   81  203 1    
   162   81  204 1    
   163   82   83 2    
   164   82   84 am   BACKBONE|DICT|INTERRES
   165   84   85 1    
   166   84  205 1    
   167   85   86 1    
   168   85   87 1    
   169   85  206 1    
   170   86  207 1    
   171   86  208 1    
   172   86  209 1    
   173   87   88 2    
   174   87   89 am   BACKBONE|DICT|INTERRES
   175   89   90 1    
   176   89  210 1    
   177   90   91 1    
   178   90   92 1    
   179   90  211 1    
   180   91  212 1    
   181   91  213 1    
   182   91  214 1    
   183   92   93 2    
   184   92   94 am   BACKBONE|DICT|INTERRES
   185   94   95 1    
   186   94  215 1    
   187   95   96 1    
   188   95   97 1    
   189   95  216 1    
   190   96  217 1    
   191   96  218 1    
   192   96  219 1    
   193   97   98 2    
   194   97   99 am   BACKBONE|DICT|INTERRES
   195   99  100 1    
   196   99  220 1    
   197  100  101 1    
   198  100  102 1    
   199  100  221 1    
   200  101  222 1    
   201  101  223 1    
   202  101  224 1    
   203  102  103 2    
   204  102  104 am   BACKBONE|DICT|INTERRES
   205  104  105 1    
   206  104  225 1    
   207  105  106 1    
   208  105  107 1    
   209  105  226 1    
   210  106  227 1    
   211  106  228 1    
   212  106  229 1    
   213  107  108 2    
   214  107  109 am   BACKBONE|DICT|INTERRES
   215  109  110 1    
   216  109  230 1    
   217  110  111 1    
   218  110  112 1    
   219  110  231 1    
   220  111  232 1    
   221  111  233 1    
   222  111  234 1    
   223  112  113 2    
   224  112  114 am   BACKBONE|DICT|INTERRES
   225  114  115 1    
   226  114  235 1    
   227  115  116 1    
   228  115  117 1    
   229  115  236 1    
   230  116  237 1    
   231  116  238 1    
   232  116  239 1    
   233  117  118 2    
   234  117  119 am   BACKBONE|DICT|INTERRES
   235  119  120 1    
   236  119  240 1    
   237  120  121 1    
   238  120  124 1    
   239  120  241 1    
   240  121  122 am   BACKBONE|DICT|INTERRES
   241  121  123 2    
   242  122  242 1    
   243  122  243 1    
   244  124  125 1    
   245  124  244 1    
   246  124  245 1    
   247  125  126 1    
   248  126  246 1    
   249  126  247 1    
@<TRIPOS>SUBSTRUCTURE
     1 UNK         1 GROUP             0       ****    0 ROOT    
