@<TRIPOS>MOLECULE
3R540
247   249    1
SMALL
USER_CHARGES


@<TRIPOS>ATOM
      1 CA         -2.7321   -7.7216  -47.1116 C.3       0 UNK        -0.1800 
      2 C          -2.3109   -9.1518  -46.8064 C.2       0 UNK         0.5000 
      3 O          -1.1629   -9.3867  -46.4262 O.2       0 UNK        -0.5000 
      4 N          -3.2333  -10.1105  -46.9608 N.am      1 UNK        -0.5000 
      5 CA         -3.0310  -11.5401  -46.6991 C.3       1 UNK         0.1400 
      6 C6         -3.9880  -12.4078  -47.5590 C.3       23 UNK        -0.0398 
      7 S7         -3.2812  -14.0475  -47.9387 S.3       23 UNK        -0.2404 
      8 C8         -3.0296  -13.8995  -49.7361 C.3       23 UNK        -0.0205 
      9 C9         -2.5225  -15.1993  -50.3394 C.ar      23 UNK        -0.0193 
     10 C10        -1.2084  -15.3071  -50.8043 C.ar      23 UNK        -0.1150 
     11 C11        -0.7445  -16.4977  -51.3745 C.ar      23 UNK        -0.0193 
     12 C12        -1.6093  -17.5982  -51.4367 C.ar      23 UNK        -0.1150 
     13 C13        -2.9273  -17.5015  -50.9862 C.ar      23 UNK        -0.0193 
     14 C14        -3.3816  -16.2942  -50.4511 C.ar      23 UNK        -0.1150 
     15 C15        -3.8566  -18.7038  -51.0801 C.3       23 UNK        -0.0205 
     16 S16        -4.5329  -19.1808  -49.4586 S.3       23 UNK        -0.2404 
     17 C17        -3.0190  -19.4819  -48.4813 C.3       23 UNK        -0.0398 
     18 CA         -3.0155  -20.8449  -47.7476 C.3       11 UNK         0.1400 
     19 N          -1.7045  -21.1649  -47.1811 N.am      11 UNK        -0.5000 
     20 C          -1.3898  -22.3096  -46.5565 C.2       10 UNK         0.5000 
     21 O          -2.1573  -23.2648  -46.4455 O.2       10 UNK        -0.5000 
     22 CA         -0.0056  -22.3772  -45.8896 C.3       10 UNK         0.1400 
     23 CB          1.0766  -22.7449  -46.9155 C.3       10 UNK        -0.1800 
     24 N           0.3488  -21.1290  -45.2102 N.am      10 UNK        -0.5000 
     25 C          -0.3324  -20.6033  -44.1804 C.2       9 UNK         0.5000 
     26 O          -1.2999  -21.1503  -43.6522 O.2       9 UNK        -0.5000 
     27 CA          0.0996  -19.2073  -43.6966 C.3       9 UNK         0.1400 
     28 CB          1.3516  -19.2928  -42.8119 C.3       9 UNK        -0.1800 
     29 N           0.3370  -18.2855  -44.8078 N.am      9 UNK        -0.5000 
     30 C          -0.6044  -17.8743  -45.6690 C.2       8 UNK         0.5000 
     31 O          -1.7969  -18.1567  -45.5550 O.2       8 UNK        -0.5000 
     32 CA         -0.1261  -17.0621  -46.8891 C.3       8 UNK         0.1400 
     33 CB         -0.0161  -15.5646  -46.5683 C.3       8 UNK        -0.1800 
     34 N           1.1562  -17.5490  -47.4002 N.am      8 UNK        -0.5000 
     35 C           1.3086  -18.7187  -48.0358 C.2       7 UNK         0.5000 
     36 O           0.3756  -19.4794  -48.2847 O.2       7 UNK        -0.5000 
     37 CA          2.7447  -19.1324  -48.4060 C.3       7 UNK         0.1400 
     38 CB          3.1724  -18.5092  -49.7404 C.3       7 UNK        -0.1800 
     39 N           3.7156  -18.7779  -47.3703 N.am      7 UNK        -0.5000 
     40 C           3.7832  -19.3778  -46.1743 C.2       6 UNK         0.5000 
     41 O           3.0463  -20.3016  -45.8335 O.2       6 UNK        -0.5000 
     42 CA          4.8171  -18.8262  -45.1755 C.3       6 UNK         0.1400 
     43 CB          6.1900  -19.4747  -45.4072 C.3       6 UNK        -0.1800 
     44 N           4.9555  -17.3668  -45.2108 N.am      6 UNK        -0.5000 
     45 C           3.9648  -16.5026  -44.9568 C.2       5 UNK         0.5000 
     46 O           2.7975  -16.8396  -44.7471 O.2       5 UNK        -0.5000 
     47 CA          4.3237  -15.0093  -44.9917 C.3       5 UNK         0.1400 
     48 CB          4.0479  -14.4287  -46.3874 C.3       5 UNK        -0.1800 
     49 N           3.5302  -14.2784  -44.0068 N.am      5 UNK        -0.5000 
     50 C           3.7850  -14.2505  -42.6912 C.2       4 UNK         0.5000 
     51 O           4.7911  -14.7407  -42.1769 O.2       4 UNK        -0.5000 
     52 CA          2.7301  -13.5675  -41.8014 C.3       4 UNK         0.1400 
     53 CB          3.0061  -12.0600  -41.6908 C.3       4 UNK        -0.1800 
     54 N           1.3736  -13.7685  -42.3116 N.am      4 UNK        -0.5000 
     55 C           0.6538  -14.8881  -42.1482 C.2       3 UNK         0.5000 
     56 O           1.0394  -15.8506  -41.4844 O.2       3 UNK        -0.5000 
     57 CA         -0.7150  -14.9418  -42.8626 C.3       3 UNK         0.1400 
     58 CB         -1.7581  -15.8012  -42.1174 C.3       3 UNK        -0.1800 
     59 N          -1.2498  -13.6154  -43.2064 N.am      3 UNK        -0.5000 
     60 C          -1.6749  -12.6657  -42.3579 C.2       2 UNK         0.5000 
     61 O          -1.7073  -12.8049  -41.1350 O.2       2 UNK        -0.5000 
     62 CA         -2.0981  -11.3112  -42.9637 C.3       2 UNK         0.1400 
     63 CB         -1.1410  -10.1975  -42.5066 C.3       2 UNK        -0.1800 
     64 N          -2.1554  -11.2903  -44.4279 N.am      2 UNK        -0.5000 
     65 C          -3.1248  -11.8247  -45.1808 C.2       1 UNK         0.5000 
     66 O          -4.0679  -12.4645  -44.7132 O.2       1 UNK        -0.5000 
     67 C          -4.1270  -20.9167  -46.6829 C.2       11 UNK         0.5000 
     68 O          -5.1221  -21.6089  -46.9000 O.2       11 UNK        -0.5000 
     69 N          -3.9174  -20.2363  -45.5478 N.am      12 UNK        -0.5000 
     70 CA         -4.8410  -20.2142  -44.4148 C.3       12 UNK         0.1400 
     71 CB         -4.3493  -19.1901  -43.3797 C.3       12 UNK        -0.1800 
     72 C          -5.0410  -21.5985  -43.7687 C.2       12 UNK         0.5000 
     73 O          -6.1704  -21.9474  -43.4236 O.2       12 UNK        -0.5000 
     74 N          -3.9491  -22.3612  -43.6274 N.am      13 UNK        -0.5000 
     75 CA         -3.9411  -23.6948  -43.0301 C.3       13 UNK         0.1400 
     76 CB         -2.4939  -24.0994  -42.7086 C.3       13 UNK        -0.1800 
     77 C          -4.6176  -24.7617  -43.9096 C.2       13 UNK         0.5000 
     78 O          -5.4326  -25.5342  -43.4034 O.2       13 UNK        -0.5000 
     79 N          -4.2537  -24.8044  -45.1978 N.am      14 UNK        -0.5000 
     80 CA         -4.6551  -25.8636  -46.1277 C.3       14 UNK         0.1400 
     81 CB         -3.4812  -26.1460  -47.0756 C.3       14 UNK        -0.1800 
     82 C          -5.9186  -25.5342  -46.9416 C.2       14 UNK         0.5000 
     83 O          -6.3575  -26.3851  -47.7155 O.2       14 UNK        -0.5000 
     84 N          -6.4556  -24.3141  -46.7944 N.am      15 UNK        -0.5000 
     85 CA         -7.5462  -23.7327  -47.5870 C.3       15 UNK         0.1400 
     86 CB         -8.8719  -24.4922  -47.3692 C.3       15 UNK        -0.1800 
     87 C          -7.1409  -23.6095  -49.0705 C.2       15 UNK         0.5000 
     88 O          -7.7928  -24.1673  -49.9539 O.2       15 UNK        -0.5000 
     89 N          -6.0176  -22.9129  -49.2882 N.am      16 UNK        -0.5000 
     90 CA         -5.3429  -22.6066  -50.5568 C.3       16 UNK         0.1400 
     91 CB         -6.2774  -21.8620  -51.5294 C.3       16 UNK        -0.1800 
     92 C          -4.6421  -23.7902  -51.2500 C.2       16 UNK         0.5000 
     93 O          -3.7939  -23.5439  -52.1065 O.2       16 UNK        -0.5000 
     94 N          -4.9542  -25.0371  -50.8711 N.am      17 UNK        -0.5000 
     95 CA         -4.4652  -26.2613  -51.5171 C.3       17 UNK         0.1400 
     96 CB         -5.1384  -27.4763  -50.8624 C.3       17 UNK        -0.1800 
     97 C          -2.9318  -26.4280  -51.5134 C.2       17 UNK         0.5000 
     98 O          -2.3795  -26.9784  -52.4662 O.2       17 UNK        -0.5000 
     99 N          -2.2742  -25.9308  -50.4586 N.am      18 UNK        -0.5000 
    100 CA        -0.8188  -25.9611  -50.2911 C.3       18 UNK         0.1400 
    101 CB        -0.5006  -26.1344  -48.7968 C.3       18 UNK        -0.1800 
    102 C         -0.1173  -24.7046  -50.8457 C.2       18 UNK         0.5000 
    103 O          1.1106  -24.6350  -50.7835 O.2       18 UNK        -0.5000 
    104 N         -0.8854  -23.7291  -51.3490 N.am      19 UNK        -0.5000 
    105 CA        -0.4001  -22.4116  -51.7631 C.3       19 UNK         0.1400 
    106 CB        -0.8124  -21.3862  -50.6993 C.3       19 UNK        -0.1800 
    107 C         -0.9007  -22.0303  -53.1674 C.2       19 UNK         0.5000 
    108 O         -0.9403  -20.8463  -53.5048 O.2       19 UNK        -0.5000 
    109 N         -1.2493  -23.0380  -53.9808 N.am      20 UNK        -0.5000 
    110 CA        -1.7539  -22.8882  -55.3500 C.3       20 UNK         0.1400 
    111 CB        -2.1782  -24.2673  -55.8761 C.3       20 UNK        -0.1800 
    112 C         -0.7524  -22.2197  -56.3152 C.2       20 UNK         0.5000 
    113 O         -1.1697  -21.6101  -57.3013 O.2       20 UNK        -0.5000 
    114 N          0.5455  -22.3017  -55.9863 N.am      21 UNK        -0.5000 
    115 CA         1.6576  -21.6474  -56.6798 C.3       21 UNK         0.1400 
    116 CB         2.9753  -22.0933  -56.0273 C.3       21 UNK        -0.1800 
    117 C          1.5683  -20.1064  -56.7139 C.2       21 UNK         0.5000 
    118 O          2.1814  -19.4927  -57.5885 O.2       21 UNK        -0.5000 
    119 N          0.7997  -19.5095  -55.7917 N.am      22 UNK        -0.5000 
    120 CA         0.4603  -18.0772  -55.7910 C.3       22 UNK         0.1400 
    121 C         -0.5299  -17.6573  -56.9203 C.2       22 UNK         0.5000 
    122 N         -1.1886  -18.5766  -57.6189 N.am      22 UNK        -0.7600 
    123 O         -0.6990  -16.4676  -57.1732 O.2       22 UNK        -0.5000 
    124 C124       -0.0740  -17.6115  -54.4135 C.3       23 UNK        -0.0398 
    125 S125        1.0908  -17.9197  -53.0397 S.3       23 UNK        -0.2404 
    126 C126        0.6922  -16.5425  -51.9018 C.3       23 UNK        -0.0205 
    127 H127       -2.6196   -7.1003  -46.2231 H         1 UNK         0.0600 
    128 H128       -3.7711   -7.6653  -47.4371 H         1 UNK         0.0600 
    129 H129       -2.1053   -7.3066  -47.9009 H         1 UNK         0.0600 
    130 H130       -4.1680   -9.8473  -47.2398 H         1 UNK         0.3000 
    131 H131       -2.0100  -11.7818  -47.0041 H         1 UNK         0.0600 
    132 H132       -4.1926  -11.9032  -48.5042 H         1 UNK         0.0800 
    133 H133       -4.9658  -12.5337  -47.0913 H         1 UNK         0.0800 
    134 H134       -2.3333  -13.0835  -49.9362 H         1 UNK         0.0800 
    135 H135       -3.9720  -13.6303  -50.2156 H         1 UNK         0.0800 
    136 H136       -0.5456  -14.4560  -50.7324 H         1 UNK         0.1150 
    137 H137       -1.2701  -18.5358  -51.8497 H         1 UNK         0.1150 
    138 H138       -4.4006  -16.2134  -50.0991 H         1 UNK         0.1150 
    139 H139       -3.3473  -19.5612  -51.5225 H         1 UNK         0.0800 
    140 H140       -4.6832  -18.4607  -51.7487 H         1 UNK         0.0800 
    141 H141       -2.9102  -18.6550  -47.7811 H         1 UNK         0.0800 
    142 H142       -2.1531  -19.4210  -49.1390 H         1 UNK         0.0800 
    143 H143       -3.2166  -21.6253  -48.4817 H         1 UNK         0.0600 
    144 H144       -0.9822  -20.4588  -47.2874 H         1 UNK         0.3000 
    145 H145       -0.0396  -23.1663  -45.1359 H         1 UNK         0.0600 
    146 H146        2.0484  -22.8649  -46.4367 H         1 UNK         0.0600 
    147 H147        0.8421  -23.6864  -47.4128 H         1 UNK         0.0600 
    148 H148        1.1772  -21.9842  -47.6891 H         1 UNK         0.0600 
    149 H149        1.1779  -20.6485  -45.5482 H         1 UNK         0.3000 
    150 H150       -0.7140  -18.8005  -43.0941 H         1 UNK         0.0600 
    151 H151        2.1989  -19.7182  -43.3482 H         1 UNK         0.0600 
    152 H152        1.1681  -19.9194  -41.9385 H         1 UNK         0.0600 
    153 H153        1.6479  -18.3083  -42.4507 H         1 UNK         0.0600 
    154 H154        1.2894  -17.9496  -44.9269 H         1 UNK         0.3000 
    155 H155       -0.8738  -17.1773  -47.6774 H         1 UNK         0.0600 
    156 H156        0.7525  -15.3644  -45.8220 H         1 UNK         0.0600 
    157 H157       -0.9622  -15.1791  -46.1874 H         1 UNK         0.0600 
    158 H158        0.2272  -14.9907  -47.4628 H         1 UNK         0.0600 
    159 H159        1.9755  -17.0063  -47.1738 H         1 UNK         0.3000 
    160 H160        2.7546  -20.2179  -48.5259 H         1 UNK         0.0600 
    161 H161        3.2004  -17.4203  -49.6889 H         1 UNK         0.0600 
    162 H162        2.4797  -18.7897  -50.5340 H         1 UNK         0.0600 
    163 H163        4.1614  -18.8567  -50.0390 H         1 UNK         0.0600 
    164 H164        4.3574  -18.0261  -47.5740 H         1 UNK         0.3000 
    165 H165        4.4794  -19.0985  -44.1736 H         1 UNK         0.0600 
    166 H166        6.9049  -19.1693  -44.6430 H         1 UNK         0.0600 
    167 H167        6.6033  -19.2081  -46.3807 H         1 UNK         0.0600 
    168 H168        6.1195  -20.5627  -45.3671 H         1 UNK         0.0600 
    169 H169        5.8825  -17.0095  -45.3919 H         1 UNK         0.3000 
    170 H170        5.3844  -14.8868  -44.7621 H         1 UNK         0.0600 
    171 H171        4.6405  -14.9386  -47.1479 H         1 UNK         0.0600 
    172 H172        2.9987  -14.5267  -46.6685 H         1 UNK         0.0600 
    173 H173        4.3078  -13.3708  -46.4311 H         1 UNK         0.0600 
    174 H174        2.6599  -13.8890  -44.3333 H         1 UNK         0.3000 
    175 H175        2.8012  -14.0008  -40.8013 H         1 UNK         0.0600 
    176 H176        2.9453  -11.5646  -42.6606 H         1 UNK         0.0600 
    177 H177        2.2929  -11.5772  -41.0222 H         1 UNK         0.0600 
    178 H178        4.0035  -11.8751  -41.2896 H         1 UNK         0.0600 
    179 H179        0.9710  -13.0151  -42.8477 H         1 UNK         0.3000 
    180 H180       -0.5218  -15.4428  -43.8087 H         1 UNK         0.0600 
    181 H181       -1.9713  -15.4147  -41.1210 H         1 UNK         0.0600 
    182 H182       -1.4065  -16.8254  -41.9953 H         1 UNK         0.0600 
    183 H183       -2.6966  -15.8476  -42.6701 H         1 UNK         0.0600 
    184 H184       -1.2711  -13.3900  -44.1902 H         1 UNK         0.3000 
    185 H185       -3.0939  -11.0839  -42.5775 H         1 UNK         0.0600 
    186 H186       -1.4662   -9.2235  -42.8729 H         1 UNK         0.0600 
    187 H187       -1.0995  -10.1345  -41.4184 H         1 UNK         0.0600 
    188 H188       -0.1248  -10.3680  -42.8645 H         1 UNK         0.0600 
    189 H189       -1.4593  -10.7236  -44.9019 H         1 UNK         0.3000 
    190 H190       -3.0771  -19.6719  -45.4609 H         1 UNK         0.3000 
    191 H191       -5.8117  -19.8805  -44.7873 H         1 UNK         0.0600 
    192 H192       -4.2773  -18.1931  -43.8149 H         1 UNK         0.0600 
    193 H193       -3.3664  -19.4528  -42.9874 H         1 UNK         0.0600 
    194 H194       -5.0354  -19.1283  -42.5342 H         1 UNK         0.0600 
    195 H195       -3.0465  -21.9728  -43.8872 H         1 UNK         0.3000 
    196 H196       -4.4909  -23.6450  -42.0878 H         1 UNK         0.0600 
    197 H197       -1.8741  -24.1254  -43.6056 H         1 UNK         0.0600 
    198 H198       -2.0365  -23.4004  -42.0082 H         1 UNK         0.0600 
    199 H199       -2.4554  -25.0894  -42.2524 H         1 UNK         0.0600 
    200 H200       -3.5673  -24.1381  -45.5459 H         1 UNK         0.3000 
    201 H201       -4.8590  -26.7810  -45.5714 H         1 UNK         0.0600 
    202 H202       -3.2927  -25.2982  -47.7340 H         1 UNK         0.0600 
    203 H203       -3.6801  -27.0148  -47.7038 H         1 UNK         0.0600 
    204 H204       -2.5668  -26.3519  -46.5189 H         1 UNK         0.0600 
    205 H205       -5.9834  -23.6709  -46.1719 H         1 UNK         0.3000 
    206 H206       -7.6897  -22.7162  -47.2175 H         1 UNK         0.0600 
    207 H207       -9.1233  -24.5481  -46.3102 H         1 UNK         0.0600 
    208 H208       -9.6949  -23.9838  -47.8726 H         1 UNK         0.0600 
    209 H209       -8.8340  -25.5097  -47.7588 H         1 UNK         0.0600 
    210 H210       -5.5870  -22.5035  -48.4616 H         1 UNK         0.3000 
    211 H211       -4.5399  -21.9185  -50.3026 H         1 UNK         0.0600 
    212 H212       -5.7271  -21.5090  -52.4025 H         1 UNK         0.0600 
    213 H213       -6.7242  -20.9881  -51.0552 H         1 UNK         0.0600 
    214 H214       -7.0840  -22.4997  -51.8911 H         1 UNK         0.0600 
    215 H215       -5.6826  -25.1517  -50.1788 H         1 UNK         0.3000 
    216 H216       -4.7813  -26.2220  -52.5616 H         1 UNK         0.0600 
    217 H217       -4.8768  -27.5610  -49.8074 H         1 UNK         0.0600 
    218 H218       -4.8354  -28.4031  -51.3513 H         1 UNK         0.0600 
    219 H219       -6.2245  -27.4121  -50.9326 H         1 UNK         0.0600 
    220 H220       -2.8074  -25.4818  -49.7297 H         1 UNK         0.3000 
    221 H221       -0.4062  -26.8214  -50.8221 H         1 UNK         0.0600 
    222 H222       -0.9515  -27.0446  -48.4017 H         1 UNK         0.0600 
    223 H223       -0.8636  -25.2917  -48.2078 H         1 UNK         0.0600 
    224 H224        0.5743  -26.2111  -48.6286 H         1 UNK         0.0600 
    225 H225       -1.8865  -23.8728  -51.4325 H         1 UNK         0.3000 
    226 H226        0.6896  -22.4082  -51.8266 H         1 UNK         0.0600 
    227 H227       -1.8953  -21.2757  -50.6578 H         1 UNK         0.0600 
    228 H228       -0.4659  -21.6877  -49.7115 H         1 UNK         0.0600 
    229 H229       -0.3773  -20.4081  -50.9038 H         1 UNK         0.0600 
    230 H230       -1.1965  -23.9793  -53.6200 H         1 UNK         0.3000 
    231 H231       -2.6390  -22.2503  -55.3068 H         1 UNK         0.0600 
    232 H232       -1.3356  -24.9585  -55.9179 H         1 UNK         0.0600 
    233 H233       -2.5927  -24.1917  -56.8822 H         1 UNK         0.0600 
    234 H234       -2.9459  -24.7111  -55.2413 H         1 UNK         0.0600 
    235 H235        0.7826  -22.8220  -55.1550 H         1 UNK         0.3000 
    236 H236        1.6504  -21.9951  -57.7147 H         1 UNK         0.0600 
    237 H237        3.0936  -23.1760  -56.0741 H         1 UNK         0.0600 
    238 H238        3.8332  -21.6523  -56.5368 H         1 UNK         0.0600 
    239 H239        3.0258  -21.7931  -54.9799 H         1 UNK         0.0600 
    240 H240        0.3296  -20.0740  -55.0937 H         1 UNK         0.3000 
    241 H241        1.3825  -17.5256  -55.9829 H         1 UNK         0.0600 
    242 H242       -1.8195  -18.2820  -58.3473 H         1 UNK         0.3800 
    243 H243       -1.0695  -19.5664  -57.4346 H         1 UNK         0.3800 
    244 H244       -1.0151  -18.1163  -54.1903 H         1 UNK         0.0800 
    245 H245       -0.2991  -16.5437  -54.4378 H         1 UNK         0.0800 
    246 H246        0.9189  -15.6055  -52.4127 H         1 UNK         0.0800 
    247 H247        1.3646  -16.5933  -51.0463 H         1 UNK         0.0800 
@<TRIPOS>BOND
     1    1    2 1    
     2    1  127 1    
     3    1  128 1    
     4    1  129 1    
     5    2    3 2    
     6    2    4 am   BACKBONE|DICT|INTERRES
     7    4    5 1    
     8    4  130 1    
     9    5    6 1    
    10    5   65 1    
    11    5  131 1    
    12    6    7 1    
    13    6  132 1    
    14    6  133 1    
    15    7    8 1    
    16    8    9 1    
    17    8  134 1    
    18    8  135 1    
    19    9   10 ar   
    20    9   14 ar   
    21   10   11 ar   
    22   10  136 1    
    23   11   12 ar   
    24   11  126 1    
    25   12   13 ar   
    26   12  137 1    
    27   13   14 ar   
    28   13   15 1    
    29   14  138 1    
    30   15   16 1    
    31   15  139 1    
    32   15  140 1    
    33   16   17 1    
    34   17   18 1    
    35   17  141 1    
    36   17  142 1    
    37   18   19 1    
    38   18   67 1    
    39   18  143 1    
    40   19   20 am   BACKBONE|DICT|INTERRES
    41   19  144 1    
    42   20   21 2    
    43   20   22 1    
    44   22   23 1    
    45   22   24 1    
    46   22  145 1    
    47   23  146 1    
    48   23  147 1    
    49   23  148 1    
    50   24   25 am   BACKBONE|DICT|INTERRES
    51   24  149 1    
    52   25   26 2    
    53   25   27 1    
    54   27   28 1    
    55   27   29 1    
    56   27  150 1    
    57   28  151 1    
    58   28  152 1    
    59   28  153 1    
    60   29   30 am   BACKBONE|DICT|INTERRES
    61   29  154 1    
    62   30   31 2    
    63   30   32 1    
    64   32   33 1    
    65   32   34 1    
    66   32  155 1    
    67   33  156 1    
    68   33  157 1    
    69   33  158 1    
    70   34   35 am   BACKBONE|DICT|INTERRES
    71   34  159 1    
    72   35   36 2    
    73   35   37 1    
    74   37   38 1    
    75   37   39 1    
    76   37  160 1    
    77   38  161 1    
    78   38  162 1    
    79   38  163 1    
    80   39   40 am   BACKBONE|DICT|INTERRES
    81   39  164 1    
    82   40   41 2    
    83   40   42 1    
    84   42   43 1    
    85   42   44 1    
    86   42  165 1    
    87   43  166 1    
    88   43  167 1    
    89   43  168 1    
    90   44   45 am   BACKBONE|DICT|INTERRES
    91   44  169 1    
    92   45   46 2    
    93   45   47 1    
    94   47   48 1    
    95   47   49 1    
    96   47  170 1    
    97   48  171 1    
    98   48  172 1    
    99   48  173 1    
   100   49   50 am   BACKBONE|DICT|INTERRES
   101   49  174 1    
   102   50   51 2    
   103   50   52 1    
   104   52   53 1    
   105   52   54 1    
   106   52  175 1    
   107   53  176 1    
   108   53  177 1    
   109   53  178 1    
   110   54   55 am   BACKBONE|DICT|INTERRES
   111   54  179 1    
   112   55   56 2    
   113   55   57 1    
   114   57   58 1    
   115   57   59 1    
   116   57  180 1    
   117   58  181 1    
   118   58  182 1    
   119   58  183 1    
   120   59   60 am   BACKBONE|DICT|INTERRES
   121   59  184 1    
   122   60   61 2    
   123   60   62 1    
   124   62   63 1    
   125   62   64 1    
   126   62  185 1    
   127   63  186 1    
   128   63  187 1    
   129   63  188 1    
   130   64   65 am   BACKBONE|DICT|INTERRES
   131   64  189 1    
   132   65   66 2    
   133   67   68 2    
   134   67   69 am   BACKBONE|DICT|INTERRES
   135   69   70 1    
   136   69  190 1    
   137   70   71 1    
   138   70   72 1    
   139   70  191 1    
   140   71  192 1    
   141   71  193 1    
   142   71  194 1    
   143   72   73 2    
   144   72   74 am   BACKBONE|DICT|INTERRES
   145   74   75 1    
   146   74  195 1    
   147   75   76 1    
   148   75   77 1    
   149   75  196 1    
   150   76  197 1    
   151   76  198 1    
   152   76  199 1    
   153   77   78 2    
   154   77   79 am   BACKBONE|DICT|INTERRES
   155   79   80 1    
   156   79  200 1    
   157   80   81 1    
   158   80   82 1    
   159   80  201 1    
   160   81  202 1    
   161   81  203 1    
   162   81  204 1    
   163   82   83 2    
   164   82   84 am   BACKBONE|DICT|INTERRES
   165   84   85 1    
   166   84  205 1    
   167   85   86 1    
   168   85   87 1    
   169   85  206 1    
   170   86  207 1    
   171   86  208 1    
   172   86  209 1    
   173   87   88 2    
   174   87   89 am   BACKBONE|DICT|INTERRES
   175   89   90 1    
   176   89  210 1    
   177   90   91 1    
   178   90   92 1    
   179   90  211 1    
   180   91  212 1    
   181   91  213 1    
   182   91  214 1    
   183   92   93 2    
   184   92   94 am   BACKBONE|DICT|INTERRES
   185   94   95 1    
   186   94  215 1    
   187   95   96 1    
   188   95   97 1    
   189   95  216 1    
   190   96  217 1    
   191   96  218 1    
   192   96  219 1    
   193   97   98 2    
   194   97   99 am   BACKBONE|DICT|INTERRES
   195   99  100 1    
   196   99  220 1    
   197  100  101 1    
   198  100  102 1    
   199  100  221 1    
   200  101  222 1    
   201  101  223 1    
   202  101  224 1    
   203  102  103 2    
   204  102  104 am   BACKBONE|DICT|INTERRES
   205  104  105 1    
   206  104  225 1    
   207  105  106 1    
   208  105  107 1    
   209  105  226 1    
   210  106  227 1    
   211  106  228 1    
   212  106  229 1    
   213  107  108 2    
   214  107  109 am   BACKBONE|DICT|INTERRES
   215  109  110 1    
   216  109  230 1    
   217  110  111 1    
   218  110  112 1    
   219  110  231 1    
   220  111  232 1    
   221  111  233 1    
   222  111  234 1    
   223  112  113 2    
   224  112  114 am   BACKBONE|DICT|INTERRES
   225  114  115 1    
   226  114  235 1    
   227  115  116 1    
   228  115  117 1    
   229  115  236 1    
   230  116  237 1    
   231  116  238 1    
   232  116  239 1    
   233  117  118 2    
   234  117  119 am   BACKBONE|DICT|INTERRES
   235  119  120 1    
   236  119  240 1    
   237  120  121 1    
   238  120  124 1    
   239  120  241 1    
   240  121  122 am   BACKBONE|DICT|INTERRES
   241  121  123 2    
   242  122  242 1    
   243  122  243 1    
   244  124  125 1    
   245  124  244 1    
   246  124  245 1    
   247  125  126 1    
   248  126  246 1    
   249  126  247 1    
@<TRIPOS>SUBSTRUCTURE
     1 UNK         1 GROUP             0       ****    0 ROOT    
