@<TRIPOS>MOLECULE
3R540
247   249    1
SMALL
USER_CHARGES


@<TRIPOS>ATOM
      1 CA          3.8772  -12.2385  -43.8341 C.3       0 UNK        -0.1800 
      2 C           3.0880  -13.0890  -44.8171 C.2       0 UNK         0.5000 
      3 O           1.8590  -13.1436  -44.7274 O.2       0 UNK        -0.5000 
      4 N           3.7788  -13.7417  -45.7637 N.am      1 UNK        -0.5000 
      5 CA          3.2083  -14.6322  -46.7841 C.3       1 UNK         0.1400 
      6 C6          4.2388  -15.6769  -47.2961 C.3       23 UNK        -0.0398 
      7 S7          3.4460  -17.2830  -47.6459 S.3       23 UNK        -0.2404 
      8 C8          3.3685  -17.3025  -49.4640 C.3       23 UNK        -0.0205 
      9 C9          2.1759  -18.1218  -49.9252 C.ar      23 UNK        -0.0193 
     10 C10         0.9305  -17.5111  -50.0943 C.ar      23 UNK        -0.1150 
     11 C11        -0.1840  -18.2667  -50.4671 C.ar      23 UNK        -0.0193 
     12 C12        -0.0511  -19.6471  -50.6379 C.ar      23 UNK        -0.1150 
     13 C13         1.1934  -20.2692  -50.4943 C.ar      23 UNK        -0.0193 
     14 C14         2.3091  -19.4922  -50.1603 C.ar      23 UNK        -0.1150 
     15 C15         1.3061  -21.7752  -50.7220 C.3       23 UNK        -0.0205 
     16 S16         2.4344  -22.6657  -49.5864 S.3       23 UNK        -0.2404 
     17 C17         2.0464  -21.9805  -47.9364 C.3       23 UNK        -0.0398 
     18 CA          0.9377  -22.7274  -47.1632 C.3       11 UNK         0.1400 
     19 N           0.9923  -22.3676  -45.7446 N.am      11 UNK        -0.5000 
     20 C           0.2065  -22.8177  -44.7583 C.2       10 UNK         0.5000 
     21 O          -0.7265  -23.5989  -44.9415 O.2       10 UNK        -0.5000 
     22 CA          0.4538  -22.2478  -43.3471 C.3       10 UNK         0.1400 
     23 CB          0.6664  -23.3578  -42.2995 C.3       10 UNK        -0.1800 
     24 N           1.5044  -21.2179  -43.3003 N.am      10 UNK        -0.5000 
     25 C           2.8327  -21.3811  -43.4045 C.2       9 UNK         0.5000 
     26 O           3.3884  -22.4766  -43.4721 O.2       9 UNK        -0.5000 
     27 CA          3.6869  -20.1090  -43.5141 C.3       9 UNK         0.1400 
     28 CB          3.9128  -19.7516  -44.9922 C.3       9 UNK        -0.1800 
     29 N           3.0770  -18.9617  -42.8388 N.am      9 UNK        -0.5000 
     30 C           3.7081  -18.1939  -41.9413 C.2       8 UNK         0.5000 
     31 O           4.8663  -18.3820  -41.5661 O.2       8 UNK        -0.5000 
     32 CA          2.9216  -17.0043  -41.3649 C.3       8 UNK         0.1400 
     33 CB          3.0522  -15.7790  -42.2843 C.3       8 UNK        -0.1800 
     34 N           1.5045  -17.2884  -41.1418 N.am      8 UNK        -0.5000 
     35 C           1.0221  -18.1185  -40.2061 C.2       7 UNK         0.5000 
     36 O           1.7300  -18.8012  -39.4653 O.2       7 UNK        -0.5000 
     37 CA         -0.5076  -18.1908  -40.0668 C.3       7 UNK         0.1400 
     38 CB         -1.0297  -16.9919  -39.2587 C.3       7 UNK        -0.1800 
     39 N          -1.1537  -18.2014  -41.3784 N.am      7 UNK        -0.5000 
     40 C          -1.7317  -19.2728  -41.9365 C.2       6 UNK         0.5000 
     41 O          -1.8498  -20.3575  -41.3672 O.2       6 UNK        -0.5000 
     42 CA         -2.2640  -19.1293  -43.3788 C.3       6 UNK         0.1400 
     43 CB         -3.7941  -18.9945  -43.3787 C.3       6 UNK        -0.1800 
     44 N          -1.6886  -18.0059  -44.1221 N.am      6 UNK        -0.5000 
     45 C          -0.4093  -17.9089  -44.5072 C.2       5 UNK         0.5000 
     46 O           0.4380  -18.7766  -44.2890 O.2       5 UNK        -0.5000 
     47 CA          0.0056  -16.5949  -45.1974 C.3       5 UNK         0.1400 
     48 CB         -0.1840  -16.7047  -46.7172 C.3       5 UNK        -0.1800 
     49 N          -0.6899  -15.3948  -44.7108 N.am      5 UNK        -0.5000 
     50 C          -0.7509  -14.9946  -43.4320 C.2       4 UNK         0.5000 
     51 O          -0.2712  -15.6401  -42.4998 O.2       4 UNK        -0.5000 
     52 CA         -1.4637  -13.6631  -43.1567 C.3       4 UNK         0.1400 
     53 CB         -1.3536  -13.2214  -41.6823 C.3       4 UNK        -0.1800 
     54 N          -0.9309  -12.6236  -44.0333 N.am      4 UNK        -0.5000 
     55 C          -1.5903  -11.5094  -44.3766 C.2       3 UNK         0.5000 
     56 O          -2.7520  -11.2706  -44.0439 O.2       3 UNK        -0.5000 
     57 CA         -0.8257  -10.4828  -45.2297 C.3       3 UNK         0.1400 
     58 CB          0.0713   -9.6082  -44.3395 C.3       3 UNK        -0.1800 
     59 N          -0.0045  -11.1085  -46.2635 N.am      3 UNK        -0.5000 
     60 C          -0.4775  -11.6460  -47.3973 C.2       2 UNK         0.5000 
     61 O          -1.6690  -11.6726  -47.7043 O.2       2 UNK        -0.5000 
     62 CA          0.5653  -12.2819  -48.3256 C.3       2 UNK         0.1400 
     63 CB          1.3145  -11.1869  -49.1125 C.3       2 UNK        -0.1800 
     64 N           1.4692  -13.0908  -47.5121 N.am      2 UNK        -0.5000 
     65 C           2.4958  -13.8442  -47.9104 C.2       1 UNK         0.5000 
     66 O           2.8804  -13.9157  -49.0772 O.2       1 UNK        -0.5000 
     67 C          -0.4496  -22.4615  -47.7797 C.2       11 UNK         0.5000 
     68 O          -0.9516  -23.2911  -48.5385 O.2       11 UNK        -0.5000 
     69 N          -1.0707  -21.3362  -47.4002 N.am      12 UNK        -0.5000 
     70 CA         -2.4049  -20.9374  -47.8487 C.3       12 UNK         0.1400 
     71 CB         -2.6626  -19.4853  -47.4308 C.3       12 UNK        -0.1800 
     72 C          -3.5350  -21.8660  -47.3583 C.2       12 UNK         0.5000 
     73 O          -4.5950  -21.8872  -47.9801 O.2       12 UNK        -0.5000 
     74 N          -3.2905  -22.6272  -46.2839 N.am      13 UNK        -0.5000 
     75 CA         -4.1957  -23.6631  -45.7920 C.3       13 UNK         0.1400 
     76 CB         -4.1844  -23.6565  -44.2545 C.3       13 UNK        -0.1800 
     77 C          -3.7988  -25.0465  -46.3376 C.2       13 UNK         0.5000 
     78 O          -4.6725  -25.8064  -46.7559 O.2       13 UNK        -0.5000 
     79 N          -2.4945  -25.3544  -46.3063 N.am      14 UNK        -0.5000 
     80 CA         -1.9366  -26.6622  -46.6481 C.3       14 UNK         0.1400 
     81 CB         -0.5003  -26.7500  -46.1082 C.3       14 UNK        -0.1800 
     82 C          -1.9671  -26.9837  -48.1529 C.2       14 UNK         0.5000 
     83 O          -2.3370  -28.0994  -48.5217 O.2       14 UNK        -0.5000 
     84 N          -1.5586  -26.0188  -48.9854 N.am      15 UNK        -0.5000 
     85 CA         -1.4346  -26.1646  -50.4378 C.3       15 UNK         0.1400 
     86 CB          0.0085  -25.8306  -50.8489 C.3       15 UNK        -0.1800 
     87 C          -2.4202  -25.2589  -51.1913 C.2       15 UNK         0.5000 
     88 O          -2.8550  -25.6186  -52.2860 O.2       15 UNK        -0.5000 
     89 N          -2.7384  -24.0919  -50.6097 N.am      16 UNK        -0.5000 
     90 CA         -3.6818  -23.0794  -51.1040 C.3       16 UNK         0.1400 
     91 CB         -5.1092  -23.6613  -51.1691 C.3       16 UNK        -0.1800 
     92 C          -3.2575  -22.4013  -52.4252 C.2       16 UNK         0.5000 
     93 O          -4.0929  -21.7711  -53.0802 O.2       16 UNK        -0.5000 
     94 N          -1.9782  -22.5659  -52.8017 N.am      17 UNK        -0.5000 
     95 CA         -1.3150  -22.1132  -54.0355 C.3       17 UNK         0.1400 
     96 CB         -1.2409  -20.5723  -54.0743 C.3       17 UNK        -0.1800 
     97 C          -1.9189  -22.6814  -55.3403 C.2       17 UNK         0.5000 
     98 O          -1.5672  -22.2087  -56.4219 O.2       17 UNK        -0.5000 
     99 N          -2.8429  -23.6494  -55.2188 N.am      18 UNK        -0.5000 
    100 CA        -3.7791  -24.1117  -56.2516 C.3       18 UNK         0.1400 
    101 CB        -3.0389  -24.8971  -57.3540 C.3       18 UNK        -0.1800 
    102 C         -4.6589  -22.9656  -56.8100 C.2       18 UNK         0.5000 
    103 O         -5.0651  -23.0101  -57.9726 O.2       18 UNK        -0.5000 
    104 N         -4.9172  -21.9494  -55.9739 N.am      19 UNK        -0.5000 
    105 CA        -5.5512  -20.6850  -56.3443 C.3       19 UNK         0.1400 
    106 CB        -4.4572  -19.6407  -56.6387 C.3       19 UNK        -0.1800 
    107 C         -6.5305  -20.2176  -55.2545 C.2       19 UNK         0.5000 
    108 O         -6.7107  -19.0128  -55.0703 O.2       19 UNK        -0.5000 
    109 N         -7.1353  -21.1788  -54.5398 N.am      20 UNK        -0.5000 
    110 CA        -8.1446  -20.9928  -53.4901 C.3       20 UNK         0.1400 
    111 CB        -9.4757  -20.5156  -54.1085 C.3       20 UNK        -0.1800 
    112 C         -7.6612  -20.0923  -52.3325 C.2       20 UNK         0.5000 
    113 O         -8.3992  -19.2141  -51.8830 O.2       20 UNK        -0.5000 
    114 N         -6.4193  -20.3355  -51.8873 N.am      21 UNK        -0.5000 
    115 CA        -5.6991  -19.6142  -50.8328 C.3       21 UNK         0.1400 
    116 CB        -6.4575  -19.6615  -49.4885 C.3       21 UNK        -0.1800 
    117 C         -5.3129  -18.1906  -51.2743 C.2       21 UNK         0.5000 
    118 O         -5.4592  -17.2407  -50.5035 O.2       21 UNK        -0.5000 
    119 N         -4.8093  -18.0864  -52.5120 N.am      22 UNK        -0.5000 
    120 CA        -4.4010  -16.8376  -53.1775 C.3       22 UNK         0.1400 
    121 C         -5.5990  -15.8803  -53.4555 C.2       22 UNK         0.5000 
    122 N         -6.7102  -16.3887  -53.9720 N.am      22 UNK        -0.7600 
    123 O         -5.5310  -14.6768  -53.2175 O.2       22 UNK        -0.5000 
    124 C124       -3.1994  -16.1351  -52.4814 C.3       23 UNK        -0.0398 
    125 S125       -1.6902  -17.1602  -52.4749 S.3       23 UNK        -0.2404 
    126 C126       -1.5211  -17.5869  -50.7141 C.3       23 UNK        -0.0205 
    127 H127        3.5612  -11.1976  -43.9024 H         1 UNK         0.0600 
    128 H128        3.6985  -12.5839  -42.8160 H         1 UNK         0.0600 
    129 H129        4.9491  -12.2844  -44.0269 H         1 UNK         0.0600 
    130 H130        4.7804  -13.6180  -45.8074 H         1 UNK         0.3000 
    131 H131        2.4226  -15.1882  -46.2735 H         1 UNK         0.0600 
    132 H132        4.8100  -15.3229  -48.1560 H         1 UNK         0.0800 
    133 H133        4.9801  -15.8762  -46.5210 H         1 UNK         0.0800 
    134 H134        4.2963  -17.7165  -49.8614 H         1 UNK         0.0800 
    135 H135        3.2897  -16.2917  -49.8614 H         1 UNK         0.0800 
    136 H136        0.8307  -16.4461  -49.9371 H         1 UNK         0.1150 
    137 H137       -0.9169  -20.2325  -50.9123 H         1 UNK         0.1150 
    138 H138        3.2767  -19.9594  -50.0445 H         1 UNK         0.1150 
    139 H139        0.3215  -22.2380  -50.6562 H         1 UNK         0.0800 
    140 H140        1.6468  -21.9416  -51.7445 H         1 UNK         0.0800 
    141 H141        1.8313  -20.9136  -47.9837 H         1 UNK         0.0800 
    142 H142        2.9787  -22.0502  -47.3739 H         1 UNK         0.0800 
    143 H143        1.1284  -23.8003  -47.2281 H         1 UNK         0.0600 
    144 H144        1.7204  -21.7227  -45.4799 H         1 UNK         0.3000 
    145 H145       -0.4693  -21.7373  -43.0827 H         1 UNK         0.0600 
    146 H146        0.8384  -22.9367  -41.3089 H         1 UNK         0.0600 
    147 H147       -0.2145  -23.9972  -42.2311 H         1 UNK         0.0600 
    148 H148        1.5107  -24.0013  -42.5464 H         1 UNK         0.0600 
    149 H149        1.1503  -20.2685  -43.3627 H         1 UNK         0.3000 
    150 H150        4.6556  -20.3476  -43.0704 H         1 UNK         0.0600 
    151 H151        4.3706  -20.5802  -45.5339 H         1 UNK         0.0600 
    152 H152        4.5790  -18.8943  -45.0902 H         1 UNK         0.0600 
    153 H153        2.9769  -19.5040  -45.4947 H         1 UNK         0.0600 
    154 H154        2.1295  -18.7236  -43.1054 H         1 UNK         0.3000 
    155 H155        3.3658  -16.7508  -40.4001 H         1 UNK         0.0600 
    156 H156        2.6223  -15.9652  -43.2683 H         1 UNK         0.0600 
    157 H157        4.0986  -15.5081  -42.4305 H         1 UNK         0.0600 
    158 H158        2.5475  -14.9105  -41.8605 H         1 UNK         0.0600 
    159 H159        0.8485  -16.7201  -41.6742 H         1 UNK         0.3000 
    160 H160       -0.7473  -19.0993  -39.5104 H         1 UNK         0.0600 
    161 H161       -2.1085  -17.0548  -39.1161 H         1 UNK         0.0600 
    162 H162       -0.8128  -16.0441  -39.7529 H         1 UNK         0.0600 
    163 H163       -0.5718  -16.9589  -38.2693 H         1 UNK         0.0600 
    164 H164       -1.0738  -17.3479  -41.9201 H         1 UNK         0.3000 
    165 H165       -2.0082  -20.0471  -43.9118 H         1 UNK         0.0600 
    166 H166       -4.1912  -18.9760  -44.3937 H         1 UNK         0.0600 
    167 H167       -4.2609  -19.8368  -42.8661 H         1 UNK         0.0600 
    168 H168       -4.1168  -18.0831  -42.8740 H         1 UNK         0.0600 
    169 H169       -2.3072  -17.2347  -44.3253 H         1 UNK         0.3000 
    170 H170        1.0678  -16.4633  -44.9915 H         1 UNK         0.0600 
    171 H171        0.2966  -17.6016  -47.1115 H         1 UNK         0.0600 
    172 H172       -1.2394  -16.7474  -46.9863 H         1 UNK         0.0600 
    173 H173        0.2521  -15.8523  -47.2363 H         1 UNK         0.0600 
    174 H174       -1.1230  -14.8103  -45.4108 H         1 UNK         0.3000 
    175 H175       -2.5178  -13.8249  -43.3905 H         1 UNK         0.0600 
    176 H176       -0.3156  -13.0515  -41.3937 H         1 UNK         0.0600 
    177 H177       -1.9070  -12.3007  -41.4984 H         1 UNK         0.0600 
    178 H178       -1.7629  -13.9795  -41.0135 H         1 UNK         0.0600 
    179 H179        0.0340  -12.7510  -44.3308 H         1 UNK         0.3000 
    180 H180       -1.5596   -9.8349  -45.7140 H         1 UNK         0.0600 
    181 H181        0.8448  -10.1966  -43.8439 H         1 UNK         0.0600 
    182 H182       -0.5133   -9.1135  -43.5627 H         1 UNK         0.0600 
    183 H183        0.5634   -8.8283  -44.9209 H         1 UNK         0.0600 
    184 H184        0.9908  -11.1212  -46.0962 H         1 UNK         0.3000 
    185 H185        0.0471  -12.9396  -49.0260 H         1 UNK         0.0600 
    186 H186        0.6134  -10.5174  -49.6126 H         1 UNK         0.0600 
    187 H187        1.9414  -10.5783  -48.4600 H         1 UNK         0.0600 
    188 H188        1.9516  -11.6114  -49.8876 H         1 UNK         0.0600 
    189 H189        1.2722  -13.0951  -46.5148 H         1 UNK         0.3000 
    190 H190       -0.5989  -20.7136  -46.7614 H         1 UNK         0.3000 
    191 H191       -2.4070  -20.9707  -48.9391 H         1 UNK         0.0600 
    192 H192       -2.6471  -19.3715  -46.3484 H         1 UNK         0.0600 
    193 H193       -3.6338  -19.1386  -47.7839 H         1 UNK         0.0600 
    194 H194       -1.9107  -18.8221  -47.8556 H         1 UNK         0.0600 
    195 H195       -2.3759  -22.5907  -45.8539 H         1 UNK         0.3000 
    196 H196       -5.2183  -23.4562  -46.1151 H         1 UNK         0.0600 
    197 H197       -4.8667  -24.4090  -43.8574 H         1 UNK         0.0600 
    198 H198       -4.5033  -22.6899  -43.8641 H         1 UNK         0.0600 
    199 H199       -3.1935  -23.8679  -43.8514 H         1 UNK         0.0600 
    200 H200       -1.8455  -24.6855  -45.8995 H         1 UNK         0.3000 
    201 H201       -2.5310  -27.4228  -46.1372 H         1 UNK         0.0600 
    202 H202       -0.0602  -27.7249  -46.3216 H         1 UNK         0.0600 
    203 H203       -0.4769  -26.6121  -45.0269 H         1 UNK         0.0600 
    204 H204        0.1451  -25.9927  -46.5541 H         1 UNK         0.0600 
    205 H205       -1.2985  -25.1146  -48.6020 H         1 UNK         0.3000 
    206 H206       -1.6427  -27.1919  -50.7432 H         1 UNK         0.0600 
    207 H207        0.7174  -26.5102  -50.3759 H         1 UNK         0.0600 
    208 H208        0.1413  -25.9221  -51.9277 H         1 UNK         0.0600 
    209 H209        0.2850  -24.8143  -50.5672 H         1 UNK         0.0600 
    210 H210       -2.2592  -23.8562  -49.7448 H         1 UNK         0.3000 
    211 H211       -3.6865  -22.2842  -50.3637 H         1 UNK         0.0600 
    212 H212       -5.2135  -24.3995  -51.9645 H         1 UNK         0.0600 
    213 H213       -5.8511  -22.8861  -51.3486 H         1 UNK         0.0600 
    214 H214       -5.3770  -24.1418  -50.2278 H         1 UNK         0.0600 
    215 H215       -1.4061  -23.1358  -52.1962 H         1 UNK         0.3000 
    216 H216       -0.2931  -22.4926  -53.9927 H         1 UNK         0.0600 
    217 H217       -2.2288  -20.1127  -54.0545 H         1 UNK         0.0600 
    218 H218       -0.7361  -20.2176  -54.9734 H         1 UNK         0.0600 
    219 H219       -0.6749  -20.1845  -53.2312 H         1 UNK         0.0600 
    220 H220       -3.0229  -23.9979  -54.2866 H         1 UNK         0.3000 
    221 H221       -4.4621  -24.8028  -55.7558 H         1 UNK         0.0600 
    222 H222       -2.3900  -24.2520  -57.9468 H         1 UNK         0.0600 
    223 H223       -2.4249  -25.6902  -56.9276 H         1 UNK         0.0600 
    224 H224       -3.7446  -25.3678  -58.0394 H         1 UNK         0.0600 
    225 H225       -4.5573  -21.9934  -55.0248 H         1 UNK         0.3000 
    226 H226       -6.1496  -20.8192  -57.2474 H         1 UNK         0.0600 
    227 H227       -3.7766  -19.9908  -57.4150 H         1 UNK         0.0600 
    228 H228       -4.8895  -18.7020  -56.9870 H         1 UNK         0.0600 
    229 H229       -3.8645  -19.4221  -55.7501 H         1 UNK         0.0600 
    230 H230       -6.9013  -22.1366  -54.7599 H         1 UNK         0.3000 
    231 H231       -8.3203  -21.9769  -53.0532 H         1 UNK         0.0600 
    232 H232       -9.8057  -21.1878  -54.9005 H         1 UNK         0.0600 
    233 H233       -9.3890  -19.5147  -54.5329 H         1 UNK         0.0600 
    234 H234      -10.2676  -20.4861  -53.3592 H         1 UNK         0.0600 
    235 H235       -5.8711  -21.0311  -52.3816 H         1 UNK         0.3000 
    236 H236       -4.7586  -20.1454  -50.6872 H         1 UNK         0.0600 
    237 H237       -5.8358  -19.2821  -48.6779 H         1 UNK         0.0600 
    238 H238       -7.3648  -19.0578  -49.5048 H         1 UNK         0.0600 
    239 H239       -6.7379  -20.6825  -49.2302 H         1 UNK         0.0600 
    240 H240       -4.7590  -18.9200  -53.0784 H         1 UNK         0.3000 
    241 H241       -4.0571  -17.1328  -54.1697 H         1 UNK         0.0600 
    242 H242       -6.7592  -17.3705  -54.2392 H         1 UNK         0.3800 
    243 H243       -7.4943  -15.7841  -54.1557 H         1 UNK         0.3800 
    244 H244       -2.9460  -15.2152  -53.0106 H         1 UNK         0.0800 
    245 H245       -3.4556  -15.8306  -51.4663 H         1 UNK         0.0800 
    246 H246       -1.6006  -16.6854  -50.1045 H         1 UNK         0.0800 
    247 H247       -2.3407  -18.2413  -50.4151 H         1 UNK         0.0800 
@<TRIPOS>BOND
     1    1    2 1    
     2    1  127 1    
     3    1  128 1    
     4    1  129 1    
     5    2    3 2    
     6    2    4 am   BACKBONE|DICT|INTERRES
     7    4    5 1    
     8    4  130 1    
     9    5    6 1    
    10    5   65 1    
    11    5  131 1    
    12    6    7 1    
    13    6  132 1    
    14    6  133 1    
    15    7    8 1    
    16    8    9 1    
    17    8  134 1    
    18    8  135 1    
    19    9   10 ar   
    20    9   14 ar   
    21   10   11 ar   
    22   10  136 1    
    23   11   12 ar   
    24   11  126 1    
    25   12   13 ar   
    26   12  137 1    
    27   13   14 ar   
    28   13   15 1    
    29   14  138 1    
    30   15   16 1    
    31   15  139 1    
    32   15  140 1    
    33   16   17 1    
    34   17   18 1    
    35   17  141 1    
    36   17  142 1    
    37   18   19 1    
    38   18   67 1    
    39   18  143 1    
    40   19   20 am   BACKBONE|DICT|INTERRES
    41   19  144 1    
    42   20   21 2    
    43   20   22 1    
    44   22   23 1    
    45   22   24 1    
    46   22  145 1    
    47   23  146 1    
    48   23  147 1    
    49   23  148 1    
    50   24   25 am   BACKBONE|DICT|INTERRES
    51   24  149 1    
    52   25   26 2    
    53   25   27 1    
    54   27   28 1    
    55   27   29 1    
    56   27  150 1    
    57   28  151 1    
    58   28  152 1    
    59   28  153 1    
    60   29   30 am   BACKBONE|DICT|INTERRES
    61   29  154 1    
    62   30   31 2    
    63   30   32 1    
    64   32   33 1    
    65   32   34 1    
    66   32  155 1    
    67   33  156 1    
    68   33  157 1    
    69   33  158 1    
    70   34   35 am   BACKBONE|DICT|INTERRES
    71   34  159 1    
    72   35   36 2    
    73   35   37 1    
    74   37   38 1    
    75   37   39 1    
    76   37  160 1    
    77   38  161 1    
    78   38  162 1    
    79   38  163 1    
    80   39   40 am   BACKBONE|DICT|INTERRES
    81   39  164 1    
    82   40   41 2    
    83   40   42 1    
    84   42   43 1    
    85   42   44 1    
    86   42  165 1    
    87   43  166 1    
    88   43  167 1    
    89   43  168 1    
    90   44   45 am   BACKBONE|DICT|INTERRES
    91   44  169 1    
    92   45   46 2    
    93   45   47 1    
    94   47   48 1    
    95   47   49 1    
    96   47  170 1    
    97   48  171 1    
    98   48  172 1    
    99   48  173 1    
   100   49   50 am   BACKBONE|DICT|INTERRES
   101   49  174 1    
   102   50   51 2    
   103   50   52 1    
   104   52   53 1    
   105   52   54 1    
   106   52  175 1    
   107   53  176 1    
   108   53  177 1    
   109   53  178 1    
   110   54   55 am   BACKBONE|DICT|INTERRES
   111   54  179 1    
   112   55   56 2    
   113   55   57 1    
   114   57   58 1    
   115   57   59 1    
   116   57  180 1    
   117   58  181 1    
   118   58  182 1    
   119   58  183 1    
   120   59   60 am   BACKBONE|DICT|INTERRES
   121   59  184 1    
   122   60   61 2    
   123   60   62 1    
   124   62   63 1    
   125   62   64 1    
   126   62  185 1    
   127   63  186 1    
   128   63  187 1    
   129   63  188 1    
   130   64   65 am   BACKBONE|DICT|INTERRES
   131   64  189 1    
   132   65   66 2    
   133   67   68 2    
   134   67   69 am   BACKBONE|DICT|INTERRES
   135   69   70 1    
   136   69  190 1    
   137   70   71 1    
   138   70   72 1    
   139   70  191 1    
   140   71  192 1    
   141   71  193 1    
   142   71  194 1    
   143   72   73 2    
   144   72   74 am   BACKBONE|DICT|INTERRES
   145   74   75 1    
   146   74  195 1    
   147   75   76 1    
   148   75   77 1    
   149   75  196 1    
   150   76  197 1    
   151   76  198 1    
   152   76  199 1    
   153   77   78 2    
   154   77   79 am   BACKBONE|DICT|INTERRES
   155   79   80 1    
   156   79  200 1    
   157   80   81 1    
   158   80   82 1    
   159   80  201 1    
   160   81  202 1    
   161   81  203 1    
   162   81  204 1    
   163   82   83 2    
   164   82   84 am   BACKBONE|DICT|INTERRES
   165   84   85 1    
   166   84  205 1    
   167   85   86 1    
   168   85   87 1    
   169   85  206 1    
   170   86  207 1    
   171   86  208 1    
   172   86  209 1    
   173   87   88 2    
   174   87   89 am   BACKBONE|DICT|INTERRES
   175   89   90 1    
   176   89  210 1    
   177   90   91 1    
   178   90   92 1    
   179   90  211 1    
   180   91  212 1    
   181   91  213 1    
   182   91  214 1    
   183   92   93 2    
   184   92   94 am   BACKBONE|DICT|INTERRES
   185   94   95 1    
   186   94  215 1    
   187   95   96 1    
   188   95   97 1    
   189   95  216 1    
   190   96  217 1    
   191   96  218 1    
   192   96  219 1    
   193   97   98 2    
   194   97   99 am   BACKBONE|DICT|INTERRES
   195   99  100 1    
   196   99  220 1    
   197  100  101 1    
   198  100  102 1    
   199  100  221 1    
   200  101  222 1    
   201  101  223 1    
   202  101  224 1    
   203  102  103 2    
   204  102  104 am   BACKBONE|DICT|INTERRES
   205  104  105 1    
   206  104  225 1    
   207  105  106 1    
   208  105  107 1    
   209  105  226 1    
   210  106  227 1    
   211  106  228 1    
   212  106  229 1    
   213  107  108 2    
   214  107  109 am   BACKBONE|DICT|INTERRES
   215  109  110 1    
   216  109  230 1    
   217  110  111 1    
   218  110  112 1    
   219  110  231 1    
   220  111  232 1    
   221  111  233 1    
   222  111  234 1    
   223  112  113 2    
   224  112  114 am   BACKBONE|DICT|INTERRES
   225  114  115 1    
   226  114  235 1    
   227  115  116 1    
   228  115  117 1    
   229  115  236 1    
   230  116  237 1    
   231  116  238 1    
   232  116  239 1    
   233  117  118 2    
   234  117  119 am   BACKBONE|DICT|INTERRES
   235  119  120 1    
   236  119  240 1    
   237  120  121 1    
   238  120  124 1    
   239  120  241 1    
   240  121  122 am   BACKBONE|DICT|INTERRES
   241  121  123 2    
   242  122  242 1    
   243  122  243 1    
   244  124  125 1    
   245  124  244 1    
   246  124  245 1    
   247  125  126 1    
   248  126  246 1    
   249  126  247 1    
@<TRIPOS>SUBSTRUCTURE
     1 UNK         1 GROUP             0       ****    0 ROOT    
