@<TRIPOS>MOLECULE
3R540
247   249    1
SMALL
USER_CHARGES


@<TRIPOS>ATOM
      1 CA         -2.5514  -14.3635  -46.8136 C.3       0 UNK        -0.1800 
      2 C          -1.6481  -13.2640  -47.3513 C.2       0 UNK         0.5000 
      3 O          -1.7716  -12.1143  -46.9298 O.2       0 UNK        -0.5000 
      4 N          -0.7272  -13.6157  -48.2601 N.am      1 UNK        -0.5000 
      5 CA          0.1949  -12.7002  -48.9513 C.3       1 UNK         0.1400 
      6 C6          0.9898  -13.4298  -50.0657 C.3       23 UNK        -0.0398 
      7 S7          2.1368  -14.7159  -49.4500 S.3       23 UNK        -0.2404 
      8 C8          2.6687  -15.4983  -51.0027 C.3       23 UNK        -0.0205 
      9 C9          1.7897  -16.6887  -51.3468 C.ar      23 UNK        -0.0193 
     10 C10         0.7202  -16.5547  -52.2365 C.ar      23 UNK        -0.1150 
     11 C11        -0.0849  -17.6556  -52.5453 C.ar      23 UNK        -0.0193 
     12 C12         0.1859  -18.8931  -51.9529 C.ar      23 UNK        -0.1150 
     13 C13         1.2367  -19.0341  -51.0424 C.ar      23 UNK        -0.0193 
     14 C14         2.0482  -17.9309  -50.7619 C.ar      23 UNK        -0.1150 
     15 C15         1.4637  -20.3688  -50.3397 C.3       23 UNK        -0.0205 
     16 S16         1.6026  -20.2143  -48.5235 S.3       23 UNK        -0.2404 
     17 C17         0.0717  -19.3211  -48.0873 C.3       23 UNK        -0.0398 
     18 CA         -1.0354  -20.2504  -47.5442 C.3       11 UNK         0.1400 
     19 N          -0.6644  -20.8880  -46.2821 N.am      11 UNK        -0.5000 
     20 C          -1.1913  -22.0169  -45.7948 C.2       10 UNK         0.5000 
     21 O          -2.0199  -22.6951  -46.4071 O.2       10 UNK        -0.5000 
     22 CA         -0.7443  -22.4314  -44.3761 C.3       10 UNK         0.1400 
     23 CB         -0.7621  -23.9586  -44.1669 C.3       10 UNK        -0.1800 
     24 N           0.5384  -21.8415  -43.9696 N.am      10 UNK        -0.5000 
     25 C           1.7599  -22.0983  -44.4650 C.2       9 UNK         0.5000 
     26 O           1.9877  -22.9596  -45.3128 O.2       9 UNK        -0.5000 
     27 CA          2.9341  -21.2375  -43.9506 C.3       9 UNK         0.1400 
     28 CB          3.4325  -20.3040  -45.0653 C.3       9 UNK        -0.1800 
     29 N           2.6054  -20.4295  -42.7741 N.am      9 UNK        -0.5000 
     30 C           2.4840  -20.9023  -41.5260 C.2       8 UNK         0.5000 
     31 O           2.7037  -22.0728  -41.2137 O.2       8 UNK        -0.5000 
     32 CA          1.9915  -19.9080  -40.4548 C.3       8 UNK         0.1400 
     33 CB          3.1721  -19.1441  -39.8369 C.3       8 UNK        -0.1800 
     34 N           1.0061  -18.9518  -40.9686 N.am      8 UNK        -0.5000 
     35 C          -0.1997  -19.2856  -41.4513 C.2       7 UNK         0.5000 
     36 O          -0.6302  -20.4381  -41.4798 O.2       7 UNK        -0.5000 
     37 CA         -1.0360  -18.1595  -42.0800 C.3       7 UNK         0.1400 
     38 CB         -1.7600  -17.3279  -41.0122 C.3       7 UNK        -0.1800 
     39 N          -0.2288  -17.2881  -42.9341 N.am      7 UNK        -0.5000 
     40 C           0.3221  -17.6728  -44.0927 C.2       6 UNK         0.5000 
     41 O           0.1001  -18.7639  -44.6155 O.2       6 UNK        -0.5000 
     42 CA          1.2957  -16.6976  -44.7747 C.3       6 UNK         0.1400 
     43 CB          0.5645  -15.7882  -45.7691 C.3       6 UNK        -0.1800 
     44 N           2.0343  -15.8889  -43.8056 N.am      6 UNK        -0.5000 
     45 C           3.0233  -16.3671  -43.0374 C.2       5 UNK         0.5000 
     46 O           3.4535  -17.5170  -43.1207 O.2       5 UNK        -0.5000 
     47 CA          3.5824  -15.4237  -41.9574 C.3       5 UNK         0.1400 
     48 CB          4.7307  -14.5679  -42.5083 C.3       5 UNK        -0.1800 
     49 N           2.5446  -14.5597  -41.3906 N.am      5 UNK        -0.5000 
     50 C           1.5883  -15.0064  -40.5634 C.2       4 UNK         0.5000 
     51 O           1.5147  -16.1755  -40.1853 O.2       4 UNK        -0.5000 
     52 CA          0.5093  -14.0031  -40.1134 C.3       4 UNK         0.1400 
     53 CB          0.9395  -13.2985  -38.8186 C.3       4 UNK        -0.1800 
     54 N           0.1739  -12.9953  -41.1208 N.am      4 UNK        -0.5000 
     55 C          -0.3215  -13.2495  -42.3395 C.2       3 UNK         0.5000 
     56 O          -0.5332  -14.3866  -42.7619 O.2       3 UNK        -0.5000 
     57 CA         -0.5963  -12.0424  -43.2616 C.3       3 UNK         0.1400 
     58 CB         -0.5466  -10.6765  -42.5414 C.3       3 UNK        -0.1800 
     59 N           0.2896  -12.0234  -44.4300 N.am      3 UNK        -0.5000 
     60 C           1.6325  -12.0673  -44.4341 C.2       2 UNK         0.5000 
     61 O           2.3149  -12.1810  -43.4142 O.2       2 UNK        -0.5000 
     62 CA          2.3226  -11.9890  -45.8095 C.3       2 UNK         0.1400 
     63 CB          3.6588  -12.7515  -45.8474 C.3       2 UNK        -0.1800 
     64 N           1.4518  -12.5193  -46.8546 N.am      2 UNK        -0.5000 
     65 C           1.1370  -11.9162  -48.0061 C.2       1 UNK         0.5000 
     66 O           1.5444  -10.8014  -48.3358 O.2       1 UNK        -0.5000 
     67 C          -2.3449  -19.4632  -47.3725 C.2       11 UNK         0.5000 
     68 O          -3.2102  -19.5411  -48.2424 O.2       11 UNK        -0.5000 
     69 N          -2.4985  -18.7632  -46.2355 N.am      12 UNK        -0.5000 
     70 CA         -3.7176  -18.0145  -45.8948 C.3       12 UNK         0.1400 
     71 CB         -3.4510  -17.0948  -44.6938 C.3       12 UNK        -0.1800 
     72 C          -4.9187  -18.9386  -45.6079 C.2       12 UNK         0.5000 
     73 O          -6.0641  -18.5364  -45.8091 O.2       12 UNK        -0.5000 
     74 N          -4.6239  -20.1743  -45.1805 N.am      13 UNK        -0.5000 
     75 CA         -5.5801  -21.2705  -45.0188 C.3       13 UNK         0.1400 
     76 CB         -4.9725  -22.3016  -44.0526 C.3       13 UNK        -0.1800 
     77 C          -5.9564  -21.9442  -46.3569 C.2       13 UNK         0.5000 
     78 O          -6.8320  -22.8088  -46.3644 O.2       13 UNK        -0.5000 
     79 N          -5.2676  -21.5687  -47.4471 N.am      14 UNK        -0.5000 
     80 CA         -5.3687  -22.0666  -48.8237 C.3       14 UNK         0.1400 
     81 CB         -6.7965  -21.9028  -49.3808 C.3       14 UNK        -0.1800 
     82 C          -4.8312  -23.4964  -49.0320 C.2       14 UNK         0.5000 
     83 O          -4.8350  -23.9718  -50.1676 O.2       14 UNK        -0.5000 
     84 N          -4.3488  -24.1474  -47.9655 N.am      15 UNK        -0.5000 
     85 CA         -3.8470  -25.5195  -47.9712 C.3       15 UNK         0.1400 
     86 CB         -3.6935  -26.0131  -46.5251 C.3       15 UNK        -0.1800 
     87 C          -2.5266  -25.6484  -48.7443 C.2       15 UNK         0.5000 
     88 O          -2.4212  -26.4943  -49.6324 O.2       15 UNK        -0.5000 
     89 N          -1.5635  -24.7671  -48.4399 N.am      16 UNK        -0.5000 
     90 CA         -0.2704  -24.7037  -49.1299 C.3       16 UNK         0.1400 
     91 CB          0.7256  -23.9102  -48.2782 C.3       16 UNK        -0.1800 
     92 C          -0.3771  -24.1074  -50.5465 C.2       16 UNK         0.5000 
     93 O           0.4985  -24.3499  -51.3766 O.2       16 UNK        -0.5000 
     94 N          -1.4636  -23.3673  -50.8051 N.am      17 UNK        -0.5000 
     95 CA         -1.8376  -22.8606  -52.1246 C.3       17 UNK         0.1400 
     96 CB         -2.7120  -21.6088  -51.9394 C.3       17 UNK        -0.1800 
     97 C          -2.5871  -23.9096  -52.9735 C.2       17 UNK         0.5000 
     98 O          -2.9103  -23.6207  -54.1270 O.2       17 UNK        -0.5000 
     99 N          -2.9174  -25.0717  -52.3842 N.am      18 UNK        -0.5000 
    100 CA        -3.7069  -26.1731  -52.9538 C.3       18 UNK         0.1400 
    101 CB        -2.9011  -26.8841  -54.0601 C.3       18 UNK        -0.1800 
    102 C         -5.1132  -25.7447  -53.4342 C.2       18 UNK         0.5000 
    103 O         -5.6786  -26.3817  -54.3245 O.2       18 UNK        -0.5000 
    104 N         -5.6273  -24.6462  -52.8589 N.am      19 UNK        -0.5000 
    105 CA        -6.8276  -23.9002  -53.2451 C.3       19 UNK         0.1400 
    106 CB        -8.0921  -24.6912  -52.8535 C.3       19 UNK        -0.1800 
    107 C         -6.8364  -23.4406  -54.7234 C.2       19 UNK         0.5000 
    108 O         -7.9152  -23.3011  -55.3038 O.2       19 UNK        -0.5000 
    109 N         -5.6503  -23.2252  -55.3149 N.am      20 UNK        -0.5000 
    110 CA        -5.4922  -22.9617  -56.7466 C.3       20 UNK         0.1400 
    111 CB        -5.1920  -24.2828  -57.4745 C.3       20 UNK        -0.1800 
    112 C         -4.4124  -21.9162  -57.0617 C.2       20 UNK         0.5000 
    113 O         -4.6227  -21.1011  -57.9616 O.2       20 UNK        -0.5000 
    114 N         -3.2803  -21.9413  -56.3414 N.am      21 UNK        -0.5000 
    115 CA        -2.0907  -21.1307  -56.6363 C.3       21 UNK         0.1400 
    116 CB        -0.9433  -21.5417  -55.7014 C.3       21 UNK        -0.1800 
    117 C         -2.3188  -19.6108  -56.5510 C.2       21 UNK         0.5000 
    118 O         -1.6655  -18.8582  -57.2745 O.2       21 UNK        -0.5000 
    119 N         -3.2420  -19.1937  -55.6773 N.am      22 UNK        -0.5000 
    120 CA        -3.6654  -17.7948  -55.5130 C.3       22 UNK         0.1400 
    121 C         -4.7694  -17.3508  -56.5207 C.2       22 UNK         0.5000 
    122 N         -5.2495  -18.2034  -57.4197 N.am      22 UNK        -0.7600 
    123 O         -5.1940  -16.1989  -56.4962 O.2       22 UNK        -0.5000 
    124 C124       -4.0808  -17.4892  -54.0478 C.3       23 UNK        -0.0398 
    125 S125       -2.8468  -17.8643  -52.7452 S.3       23 UNK        -0.2404 
    126 C126       -1.2366  -17.5164  -53.5293 C.3       23 UNK        -0.0205 
    127 H127       -3.5829  -14.1820  -47.1149 H         1 UNK         0.0600 
    128 H128       -2.2578  -15.3478  -47.1787 H         1 UNK         0.0600 
    129 H129       -2.5122  -14.3742  -45.7246 H         1 UNK         0.0600 
    130 H130       -0.6674  -14.5801  -48.5541 H         1 UNK         0.3000 
    131 H131       -0.4313  -11.9518  -49.4414 H         1 UNK         0.0600 
    132 H132        1.5629  -12.7084  -50.6509 H         1 UNK         0.0800 
    133 H133        0.2927  -13.8910  -50.7664 H         1 UNK         0.0800 
    134 H134        3.7018  -15.8309  -50.8908 H         1 UNK         0.0800 
    135 H135        2.6723  -14.7690  -51.8142 H         1 UNK         0.0800 
    136 H136        0.5179  -15.5946  -52.6898 H         1 UNK         0.1150 
    137 H137       -0.4393  -19.7411  -52.1904 H         1 UNK         0.1150 
    138 H138        2.8652  -18.0313  -50.0611 H         1 UNK         0.1150 
    139 H139        0.6542  -21.0650  -50.5647 H         1 UNK         0.0800 
    140 H140        2.3770  -20.8218  -50.7270 H         1 UNK         0.0800 
    141 H141       -0.2912  -18.7646  -48.9519 H         1 UNK         0.0800 
    142 H142        0.3366  -18.5678  -47.3452 H         1 UNK         0.0800 
    143 H143       -1.2192  -21.0276  -48.2895 H         1 UNK         0.0600 
    144 H144       -0.0393  -20.3561  -45.6845 H         1 UNK         0.3000 
    145 H145       -1.4859  -22.0060  -43.6991 H         1 UNK         0.0600 
    146 H146       -0.3848  -24.2266  -43.1801 H         1 UNK         0.0600 
    147 H147       -1.7780  -24.3465  -44.2384 H         1 UNK         0.0600 
    148 H148       -0.1600  -24.4797  -44.9116 H         1 UNK         0.0600 
    149 H149        0.4667  -21.1235  -43.2594 H         1 UNK         0.3000 
    150 H150        3.7470  -21.9172  -43.6874 H         1 UNK         0.0600 
    151 H151        3.7521  -20.8728  -45.9395 H         1 UNK         0.0600 
    152 H152        4.2851  -19.7106  -44.7349 H         1 UNK         0.0600 
    153 H153        2.6514  -19.6184  -45.3931 H         1 UNK         0.0600 
    154 H154        2.4829  -19.4357  -42.9279 H         1 UNK         0.3000 
    155 H155        1.5101  -20.4867  -39.6639 H         1 UNK         0.0600 
    156 H156        3.6886  -18.5332  -40.5774 H         1 UNK         0.0600 
    157 H157        3.9033  -19.8328  -39.4118 H         1 UNK         0.0600 
    158 H158        2.8393  -18.4861  -39.0340 H         1 UNK         0.0600 
    159 H159        1.2607  -17.9694  -40.9258 H         1 UNK         0.3000 
    160 H160       -1.7899  -18.6409  -42.7032 H         1 UNK         0.0600 
    161 H161       -2.3516  -16.5323  -41.4658 H         1 UNK         0.0600 
    162 H162       -1.0622  -16.8701  -40.3125 H         1 UNK         0.0600 
    163 H163       -2.4411  -17.9513  -40.4318 H         1 UNK         0.0600 
    164 H164       -0.0863  -16.3339  -42.6211 H         1 UNK         0.3000 
    165 H165        2.0102  -17.2972  -45.3421 H         1 UNK         0.0600 
    166 H166        1.2795  -15.2435  -46.3835 H         1 UNK         0.0600 
    167 H167       -0.0632  -16.3679  -46.4463 H         1 UNK         0.0600 
    168 H168       -0.0762  -15.0668  -45.2634 H         1 UNK         0.0600 
    169 H169        1.6890  -14.9577  -43.6231 H         1 UNK         0.3000 
    170 H170        3.9880  -16.0452  -41.1562 H         1 UNK         0.0600 
    171 H171        5.5203  -15.1947  -42.9247 H         1 UNK         0.0600 
    172 H172        4.3922  -13.8992  -43.2973 H         1 UNK         0.0600 
    173 H173        5.1784  -13.9583  -41.7234 H         1 UNK         0.0600 
    174 H174        2.5184  -13.5979  -41.7094 H         1 UNK         0.3000 
    175 H175       -0.3991  -14.5709  -39.9046 H         1 UNK         0.0600 
    176 H176        0.1459  -12.6565  -38.4358 H         1 UNK         0.0600 
    177 H177        1.1732  -14.0240  -38.0382 H         1 UNK         0.0600 
    178 H178        1.8268  -12.6827  -38.9713 H         1 UNK         0.0600 
    179 H179        0.3496  -12.0333  -40.8702 H         1 UNK         0.3000 
    180 H180       -1.6092  -12.1790  -43.6434 H         1 UNK         0.0600 
    181 H181        0.4515  -10.4401  -42.1706 H         1 UNK         0.0600 
    182 H182       -1.2354  -10.6494  -41.6959 H         1 UNK         0.0600 
    183 H183       -0.8419   -9.8735  -43.2169 H         1 UNK         0.0600 
    184 H184       -0.1816  -11.9410  -45.3229 H         1 UNK         0.3000 
    185 H185        2.5261  -10.9316  -45.9883 H         1 UNK         0.0600 
    186 H186        3.5251  -13.8082  -45.6128 H         1 UNK         0.0600 
    187 H187        4.1196  -12.6859  -46.8332 H         1 UNK         0.0600 
    188 H188        4.3698  -12.3356  -45.1329 H         1 UNK         0.0600 
    189 H189        1.0598  -13.4340  -46.6867 H         1 UNK         0.3000 
    190 H190       -1.7407  -18.7556  -45.5624 H         1 UNK         0.3000 
    191 H191       -3.9726  -17.3877  -46.7522 H         1 UNK         0.0600 
    192 H192       -2.4935  -16.5820  -44.7770 H         1 UNK         0.0600 
    193 H193       -3.4613  -17.6438  -43.7539 H         1 UNK         0.0600 
    194 H194       -4.2243  -16.3295  -44.6205 H         1 UNK         0.0600 
    195 H195       -3.6524  -20.4039  -45.0403 H         1 UNK         0.3000 
    196 H196       -6.4978  -20.8786  -44.5755 H         1 UNK         0.0600 
    197 H197       -5.6771  -23.1089  -43.8480 H         1 UNK         0.0600 
    198 H198       -4.7186  -21.8456  -43.0955 H         1 UNK         0.0600 
    199 H199       -4.0680  -22.7544  -44.4601 H         1 UNK         0.0600 
    200 H200       -4.5724  -20.8413  -47.3320 H         1 UNK         0.3000 
    201 H201       -4.7192  -21.4195  -49.4131 H         1 UNK         0.0600 
    202 H202       -7.1649  -20.8880  -49.2305 H         1 UNK         0.0600 
    203 H203       -7.4998  -22.5907  -48.9112 H         1 UNK         0.0600 
    204 H204       -6.8206  -22.0989  -50.4522 H         1 UNK         0.0600 
    205 H205       -4.3223  -23.6587  -47.0828 H         1 UNK         0.3000 
    206 H206       -4.5885  -26.1489  -48.4680 H         1 UNK         0.0600 
    207 H207       -4.6472  -25.9885  -45.9975 H         1 UNK         0.0600 
    208 H208       -3.3333  -27.0424  -46.4994 H         1 UNK         0.0600 
    209 H209       -2.9858  -25.4029  -45.9646 H         1 UNK         0.0600 
    210 H210       -1.7347  -24.0826  -47.7071 H         1 UNK         0.3000 
    211 H211        0.1145  -25.7205  -49.2333 H         1 UNK         0.0600 
    212 H212        0.3979  -22.8832  -48.1315 H         1 UNK         0.0600 
    213 H213        1.7086  -23.8747  -48.7493 H         1 UNK         0.0600 
    214 H214        0.8515  -24.3670  -47.2971 H         1 UNK         0.0600 
    215 H215       -2.1363  -23.2408  -50.0640 H         1 UNK         0.3000 
    216 H216       -0.9329  -22.5749  -52.6642 H         1 UNK         0.0600 
    217 H217       -2.8651  -21.0951  -52.8890 H         1 UNK         0.0600 
    218 H218       -2.2550  -20.8950  -51.2539 H         1 UNK         0.0600 
    219 H219       -3.6976  -21.8595  -51.5484 H         1 UNK         0.0600 
    220 H220       -2.6427  -25.2088  -51.4199 H         1 UNK         0.3000 
    221 H221       -3.8663  -26.8859  -52.1437 H         1 UNK         0.0600 
    222 H222       -2.7627  -26.2447  -54.9327 H         1 UNK         0.0600 
    223 H223       -1.9153  -27.1796  -53.7009 H         1 UNK         0.0600 
    224 H224       -3.4073  -27.7901  -54.3950 H         1 UNK         0.0600 
    225 H225       -5.1216  -24.2663  -52.0631 H         1 UNK         0.3000 
    226 H226       -6.8153  -22.9847  -52.6539 H         1 UNK         0.0600 
    227 H227       -8.0666  -24.9756  -51.8014 H         1 UNK         0.0600 
    228 H228       -8.1972  -25.6011  -53.4450 H         1 UNK         0.0600 
    229 H229       -8.9929  -24.0951  -53.0039 H         1 UNK         0.0600 
    230 H230       -4.8006  -23.3640  -54.7783 H         1 UNK         0.3000 
    231 H231       -6.4227  -22.5596  -57.1529 H         1 UNK         0.0600 
    232 H232       -6.0107  -24.9926  -57.3543 H         1 UNK         0.0600 
    233 H233       -4.2853  -24.7534  -57.0915 H         1 UNK         0.0600 
    234 H234       -5.0554  -24.1212  -58.5445 H         1 UNK         0.0600 
    235 H235       -3.1704  -22.6319  -55.6018 H         1 UNK         0.3000 
    236 H236       -1.7898  -21.3580  -57.6610 H         1 UNK         0.0600 
    237 H237       -0.0193  -21.0278  -55.9693 H         1 UNK         0.0600 
    238 H238       -1.1650  -21.2902  -54.6648 H         1 UNK         0.0600 
    239 H239       -0.7477  -22.6127  -55.7568 H         1 UNK         0.0600 
    240 H240       -3.7384  -19.8830  -55.1332 H         1 UNK         0.3000 
    241 H241       -2.8164  -17.1512  -55.7470 H         1 UNK         0.0600 
    242 H242       -5.9582  -17.8890  -58.0635 H         1 UNK         0.3800 
    243 H243       -4.9037  -19.1541  -57.4889 H         1 UNK         0.3800 
    244 H244       -4.3320  -16.4321  -53.9462 H         1 UNK         0.0800 
    245 H245       -4.9928  -18.0349  -53.8003 H         1 UNK         0.0800 
    246 H246       -1.2567  -16.5135  -53.9582 H         1 UNK         0.0800 
    247 H247       -1.0599  -18.2086  -54.3510 H         1 UNK         0.0800 
@<TRIPOS>BOND
     1    1    2 1    
     2    1  127 1    
     3    1  128 1    
     4    1  129 1    
     5    2    3 2    
     6    2    4 am   BACKBONE|DICT|INTERRES
     7    4    5 1    
     8    4  130 1    
     9    5    6 1    
    10    5   65 1    
    11    5  131 1    
    12    6    7 1    
    13    6  132 1    
    14    6  133 1    
    15    7    8 1    
    16    8    9 1    
    17    8  134 1    
    18    8  135 1    
    19    9   10 ar   
    20    9   14 ar   
    21   10   11 ar   
    22   10  136 1    
    23   11   12 ar   
    24   11  126 1    
    25   12   13 ar   
    26   12  137 1    
    27   13   14 ar   
    28   13   15 1    
    29   14  138 1    
    30   15   16 1    
    31   15  139 1    
    32   15  140 1    
    33   16   17 1    
    34   17   18 1    
    35   17  141 1    
    36   17  142 1    
    37   18   19 1    
    38   18   67 1    
    39   18  143 1    
    40   19   20 am   BACKBONE|DICT|INTERRES
    41   19  144 1    
    42   20   21 2    
    43   20   22 1    
    44   22   23 1    
    45   22   24 1    
    46   22  145 1    
    47   23  146 1    
    48   23  147 1    
    49   23  148 1    
    50   24   25 am   BACKBONE|DICT|INTERRES
    51   24  149 1    
    52   25   26 2    
    53   25   27 1    
    54   27   28 1    
    55   27   29 1    
    56   27  150 1    
    57   28  151 1    
    58   28  152 1    
    59   28  153 1    
    60   29   30 am   BACKBONE|DICT|INTERRES
    61   29  154 1    
    62   30   31 2    
    63   30   32 1    
    64   32   33 1    
    65   32   34 1    
    66   32  155 1    
    67   33  156 1    
    68   33  157 1    
    69   33  158 1    
    70   34   35 am   BACKBONE|DICT|INTERRES
    71   34  159 1    
    72   35   36 2    
    73   35   37 1    
    74   37   38 1    
    75   37   39 1    
    76   37  160 1    
    77   38  161 1    
    78   38  162 1    
    79   38  163 1    
    80   39   40 am   BACKBONE|DICT|INTERRES
    81   39  164 1    
    82   40   41 2    
    83   40   42 1    
    84   42   43 1    
    85   42   44 1    
    86   42  165 1    
    87   43  166 1    
    88   43  167 1    
    89   43  168 1    
    90   44   45 am   BACKBONE|DICT|INTERRES
    91   44  169 1    
    92   45   46 2    
    93   45   47 1    
    94   47   48 1    
    95   47   49 1    
    96   47  170 1    
    97   48  171 1    
    98   48  172 1    
    99   48  173 1    
   100   49   50 am   BACKBONE|DICT|INTERRES
   101   49  174 1    
   102   50   51 2    
   103   50   52 1    
   104   52   53 1    
   105   52   54 1    
   106   52  175 1    
   107   53  176 1    
   108   53  177 1    
   109   53  178 1    
   110   54   55 am   BACKBONE|DICT|INTERRES
   111   54  179 1    
   112   55   56 2    
   113   55   57 1    
   114   57   58 1    
   115   57   59 1    
   116   57  180 1    
   117   58  181 1    
   118   58  182 1    
   119   58  183 1    
   120   59   60 am   BACKBONE|DICT|INTERRES
   121   59  184 1    
   122   60   61 2    
   123   60   62 1    
   124   62   63 1    
   125   62   64 1    
   126   62  185 1    
   127   63  186 1    
   128   63  187 1    
   129   63  188 1    
   130   64   65 am   BACKBONE|DICT|INTERRES
   131   64  189 1    
   132   65   66 2    
   133   67   68 2    
   134   67   69 am   BACKBONE|DICT|INTERRES
   135   69   70 1    
   136   69  190 1    
   137   70   71 1    
   138   70   72 1    
   139   70  191 1    
   140   71  192 1    
   141   71  193 1    
   142   71  194 1    
   143   72   73 2    
   144   72   74 am   BACKBONE|DICT|INTERRES
   145   74   75 1    
   146   74  195 1    
   147   75   76 1    
   148   75   77 1    
   149   75  196 1    
   150   76  197 1    
   151   76  198 1    
   152   76  199 1    
   153   77   78 2    
   154   77   79 am   BACKBONE|DICT|INTERRES
   155   79   80 1    
   156   79  200 1    
   157   80   81 1    
   158   80   82 1    
   159   80  201 1    
   160   81  202 1    
   161   81  203 1    
   162   81  204 1    
   163   82   83 2    
   164   82   84 am   BACKBONE|DICT|INTERRES
   165   84   85 1    
   166   84  205 1    
   167   85   86 1    
   168   85   87 1    
   169   85  206 1    
   170   86  207 1    
   171   86  208 1    
   172   86  209 1    
   173   87   88 2    
   174   87   89 am   BACKBONE|DICT|INTERRES
   175   89   90 1    
   176   89  210 1    
   177   90   91 1    
   178   90   92 1    
   179   90  211 1    
   180   91  212 1    
   181   91  213 1    
   182   91  214 1    
   183   92   93 2    
   184   92   94 am   BACKBONE|DICT|INTERRES
   185   94   95 1    
   186   94  215 1    
   187   95   96 1    
   188   95   97 1    
   189   95  216 1    
   190   96  217 1    
   191   96  218 1    
   192   96  219 1    
   193   97   98 2    
   194   97   99 am   BACKBONE|DICT|INTERRES
   195   99  100 1    
   196   99  220 1    
   197  100  101 1    
   198  100  102 1    
   199  100  221 1    
   200  101  222 1    
   201  101  223 1    
   202  101  224 1    
   203  102  103 2    
   204  102  104 am   BACKBONE|DICT|INTERRES
   205  104  105 1    
   206  104  225 1    
   207  105  106 1    
   208  105  107 1    
   209  105  226 1    
   210  106  227 1    
   211  106  228 1    
   212  106  229 1    
   213  107  108 2    
   214  107  109 am   BACKBONE|DICT|INTERRES
   215  109  110 1    
   216  109  230 1    
   217  110  111 1    
   218  110  112 1    
   219  110  231 1    
   220  111  232 1    
   221  111  233 1    
   222  111  234 1    
   223  112  113 2    
   224  112  114 am   BACKBONE|DICT|INTERRES
   225  114  115 1    
   226  114  235 1    
   227  115  116 1    
   228  115  117 1    
   229  115  236 1    
   230  116  237 1    
   231  116  238 1    
   232  116  239 1    
   233  117  118 2    
   234  117  119 am   BACKBONE|DICT|INTERRES
   235  119  120 1    
   236  119  240 1    
   237  120  121 1    
   238  120  124 1    
   239  120  241 1    
   240  121  122 am   BACKBONE|DICT|INTERRES
   241  121  123 2    
   242  122  242 1    
   243  122  243 1    
   244  124  125 1    
   245  124  244 1    
   246  124  245 1    
   247  125  126 1    
   248  126  246 1    
   249  126  247 1    
@<TRIPOS>SUBSTRUCTURE
     1 UNK         1 GROUP             0       ****    0 ROOT    
