@<TRIPOS>MOLECULE
3R540
247   249    1
SMALL
USER_CHARGES


@<TRIPOS>ATOM
      1 CA          5.5013  -10.5028  -48.9139 C.3       0 UNK        -0.1800 
      2 C           4.9223  -11.7796  -48.3218 C.2       0 UNK         0.5000 
      3 O           5.6509  -12.7532  -48.1281 O.2       0 UNK        -0.5000 
      4 N           3.6192  -11.7790  -48.0139 N.am      1 UNK        -0.5000 
      5 CA          2.8635  -12.9043  -47.4457 C.3       1 UNK         0.1400 
      6 C6          1.3753  -12.8352  -47.8815 C.3       23 UNK        -0.0398 
      7 S7          0.6005  -14.4780  -48.0409 S.3       23 UNK        -0.2404 
      8 C8          0.9344  -14.8559  -49.7892 C.3       23 UNK        -0.0205 
      9 C9          0.1638  -16.0807  -50.2596 C.ar      23 UNK        -0.0193 
     10 C10        -1.0668  -15.9282  -50.9043 C.ar      23 UNK        -0.1150 
     11 C11        -1.7622  -17.0422  -51.3829 C.ar      23 UNK        -0.0193 
     12 C12        -1.2316  -18.3196  -51.1860 C.ar      23 UNK        -0.1150 
     13 C13        -0.0050  -18.4911  -50.5376 C.ar      23 UNK        -0.0193 
     14 C14         0.6930  -17.3632  -50.0866 C.ar      23 UNK        -0.1150 
     15 C15         0.5628  -19.8993  -50.3728 C.3       23 UNK        -0.0205 
     16 S16         1.3067  -20.2087  -48.7380 S.3       23 UNK        -0.2404 
     17 C17        -0.1175  -19.9521  -47.6330 C.3       23 UNK        -0.0398 
     18 CA         -0.3816  -21.1713  -46.7186 C.3       11 UNK         0.1400 
     19 N          -0.6298  -20.7697  -45.3314 N.am      11 UNK        -0.5000 
     20 C          -0.7917  -21.6023  -44.2932 C.2       10 UNK         0.5000 
     21 O          -0.7533  -22.8303  -44.3865 O.2       10 UNK        -0.5000 
     22 CA         -1.0994  -20.9459  -42.9387 C.3       10 UNK         0.1400 
     23 CB          0.1977  -20.5906  -42.1960 C.3       10 UNK        -0.1800 
     24 N          -1.9221  -19.7471  -43.1209 N.am      10 UNK        -0.5000 
     25 C          -3.2567  -19.7781  -43.2394 C.2       9 UNK         0.5000 
     26 O          -3.9297  -20.8003  -43.1034 O.2       9 UNK        -0.5000 
     27 CA         -3.9628  -18.4565  -43.5903 C.3       9 UNK         0.1400 
     28 CB         -4.2473  -17.6442  -42.3185 C.3       9 UNK        -0.1800 
     29 N          -3.2244  -17.6346  -44.5535 N.am      9 UNK        -0.5000 
     30 C          -3.0647  -17.9553  -45.8469 C.2       8 UNK         0.5000 
     31 O          -3.4431  -19.0268  -46.3193 O.2       8 UNK        -0.5000 
     32 CA         -2.3441  -16.9610  -46.7805 C.3       8 UNK         0.1400 
     33 CB         -3.2058  -16.5854  -48.0008 C.3       8 UNK        -0.1800 
     34 N          -1.8010  -15.7796  -46.1120 N.am      8 UNK        -0.5000 
     35 C          -2.4286  -14.6870  -45.6583 C.2       7 UNK         0.5000 
     36 O          -3.6395  -14.4853  -45.7579 O.2       7 UNK        -0.5000 
     37 CA         -1.5143  -13.6724  -44.9321 C.3       7 UNK         0.1400 
     38 CB         -2.2983  -12.6624  -44.0689 C.3       7 UNK        -0.1800 
     39 N          -0.4627  -14.3303  -44.1400 N.am      7 UNK        -0.5000 
     40 C          -0.6670  -15.2241  -43.1590 C.2       6 UNK         0.5000 
     41 O          -1.7849  -15.5746  -42.7803 O.2       6 UNK        -0.5000 
     42 CA          0.5867  -15.8734  -42.5496 C.3       6 UNK         0.1400 
     43 CB          0.2544  -16.8693  -41.4198 C.3       6 UNK        -0.1800 
     44 N           1.4316  -16.5145  -43.5592 N.am      6 UNK        -0.5000 
     45 C           1.1219  -17.5007  -44.4138 C.2       5 UNK         0.5000 
     46 O          -0.0001  -17.9971  -44.5265 O.2       5 UNK        -0.5000 
     47 CA          2.2733  -18.0419  -45.2804 C.3       5 UNK         0.1400 
     48 CB          2.3933  -17.2255  -46.5752 C.3       5 UNK        -0.1800 
     49 N           3.5469  -17.9771  -44.5670 N.am      5 UNK        -0.5000 
     50 C           4.1422  -18.9925  -43.9297 C.2       4 UNK         0.5000 
     51 O           3.7253  -20.1508  -43.9414 O.2       4 UNK        -0.5000 
     52 CA          5.4180  -18.6476  -43.1301 C.3       4 UNK         0.1400 
     53 CB          6.6588  -18.7376  -44.0314 C.3       4 UNK        -0.1800 
     54 N           5.3651  -17.3155  -42.5189 N.am      4 UNK        -0.5000 
     55 C           4.5391  -16.9783  -41.5192 C.2       3 UNK         0.5000 
     56 O           3.8401  -17.7957  -40.9205 O.2       3 UNK        -0.5000 
     57 CA          4.4479  -15.4882  -41.1165 C.3       3 UNK         0.1400 
     58 CB          5.2431  -15.2434  -39.8245 C.3       3 UNK        -0.1800 
     59 N           4.8523  -14.4795  -42.1098 N.am      3 UNK        -0.5000 
     60 C           4.4725  -14.3900  -43.3921 C.2       2 UNK         0.5000 
     61 O           3.8489  -15.2740  -43.9762 O.2       2 UNK        -0.5000 
     62 CA          4.8721  -13.1053  -44.1443 C.3       2 UNK         0.1400 
     63 CB          6.4022  -12.9591  -44.2103 C.3       2 UNK        -0.1800 
     64 N           4.3551  -13.0449  -45.5136 N.am      2 UNK        -0.5000 
     65 C           3.0754  -13.0066  -45.9129 C.2       1 UNK         0.5000 
     66 O           2.1125  -13.0168  -45.1406 O.2       1 UNK        -0.5000 
     67 C          -1.4976  -22.0730  -47.2815 C.2       11 UNK         0.5000 
     68 O          -1.1935  -23.0356  -47.9817 O.2       11 UNK        -0.5000 
     69 N          -2.7509  -21.7932  -46.8909 N.am      12 UNK        -0.5000 
     70 CA         -3.9428  -22.5867  -47.1945 C.3       12 UNK         0.1400 
     71 CB         -5.1734  -21.9004  -46.5827 C.3       12 UNK        -0.1800 
     72 C          -3.8705  -24.0589  -46.7370 C.2       12 UNK         0.5000 
     73 O          -4.5466  -24.9019  -47.3265 O.2       12 UNK        -0.5000 
     74 N          -3.0607  -24.3467  -45.7099 N.am      13 UNK        -0.5000 
     75 CA         -2.7573  -25.7017  -45.2601 C.3       13 UNK         0.1400 
     76 CB         -2.6927  -25.7272  -43.7244 C.3       13 UNK        -0.1800 
     77 C          -1.4358  -26.1935  -45.8729 C.2       13 UNK         0.5000 
     78 O          -1.3854  -27.3095  -46.3905 O.2       13 UNK        -0.5000 
     79 N          -0.3891  -25.3598  -45.7947 N.am      14 UNK        -0.5000 
     80 CA          0.9857  -25.7132  -46.1533 C.3       14 UNK         0.1400 
     81 CB          1.9348  -24.6368  -45.6042 C.3       14 UNK        -0.1800 
     82 C           1.2344  -25.9269  -47.6591 C.2       14 UNK         0.5000 
     83 O           2.0854  -26.7452  -48.0108 O.2       14 UNK        -0.5000 
     84 N           0.5188  -25.1879  -48.5147 N.am      15 UNK        -0.5000 
     85 CA          0.7183  -25.1497  -49.9659 C.3       15 UNK         0.1400 
     86 CB          1.4271  -23.8313  -50.3277 C.3       15 UNK        -0.1800 
     87 C          -0.6051  -25.3242  -50.7362 C.2       15 UNK         0.5000 
     88 O          -0.6770  -24.9390  -51.9047 O.2       15 UNK        -0.5000 
     89 N          -1.6139  -25.9104  -50.0727 N.am      16 UNK        -0.5000 
     90 CA         -3.0106  -26.0726  -50.5003 C.3       16 UNK         0.1400 
     91 CB         -3.1183  -26.8254  -51.8436 C.3       16 UNK        -0.1800 
     92 C          -3.7928  -24.7419  -50.5165 C.2       16 UNK         0.5000 
     93 O          -3.2022  -23.6690  -50.3865 O.2       16 UNK        -0.5000 
     94 N          -5.1262  -24.8597  -50.6138 N.am      17 UNK        -0.5000 
     95 CA         -6.1244  -23.8049  -50.4054 C.3       17 UNK         0.1400 
     96 CB         -7.5007  -24.3283  -50.8449 C.3       17 UNK        -0.1800 
     97 C          -5.8190  -22.4754  -51.1176 C.2       17 UNK         0.5000 
     98 O          -5.5756  -22.4719  -52.3258 O.2       17 UNK        -0.5000 
     99 N          -5.8834  -21.3680  -50.3649 N.am      18 UNK        -0.5000 
    100 CA        -5.5796  -20.0146  -50.8384 C.3       18 UNK         0.1400 
    101 CB        -5.6476  -19.0351  -49.6582 C.3       18 UNK        -0.1800 
    102 C         -6.4897  -19.5482  -51.9895 C.2       18 UNK         0.5000 
    103 O         -6.0221  -18.8532  -52.8897 O.2       18 UNK        -0.5000 
    104 N         -7.7548  -19.9895  -51.9676 N.am      19 UNK        -0.5000 
    105 CA        -8.7451  -19.7473  -53.0180 C.3       19 UNK         0.1400 
    106 CB       -10.1261  -20.1878  -52.5088 C.3       19 UNK        -0.1800 
    107 C         -8.4153  -20.4463  -54.3529 C.2       19 UNK         0.5000 
    108 O         -8.8700  -19.9820  -55.3987 O.2       19 UNK        -0.5000 
    109 N         -7.6379  -21.5371  -54.2997 N.am      20 UNK        -0.5000 
    110 CA        -7.1206  -22.2362  -55.4726 C.3       20 UNK         0.1400 
    111 CB        -7.0177  -23.7423  -55.1793 C.3       20 UNK        -0.1800 
    112 C         -5.7590  -21.6526  -55.8807 C.2       20 UNK         0.5000 
    113 O         -5.5728  -21.3151  -57.0501 O.2       20 UNK        -0.5000 
    114 N         -4.8477  -21.5103  -54.9061 N.am      21 UNK        -0.5000 
    115 CA        -3.4780  -21.0184  -55.0856 C.3       21 UNK         0.1400 
    116 CB        -2.7271  -21.1122  -53.7488 C.3       21 UNK        -0.1800 
    117 C         -3.3966  -19.5890  -55.6554 C.2       21 UNK         0.5000 
    118 O         -2.5433  -19.3250  -56.5036 O.2       21 UNK        -0.5000 
    119 N         -4.3045  -18.7158  -55.2067 N.am      22 UNK        -0.5000 
    120 CA        -4.4988  -17.3470  -55.7095 C.3       22 UNK         0.1400 
    121 C         -5.8012  -17.2073  -56.5531 C.2       22 UNK         0.5000 
    122 N         -6.3906  -18.2882  -57.0513 N.am      22 UNK        -0.7600 
    123 O         -6.2819  -16.1008  -56.7834 O.2       22 UNK        -0.5000 
    124 C124       -4.4159  -16.3009  -54.5651 C.3       23 UNK        -0.0398 
    125 S125       -2.7526  -16.2360  -53.8174 S.3       23 UNK        -0.2404 
    126 C126       -3.0690  -16.8617  -52.1391 C.3       23 UNK        -0.0205 
    127 H127        4.7436   -9.7267  -49.0239 H         1 UNK         0.0600 
    128 H128        5.9264  -10.7049  -49.8970 H         1 UNK         0.0600 
    129 H129        6.2929  -10.1171  -48.2715 H         1 UNK         0.0600 
    130 H130        3.0887  -10.9310  -48.1565 H         1 UNK         0.3000 
    131 H131        3.2845  -13.8189  -47.8695 H         1 UNK         0.0600 
    132 H132        1.2881  -12.3402  -48.8497 H         1 UNK         0.0800 
    133 H133        0.7837  -12.2209  -47.2012 H         1 UNK         0.0800 
    134 H134        0.6684  -13.9977  -50.4080 H         1 UNK         0.0800 
    135 H135        2.0053  -15.0137  -49.9261 H         1 UNK         0.0800 
    136 H136       -1.4752  -14.9390  -51.0565 H         1 UNK         0.1150 
    137 H137       -1.7659  -19.1823  -51.5565 H         1 UNK         0.1150 
    138 H138        1.6522  -17.4814  -49.6031 H         1 UNK         0.1150 
    139 H139       -0.2114  -20.6493  -50.5450 H         1 UNK         0.0800 
    140 H140        1.3228  -20.0590  -51.1384 H         1 UNK         0.0800 
    141 H141        0.1278  -19.0788  -47.0350 H         1 UNK         0.0800 
    142 H142       -1.0046  -19.6675  -48.2027 H         1 UNK         0.0800 
    143 H143        0.5223  -21.7814  -46.6797 H         1 UNK         0.0600 
    144 H144       -0.6563  -19.7743  -45.1411 H         1 UNK         0.3000 
    145 H145       -1.6421  -21.6722  -42.3298 H         1 UNK         0.0600 
    146 H146       -0.0137  -20.1384  -41.2271 H         1 UNK         0.0600 
    147 H147        0.7954  -21.4844  -42.0132 H         1 UNK         0.0600 
    148 H148        0.8199  -19.8979  -42.7615 H         1 UNK         0.0600 
    149 H149       -1.4335  -18.8789  -43.3106 H         1 UNK         0.3000 
    150 H150       -4.9235  -18.7084  -44.0447 H         1 UNK         0.0600 
    151 H151       -4.9081  -18.1941  -41.6474 H         1 UNK         0.0600 
    152 H152       -4.7338  -16.6971  -42.5523 H         1 UNK         0.0600 
    153 H153       -3.3331  -17.4261  -41.7658 H         1 UNK         0.0600 
    154 H154       -2.8320  -16.7674  -44.2047 H         1 UNK         0.3000 
    155 H155       -1.4691  -17.4800  -47.1652 H         1 UNK         0.0600 
    156 H156       -2.7325  -15.8044  -48.5950 H         1 UNK         0.0600 
    157 H157       -4.1953  -16.2332  -47.7086 H         1 UNK         0.0600 
    158 H158       -3.3428  -17.4479  -48.6524 H         1 UNK         0.0600 
    159 H159       -0.8081  -15.8251  -45.9328 H         1 UNK         0.3000 
    160 H160       -1.0036  -13.1086  -45.7131 H         1 UNK         0.0600 
    161 H161       -1.6258  -11.9577  -43.5799 H         1 UNK         0.0600 
    162 H162       -2.9887  -12.0800  -44.6799 H         1 UNK         0.0600 
    163 H163       -2.8856  -13.1582  -43.2955 H         1 UNK         0.0600 
    164 H164        0.4905  -14.0901  -44.3976 H         1 UNK         0.3000 
    165 H165        1.1770  -15.0642  -42.1179 H         1 UNK         0.0600 
    166 H166       -0.3796  -17.6827  -41.7706 H         1 UNK         0.0600 
    167 H167        1.1583  -17.3085  -40.9993 H         1 UNK         0.0600 
    168 H168       -0.2748  -16.3725  -40.6060 H         1 UNK         0.0600 
    169 H169        2.3684  -16.1232  -43.6381 H         1 UNK         0.3000 
    170 H170        2.0422  -19.0764  -45.5417 H         1 UNK         0.0600 
    171 H171        1.4481  -17.2002  -47.1163 H         1 UNK         0.0600 
    172 H172        2.6819  -16.1928  -46.3765 H         1 UNK         0.0600 
    173 H173        3.1376  -17.6576  -47.2440 H         1 UNK         0.0600 
    174 H174        3.9337  -17.0445  -44.4489 H         1 UNK         0.3000 
    175 H175        5.5210  -19.3868  -42.3329 H         1 UNK         0.0600 
    176 H176        6.6240  -18.0054  -44.8392 H         1 UNK         0.0600 
    177 H177        7.5729  -18.5676  -43.4623 H         1 UNK         0.0600 
    178 H178        6.7391  -19.7255  -44.4867 H         1 UNK         0.0600 
    179 H179        5.9043  -16.5859  -42.9611 H         1 UNK         0.3000 
    180 H180        3.3954  -15.2984  -40.8986 H         1 UNK         0.0600 
    181 H181        6.3153  -15.3601  -39.9871 H         1 UNK         0.0600 
    182 H182        4.9515  -15.9457  -39.0422 H         1 UNK         0.0600 
    183 H183        5.0686  -14.2400  -39.4355 H         1 UNK         0.0600 
    184 H184        5.3958  -13.7155  -41.7349 H         1 UNK         0.3000 
    185 H185        4.4575  -12.2582  -43.5950 H         1 UNK         0.0600 
    186 H186        6.8463  -12.9095  -43.2156 H         1 UNK         0.0600 
    187 H187        6.8620  -13.7977  -44.7350 H         1 UNK         0.0600 
    188 H188        6.6875  -12.0445  -44.7310 H         1 UNK         0.0600 
    189 H189        5.0531  -13.0450  -46.2499 H         1 UNK         0.3000 
    190 H190       -2.9131  -20.9359  -46.3714 H         1 UNK         0.3000 
    191 H191       -4.0620  -22.5818  -48.2764 H         1 UNK         0.0600 
    192 H192       -5.3110  -20.8978  -46.9868 H         1 UNK         0.0600 
    193 H193       -6.0840  -22.4626  -46.7935 H         1 UNK         0.0600 
    194 H194       -5.0844  -21.8137  -45.4991 H         1 UNK         0.0600 
    195 H195       -2.5180  -23.6006  -45.2928 H         1 UNK         0.3000 
    196 H196       -3.5470  -26.3905  -45.5679 H         1 UNK         0.0600 
    197 H197       -2.4719  -26.7315  -43.3607 H         1 UNK         0.0600 
    198 H198       -3.6447  -25.4254  -43.2874 H         1 UNK         0.0600 
    199 H199       -1.9221  -25.0609  -43.3356 H         1 UNK         0.0600 
    200 H200       -0.5163  -24.4583  -45.3434 H         1 UNK         0.3000 
    201 H201        1.2232  -26.6534  -45.6510 H         1 UNK         0.0600 
    202 H202        1.8218  -24.5216  -44.5259 H         1 UNK         0.0600 
    203 H203        1.7513  -23.6666  -46.0651 H         1 UNK         0.0600 
    204 H204        2.9762  -24.8985  -45.7959 H         1 UNK         0.0600 
    205 H205       -0.1590  -24.5156  -48.1558 H         1 UNK         0.3000 
    206 H206        1.3578  -25.9754  -50.2829 H         1 UNK         0.0600 
    207 H207        2.3627  -23.7207  -49.7794 H         1 UNK         0.0600 
    208 H208        1.6675  -23.7875  -51.3904 H         1 UNK         0.0600 
    209 H209        0.7994  -22.9707  -50.0952 H         1 UNK         0.0600 
    210 H210       -1.4276  -26.1685  -49.1139 H         1 UNK         0.3000 
    211 H211       -3.4726  -26.6953  -49.7324 H         1 UNK         0.0600 
    212 H212       -2.8053  -26.2072  -52.6853 H         1 UNK         0.0600 
    213 H213       -4.1457  -27.1338  -52.0385 H         1 UNK         0.0600 
    214 H214       -2.5065  -27.7275  -51.8420 H         1 UNK         0.0600 
    215 H215       -5.5051  -25.7865  -50.7374 H         1 UNK         0.3000 
    216 H216       -6.1623  -23.6200  -49.3306 H         1 UNK         0.0600 
    217 H217       -7.7879  -25.2134  -50.2770 H         1 UNK         0.0600 
    218 H218       -7.5102  -24.5908  -51.9039 H         1 UNK         0.0600 
    219 H219       -8.2765  -23.5779  -50.6865 H         1 UNK         0.0600 
    220 H220       -6.1207  -21.4523  -49.3882 H         1 UNK         0.3000 
    221 H221       -4.5542  -20.0197  -51.2094 H         1 UNK         0.0600 
    222 H222       -5.4140  -18.0194  -49.9801 H         1 UNK         0.0600 
    223 H223       -6.6393  -19.0158  -49.2048 H         1 UNK         0.0600 
    224 H224       -4.9289  -19.3027  -48.8832 H         1 UNK         0.0600 
    225 H225       -8.0499  -20.5596  -51.1890 H         1 UNK         0.3000 
    226 H226       -8.7762  -18.6728  -53.2107 H         1 UNK         0.0600 
    227 H227      -10.8976  -19.9958  -53.2558 H         1 UNK         0.0600 
    228 H228      -10.1490  -21.2541  -52.2799 H         1 UNK         0.0600 
    229 H229      -10.4068  -19.6434  -51.6070 H         1 UNK         0.0600 
    230 H230       -7.2582  -21.8245  -53.4065 H         1 UNK         0.3000 
    231 H231       -7.8082  -22.1107  -56.3119 H         1 UNK         0.0600 
    232 H232       -6.6648  -24.2843  -56.0575 H         1 UNK         0.0600 
    233 H233       -7.9894  -24.1567  -54.9106 H         1 UNK         0.0600 
    234 H234       -6.3268  -23.9584  -54.3644 H         1 UNK         0.0600 
    235 H235       -5.0903  -21.8261  -53.9693 H         1 UNK         0.3000 
    236 H236       -2.9859  -21.6840  -55.7976 H         1 UNK         0.0600 
    237 H237       -2.7196  -22.1337  -53.3667 H         1 UNK         0.0600 
    238 H238       -1.6890  -20.7959  -53.8583 H         1 UNK         0.0600 
    239 H239       -3.1857  -20.4770  -52.9929 H         1 UNK         0.0600 
    240 H240       -4.9622  -19.0050  -54.4881 H         1 UNK         0.3000 
    241 H241       -3.7017  -17.1050  -56.4143 H         1 UNK         0.0600 
    242 H242       -7.2370  -18.1853  -57.5882 H         1 UNK         0.3800 
    243 H243       -5.9908  -19.2081  -56.9215 H         1 UNK         0.3800 
    244 H244       -5.1687  -16.5004  -53.8017 H         1 UNK         0.0800 
    245 H245       -4.6274  -15.2992  -54.9422 H         1 UNK         0.0800 
    246 H246       -3.7164  -16.1676  -51.6013 H         1 UNK         0.0800 
    247 H247       -3.6062  -17.8083  -52.2036 H         1 UNK         0.0800 
@<TRIPOS>BOND
     1    1    2 1    
     2    1  127 1    
     3    1  128 1    
     4    1  129 1    
     5    2    3 2    
     6    2    4 am   BACKBONE|DICT|INTERRES
     7    4    5 1    
     8    4  130 1    
     9    5    6 1    
    10    5   65 1    
    11    5  131 1    
    12    6    7 1    
    13    6  132 1    
    14    6  133 1    
    15    7    8 1    
    16    8    9 1    
    17    8  134 1    
    18    8  135 1    
    19    9   10 ar   
    20    9   14 ar   
    21   10   11 ar   
    22   10  136 1    
    23   11   12 ar   
    24   11  126 1    
    25   12   13 ar   
    26   12  137 1    
    27   13   14 ar   
    28   13   15 1    
    29   14  138 1    
    30   15   16 1    
    31   15  139 1    
    32   15  140 1    
    33   16   17 1    
    34   17   18 1    
    35   17  141 1    
    36   17  142 1    
    37   18   19 1    
    38   18   67 1    
    39   18  143 1    
    40   19   20 am   BACKBONE|DICT|INTERRES
    41   19  144 1    
    42   20   21 2    
    43   20   22 1    
    44   22   23 1    
    45   22   24 1    
    46   22  145 1    
    47   23  146 1    
    48   23  147 1    
    49   23  148 1    
    50   24   25 am   BACKBONE|DICT|INTERRES
    51   24  149 1    
    52   25   26 2    
    53   25   27 1    
    54   27   28 1    
    55   27   29 1    
    56   27  150 1    
    57   28  151 1    
    58   28  152 1    
    59   28  153 1    
    60   29   30 am   BACKBONE|DICT|INTERRES
    61   29  154 1    
    62   30   31 2    
    63   30   32 1    
    64   32   33 1    
    65   32   34 1    
    66   32  155 1    
    67   33  156 1    
    68   33  157 1    
    69   33  158 1    
    70   34   35 am   BACKBONE|DICT|INTERRES
    71   34  159 1    
    72   35   36 2    
    73   35   37 1    
    74   37   38 1    
    75   37   39 1    
    76   37  160 1    
    77   38  161 1    
    78   38  162 1    
    79   38  163 1    
    80   39   40 am   BACKBONE|DICT|INTERRES
    81   39  164 1    
    82   40   41 2    
    83   40   42 1    
    84   42   43 1    
    85   42   44 1    
    86   42  165 1    
    87   43  166 1    
    88   43  167 1    
    89   43  168 1    
    90   44   45 am   BACKBONE|DICT|INTERRES
    91   44  169 1    
    92   45   46 2    
    93   45   47 1    
    94   47   48 1    
    95   47   49 1    
    96   47  170 1    
    97   48  171 1    
    98   48  172 1    
    99   48  173 1    
   100   49   50 am   BACKBONE|DICT|INTERRES
   101   49  174 1    
   102   50   51 2    
   103   50   52 1    
   104   52   53 1    
   105   52   54 1    
   106   52  175 1    
   107   53  176 1    
   108   53  177 1    
   109   53  178 1    
   110   54   55 am   BACKBONE|DICT|INTERRES
   111   54  179 1    
   112   55   56 2    
   113   55   57 1    
   114   57   58 1    
   115   57   59 1    
   116   57  180 1    
   117   58  181 1    
   118   58  182 1    
   119   58  183 1    
   120   59   60 am   BACKBONE|DICT|INTERRES
   121   59  184 1    
   122   60   61 2    
   123   60   62 1    
   124   62   63 1    
   125   62   64 1    
   126   62  185 1    
   127   63  186 1    
   128   63  187 1    
   129   63  188 1    
   130   64   65 am   BACKBONE|DICT|INTERRES
   131   64  189 1    
   132   65   66 2    
   133   67   68 2    
   134   67   69 am   BACKBONE|DICT|INTERRES
   135   69   70 1    
   136   69  190 1    
   137   70   71 1    
   138   70   72 1    
   139   70  191 1    
   140   71  192 1    
   141   71  193 1    
   142   71  194 1    
   143   72   73 2    
   144   72   74 am   BACKBONE|DICT|INTERRES
   145   74   75 1    
   146   74  195 1    
   147   75   76 1    
   148   75   77 1    
   149   75  196 1    
   150   76  197 1    
   151   76  198 1    
   152   76  199 1    
   153   77   78 2    
   154   77   79 am   BACKBONE|DICT|INTERRES
   155   79   80 1    
   156   79  200 1    
   157   80   81 1    
   158   80   82 1    
   159   80  201 1    
   160   81  202 1    
   161   81  203 1    
   162   81  204 1    
   163   82   83 2    
   164   82   84 am   BACKBONE|DICT|INTERRES
   165   84   85 1    
   166   84  205 1    
   167   85   86 1    
   168   85   87 1    
   169   85  206 1    
   170   86  207 1    
   171   86  208 1    
   172   86  209 1    
   173   87   88 2    
   174   87   89 am   BACKBONE|DICT|INTERRES
   175   89   90 1    
   176   89  210 1    
   177   90   91 1    
   178   90   92 1    
   179   90  211 1    
   180   91  212 1    
   181   91  213 1    
   182   91  214 1    
   183   92   93 2    
   184   92   94 am   BACKBONE|DICT|INTERRES
   185   94   95 1    
   186   94  215 1    
   187   95   96 1    
   188   95   97 1    
   189   95  216 1    
   190   96  217 1    
   191   96  218 1    
   192   96  219 1    
   193   97   98 2    
   194   97   99 am   BACKBONE|DICT|INTERRES
   195   99  100 1    
   196   99  220 1    
   197  100  101 1    
   198  100  102 1    
   199  100  221 1    
   200  101  222 1    
   201  101  223 1    
   202  101  224 1    
   203  102  103 2    
   204  102  104 am   BACKBONE|DICT|INTERRES
   205  104  105 1    
   206  104  225 1    
   207  105  106 1    
   208  105  107 1    
   209  105  226 1    
   210  106  227 1    
   211  106  228 1    
   212  106  229 1    
   213  107  108 2    
   214  107  109 am   BACKBONE|DICT|INTERRES
   215  109  110 1    
   216  109  230 1    
   217  110  111 1    
   218  110  112 1    
   219  110  231 1    
   220  111  232 1    
   221  111  233 1    
   222  111  234 1    
   223  112  113 2    
   224  112  114 am   BACKBONE|DICT|INTERRES
   225  114  115 1    
   226  114  235 1    
   227  115  116 1    
   228  115  117 1    
   229  115  236 1    
   230  116  237 1    
   231  116  238 1    
   232  116  239 1    
   233  117  118 2    
   234  117  119 am   BACKBONE|DICT|INTERRES
   235  119  120 1    
   236  119  240 1    
   237  120  121 1    
   238  120  124 1    
   239  120  241 1    
   240  121  122 am   BACKBONE|DICT|INTERRES
   241  121  123 2    
   242  122  242 1    
   243  122  243 1    
   244  124  125 1    
   245  124  244 1    
   246  124  245 1    
   247  125  126 1    
   248  126  246 1    
   249  126  247 1    
@<TRIPOS>SUBSTRUCTURE
     1 UNK         1 GROUP             0       ****    0 ROOT    
