@<TRIPOS>MOLECULE
3R540
247   249    1
SMALL
USER_CHARGES


@<TRIPOS>ATOM
      1 CA         -0.6006  -11.9307  -47.8028 C.3       0 UNK        -0.1800 
      2 C           0.7356  -12.6511  -47.7066 C.2       0 UNK         0.5000 
      3 O           0.8894  -13.5429  -46.8724 O.2       0 UNK        -0.5000 
      4 N           1.7054  -12.2652  -48.5483 N.am      1 UNK        -0.5000 
      5 CA          3.0756  -12.7944  -48.6399 C.3       1 UNK         0.1400 
      6 C6          3.1232  -14.3329  -48.8345 C.3       23 UNK        -0.0398 
      7 S7          4.7107  -14.9438  -49.4967 S.3       23 UNK        -0.2404 
      8 C8          4.2584  -15.4357  -51.1913 C.3       23 UNK        -0.0205 
      9 C9          3.2367  -16.5643  -51.2147 C.ar      23 UNK        -0.0193 
     10 C10         1.9239  -16.3136  -51.6247 C.ar      23 UNK        -0.1150 
     11 C11         0.9794  -17.3417  -51.6490 C.ar      23 UNK        -0.0193 
     12 C12         1.3629  -18.6338  -51.2815 C.ar      23 UNK        -0.1150 
     13 C13         2.6642  -18.8959  -50.8438 C.ar      23 UNK        -0.0193 
     14 C14         3.5993  -17.8561  -50.8202 C.ar      23 UNK        -0.1150 
     15 C15         3.0607  -20.2983  -50.3984 C.3       23 UNK        -0.0205 
     16 S16         2.4313  -20.6989  -48.7316 S.3       23 UNK        -0.2404 
     17 C17         0.7078  -21.1694  -49.0976 C.3       23 UNK        -0.0398 
     18 CA          0.1050  -22.1572  -48.0709 C.3       11 UNK         0.1400 
     19 N          -0.0458  -21.5720  -46.7347 N.am      11 UNK        -0.5000 
     20 C          -0.4751  -22.2377  -45.6515 C.2       10 UNK         0.5000 
     21 O          -0.7000  -23.4470  -45.6328 O.2       10 UNK        -0.5000 
     22 CA         -0.7806  -21.4005  -44.3992 C.3       10 UNK         0.1400 
     23 CB          0.4879  -21.1501  -43.5705 C.3       10 UNK        -0.1800 
     24 N          -1.4290  -20.1352  -44.7498 N.am      10 UNK        -0.5000 
     25 C          -2.6894  -20.0474  -45.2020 C.2       9 UNK         0.5000 
     26 O          -3.4453  -21.0135  -45.2919 O.2       9 UNK        -0.5000 
     27 CA         -3.1815  -18.6678  -45.6722 C.3       9 UNK         0.1400 
     28 CB         -3.8536  -17.9108  -44.5173 C.3       9 UNK        -0.1800 
     29 N          -2.1039  -17.8577  -46.2390 N.am      9 UNK        -0.5000 
     30 C          -1.5596  -18.0713  -47.4458 C.2       8 UNK         0.5000 
     31 O          -1.9478  -18.9462  -48.2223 O.2       8 UNK        -0.5000 
     32 CA         -0.3547  -17.1900  -47.8377 C.3       8 UNK         0.1400 
     33 CB         -0.8441  -15.9140  -48.5362 C.3       8 UNK        -0.1800 
     34 N           0.5109  -16.8235  -46.7112 N.am      8 UNK        -0.5000 
     35 C           1.1131  -17.7037  -45.8974 C.2       7 UNK         0.5000 
     36 O           1.0322  -18.9223  -46.0467 O.2       7 UNK        -0.5000 
     37 CA          1.8862  -17.1574  -44.6792 C.3       7 UNK         0.1400 
     38 CB          2.3935  -15.7162  -44.8525 C.3       7 UNK        -0.1800 
     39 N           1.1385  -17.2531  -43.4201 N.am      7 UNK        -0.5000 
     40 C          -0.1163  -16.8424  -43.1729 C.2       6 UNK         0.5000 
     41 O          -0.9019  -16.4397  -44.0302 O.2       6 UNK        -0.5000 
     42 CA         -0.5466  -16.8355  -41.6934 C.3       6 UNK         0.1400 
     43 CB         -0.8900  -18.2511  -41.2061 C.3       6 UNK        -0.1800 
     44 N           0.4788  -16.2480  -40.8250 N.am      6 UNK        -0.5000 
     45 C           0.8611  -14.9642  -40.8848 C.2       5 UNK         0.5000 
     46 O           0.3031  -14.1285  -41.6005 O.2       5 UNK        -0.5000 
     47 CA          2.0625  -14.5600  -40.0077 C.3       5 UNK         0.1400 
     48 CB          3.3148  -15.3774  -40.3734 C.3       5 UNK        -0.1800 
     49 N           2.3651  -13.1497  -40.2275 N.am      5 UNK        -0.5000 
     50 C           2.2353  -12.1579  -39.3385 C.2       4 UNK         0.5000 
     51 O           1.9577  -12.3327  -38.1511 O.2       4 UNK        -0.5000 
     52 CA          2.4381  -10.7197  -39.8672 C.3       4 UNK         0.1400 
     53 CB          3.8724  -10.2426  -39.5921 C.3       4 UNK        -0.1800 
     54 N           2.1660  -10.6002  -41.3021 N.am      4 UNK        -0.5000 
     55 C           0.9533  -10.7216  -41.8591 C.2       3 UNK         0.5000 
     56 O          -0.0889  -10.7333  -41.2022 O.2       3 UNK        -0.5000 
     57 CA          0.8747  -10.8696  -43.3962 C.3       3 UNK         0.1400 
     58 CB          0.1437   -9.6694  -44.0201 C.3       3 UNK        -0.1800 
     59 N           2.1468  -11.0554  -44.1089 N.am      3 UNK        -0.5000 
     60 C           3.0272  -12.0518  -43.9422 C.2       2 UNK         0.5000 
     61 O           2.9531  -12.8962  -43.0508 O.2       2 UNK        -0.5000 
     62 CA          4.1407  -12.1315  -44.9930 C.3       2 UNK         0.1400 
     63 CB          5.2829  -13.0929  -44.6105 C.3       2 UNK        -0.1800 
     64 N           3.5155  -12.5520  -46.2396 N.am      2 UNK        -0.5000 
     65 C           3.9663  -12.3120  -47.4732 C.2       1 UNK         0.5000 
     66 O           5.0109  -11.7041  -47.7118 O.2       1 UNK        -0.5000 
     67 C          -1.2361  -22.7153  -48.5928 C.2       11 UNK         0.5000 
     68 O          -1.2744  -23.8567  -49.0508 O.2       11 UNK        -0.5000 
     69 N          -2.3138  -21.9224  -48.4781 N.am      12 UNK        -0.5000 
     70 CA         -3.6742  -22.3192  -48.8514 C.3       12 UNK         0.1400 
     71 CB         -4.6192  -21.1148  -48.7388 C.3       12 UNK        -0.1800 
     72 C          -4.2004  -23.5099  -48.0328 C.2       12 UNK         0.5000 
     73 O          -4.7856  -24.4234  -48.6135 O.2       12 UNK        -0.5000 
     74 N          -3.9542  -23.5009  -46.7153 N.am      13 UNK        -0.5000 
     75 CA         -4.3016  -24.5888  -45.8009 C.3       13 UNK         0.1400 
     76 CB         -4.0580  -24.1495  -44.3495 C.3       13 UNK        -0.1800 
     77 C          -3.5447  -25.8912  -46.1156 C.2       13 UNK         0.5000 
     78 O          -4.1691  -26.9505  -46.1759 O.2       13 UNK        -0.5000 
     79 N          -2.2293  -25.7875  -46.3558 N.am      14 UNK        -0.5000 
     80 CA         -1.3596  -26.9031  -46.7395 C.3       14 UNK         0.1400 
     81 CB          0.1036  -26.4356  -46.7425 C.3       14 UNK        -0.1800 
     82 C          -1.7355  -27.5184  -48.1004 C.2       14 UNK         0.5000 
     83 O          -1.6848  -28.7393  -48.2528 O.2       14 UNK        -0.5000 
     84 N          -2.1404  -26.6654  -49.0496 N.am      15 UNK        -0.5000 
     85 CA         -2.6407  -27.0526  -50.3681 C.3       15 UNK         0.1400 
     86 CB         -2.4964  -25.8537  -51.3174 C.3       15 UNK        -0.1800 
     87 C          -4.1025  -27.5434  -50.3581 C.2       15 UNK         0.5000 
     88 O          -4.5887  -27.9711  -51.4046 O.2       15 UNK        -0.5000 
     89 N          -4.7979  -27.4309  -49.2153 N.am      16 UNK        -0.5000 
     90 CA         -6.2227  -27.7247  -49.0113 C.3       16 UNK         0.1400 
     91 CB         -6.4747  -29.2448  -49.0801 C.3       16 UNK        -0.1800 
     92 C          -7.1414  -26.9168  -49.9568 C.2       16 UNK         0.5000 
     93 O          -8.1526  -27.4331  -50.4350 O.2       16 UNK        -0.5000 
     94 N          -6.7357  -25.6684  -50.2322 N.am      17 UNK        -0.5000 
     95 CA         -7.3285  -24.6962  -51.1555 C.3       17 UNK         0.1400 
     96 CB         -8.7387  -24.2846  -50.6859 C.3       17 UNK        -0.1800 
     97 C          -7.3018  -25.1080  -52.6463 C.2       17 UNK         0.5000 
     98 O          -7.9272  -24.4297  -53.4629 O.2       17 UNK        -0.5000 
     99 N          -6.5673  -26.1745  -53.0013 N.am      18 UNK        -0.5000 
    100 CA        -6.3838  -26.6242  -54.3869 C.3       18 UNK         0.1400 
    101 CB        -6.0111  -28.1147  -54.3919 C.3       18 UNK        -0.1800 
    102 C         -5.3235  -25.7992  -55.1450 C.2       18 UNK         0.5000 
    103 O         -5.2643  -25.8647  -56.3736 O.2       18 UNK        -0.5000 
    104 N         -4.5144  -25.0381  -54.4034 N.am      19 UNK        -0.5000 
    105 CA        -3.5092  -24.0990  -54.8802 C.3       19 UNK         0.1400 
    106 CB        -2.1824  -24.8369  -55.1421 C.3       19 UNK        -0.1800 
    107 C         -3.3618  -22.9898  -53.8253 C.2       19 UNK         0.5000 
    108 O         -4.0122  -23.0534  -52.7762 O.2       19 UNK        -0.5000 
    109 N         -2.5131  -21.9972  -54.1264 N.am      20 UNK        -0.5000 
    110 CA        -2.2824  -20.7799  -53.3414 C.3       20 UNK         0.1400 
    111 CB        -1.6232  -21.1105  -51.9842 C.3       20 UNK        -0.1800 
    112 C         -3.5572  -19.9122  -53.2535 C.2       20 UNK         0.5000 
    113 O         -4.2564  -19.7936  -54.2624 O.2       20 UNK        -0.5000 
    114 N         -3.8177  -19.2997  -52.0856 N.am      21 UNK        -0.5000 
    115 CA        -4.9144  -18.3567  -51.8147 C.3       21 UNK         0.1400 
    116 CB        -6.2744  -19.0859  -51.8226 C.3       21 UNK        -0.1800 
    117 C         -4.8667  -17.1396  -52.7660 C.2       21 UNK         0.5000 
    118 O         -5.8565  -16.8094  -53.4211 O.2       21 UNK        -0.5000 
    119 N         -3.6714  -16.5429  -52.8560 N.am      22 UNK        -0.5000 
    120 CA        -3.2632  -15.5516  -53.8665 C.3       22 UNK         0.1400 
    121 C         -4.0051  -14.1820  -53.8226 C.2       22 UNK         0.5000 
    122 N         -4.7323  -13.8496  -52.7634 N.am      22 UNK        -0.7600 
    123 O         -3.9152  -13.4054  -54.7695 O.2       22 UNK        -0.5000 
    124 C124       -1.7250  -15.3242  -53.8592 C.3       23 UNK        -0.0398 
    125 S125       -0.7231  -16.8582  -53.8022 S.3       23 UNK        -0.2404 
    126 C126       -0.4655  -17.0372  -52.0073 C.3       23 UNK        -0.0205 
    127 H127       -0.5676  -11.1071  -48.5162 H         1 UNK         0.0600 
    128 H128       -0.8787  -11.5274  -46.8293 H         1 UNK         0.0600 
    129 H129       -1.3778  -12.6261  -48.1190 H         1 UNK         0.0600 
    130 H130        1.5090  -11.5067  -49.1867 H         1 UNK         0.3000 
    131 H131        3.4824  -12.3427  -49.5464 H         1 UNK         0.0600 
    132 H132        2.3197  -14.6291  -49.5060 H         1 UNK         0.0800 
    133 H133        2.9215  -14.8582  -47.9026 H         1 UNK         0.0800 
    134 H134        3.8872  -14.5627  -51.7306 H         1 UNK         0.0800 
    135 H135        5.1582  -15.7586  -51.7167 H         1 UNK         0.0800 
    136 H136        1.6299  -15.3139  -51.9125 H         1 UNK         0.1150 
    137 H137        0.6429  -19.4341  -51.3115 H         1 UNK         0.1150 
    138 H138        4.6100  -18.0469  -50.4875 H         1 UNK         0.1150 
    139 H139        2.7116  -21.0339  -51.1243 H         1 UNK         0.0800 
    140 H140        4.1478  -20.3890  -50.3831 H         1 UNK         0.0800 
    141 H141        0.6899  -21.6181  -50.0918 H         1 UNK         0.0800 
    142 H142        0.1078  -20.2619  -49.1557 H         1 UNK         0.0800 
    143 H143        0.7875  -23.0045  -47.9766 H         1 UNK         0.0600 
    144 H144        0.1895  -20.5885  -46.6369 H         1 UNK         0.3000 
    145 H145       -1.4710  -21.9741  -43.7772 H         1 UNK         0.0600 
    146 H146        0.9498  -22.0943  -43.2794 H         1 UNK         0.0600 
    147 H147        1.2368  -20.5807  -44.1189 H         1 UNK         0.0600 
    148 H148        0.2578  -20.6100  -42.6543 H         1 UNK         0.0600 
    149 H149       -0.8376  -19.3171  -44.7913 H         1 UNK         0.3000 
    150 H150       -3.9329  -18.8267  -46.4482 H         1 UNK         0.0600 
    151 H151       -4.2022  -16.9290  -44.8377 H         1 UNK         0.0600 
    152 H152       -3.1769  -17.7686  -43.6750 H         1 UNK         0.0600 
    153 H153       -4.7207  -18.4597  -44.1478 H         1 UNK         0.0600 
    154 H154       -1.6961  -17.1528  -45.6293 H         1 UNK         0.3000 
    155 H155        0.2486  -17.7607  -48.5465 H         1 UNK         0.0600 
    156 H156       -1.5793  -16.1430  -49.3078 H         1 UNK         0.0600 
    157 H157       -0.0190  -15.3871  -49.0145 H         1 UNK         0.0600 
    158 H158       -1.3187  -15.2305  -47.8314 H         1 UNK         0.0600 
    159 H159        0.5916  -15.8348  -46.5063 H         1 UNK         0.3000 
    160 H160        2.7618  -17.7989  -44.5693 H         1 UNK         0.0600 
    161 H161        2.9645  -15.6018  -45.7724 H         1 UNK         0.0600 
    162 H162        3.0549  -15.4485  -44.0294 H         1 UNK         0.0600 
    163 H163        1.5784  -14.9930  -44.8555 H         1 UNK         0.0600 
    164 H164        1.6745  -17.5888  -42.6335 H         1 UNK         0.3000 
    165 H165       -1.4493  -16.2252  -41.6176 H         1 UNK         0.0600 
    166 H166       -1.3602  -18.2218  -40.2230 H         1 UNK         0.0600 
    167 H167       -1.5876  -18.7451  -41.8840 H         1 UNK         0.0600 
    168 H168       -0.0014  -18.8772  -41.1292 H         1 UNK         0.0600 
    169 H169        0.9593  -16.8767  -40.1980 H         1 UNK         0.3000 
    170 H170        1.8012  -14.7450  -38.9641 H         1 UNK         0.0600 
    171 H171        4.1793  -15.0484  -39.7964 H         1 UNK         0.0600 
    172 H172        3.1764  -16.4385  -40.1651 H         1 UNK         0.0600 
    173 H173        3.5639  -15.2770  -41.4310 H         1 UNK         0.0600 
    174 H174        2.5302  -12.9095  -41.2025 H         1 UNK         0.3000 
    175 H175        1.7485  -10.0663  -39.3289 H         1 UNK         0.0600 
    176 H176        4.6074  -10.8550  -40.1161 H         1 UNK         0.0600 
    177 H177        4.0113   -9.2077  -39.9052 H         1 UNK         0.0600 
    178 H178        4.1026  -10.2928  -38.5270 H         1 UNK         0.0600 
    179 H179        2.9668  -10.5982  -41.9159 H         1 UNK         0.3000 
    180 H180        0.2762  -11.7636  -43.5844 H         1 UNK         0.0600 
    181 H181       -0.0178   -9.8153  -45.0883 H         1 UNK         0.0600 
    182 H182        0.7074   -8.7452  -43.8876 H         1 UNK         0.0600 
    183 H183       -0.8368   -9.5240  -43.5647 H         1 UNK         0.0600 
    184 H184        2.3110  -10.4116  -44.8692 H         1 UNK         0.3000 
    185 H185        4.5559  -11.1284  -45.1111 H         1 UNK         0.0600 
    186 H186        4.9392  -14.1241  -44.5381 H         1 UNK         0.0600 
    187 H187        6.0862  -13.0626  -45.3465 H         1 UNK         0.0600 
    188 H188        5.7153  -12.8209  -43.6469 H         1 UNK         0.0600 
    189 H189        2.6114  -13.0101  -46.1510 H         1 UNK         0.3000 
    190 H190       -2.1958  -20.9784  -48.1261 H         1 UNK         0.3000 
    191 H191       -3.6593  -22.6365  -49.8950 H         1 UNK         0.0600 
    192 H192       -4.7114  -20.7686  -47.7098 H         1 UNK         0.0600 
    193 H193       -5.6197  -21.3733  -49.0878 H         1 UNK         0.0600 
    194 H194       -4.2689  -20.2785  -49.3425 H         1 UNK         0.0600 
    195 H195       -3.5222  -22.6803  -46.3013 H         1 UNK         0.3000 
    196 H196       -5.3687  -24.7900  -45.9169 H         1 UNK         0.0600 
    197 H197       -4.3328  -24.9405  -43.6507 H         1 UNK         0.0600 
    198 H198       -4.6544  -23.2723  -44.0983 H         1 UNK         0.0600 
    199 H199       -3.0110  -23.9038  -44.1722 H         1 UNK         0.0600 
    200 H200       -1.7805  -24.8805  -46.2526 H         1 UNK         0.3000 
    201 H201       -1.4660  -27.6833  -45.9830 H         1 UNK         0.0600 
    202 H202        0.4050  -26.0799  -45.7571 H         1 UNK         0.0600 
    203 H203        0.2648  -25.6247  -47.4537 H         1 UNK         0.0600 
    204 H204        0.7752  -27.2510  -47.0138 H         1 UNK         0.0600 
    205 H205       -2.0865  -25.6679  -48.8644 H         1 UNK         0.3000 
    206 H206       -2.0257  -27.8684  -50.7531 H         1 UNK         0.0600 
    207 H207       -2.8290  -26.1125  -52.3221 H         1 UNK         0.0600 
    208 H208       -3.0908  -25.0029  -50.9818 H         1 UNK         0.0600 
    209 H209       -1.4588  -25.5280  -51.3919 H         1 UNK         0.0600 
    210 H210       -4.3207  -27.0425  -48.4115 H         1 UNK         0.3000 
    211 H211       -6.4605  -27.3934  -47.9996 H         1 UNK         0.0600 
    212 H212       -6.3068  -29.6382  -50.0832 H         1 UNK         0.0600 
    213 H213       -7.5016  -29.4844  -48.8019 H         1 UNK         0.0600 
    214 H214       -5.8199  -29.7829  -48.3947 H         1 UNK         0.0600 
    215 H215       -5.9088  -25.3340  -49.7388 H         1 UNK         0.3000 
    216 H216       -6.6931  -23.8116  -51.0880 H         1 UNK         0.0600 
    217 H217       -9.1179  -23.4456  -51.2703 H         1 UNK         0.0600 
    218 H218       -8.7302  -23.9716  -49.6418 H         1 UNK         0.0600 
    219 H219       -9.4541  -25.1011  -50.7868 H         1 UNK         0.0600 
    220 H220       -6.0755  -26.7012  -52.2880 H         1 UNK         0.3000 
    221 H221       -7.3307  -26.5149  -54.9197 H         1 UNK         0.0600 
    222 H222       -5.0207  -28.2845  -53.9692 H         1 UNK         0.0600 
    223 H223       -6.7276  -28.7057  -53.8210 H         1 UNK         0.0600 
    224 H224       -6.0007  -28.5082  -55.4090 H         1 UNK         0.0600 
    225 H225       -4.6837  -24.9780  -53.4075 H         1 UNK         0.3000 
    226 H226       -3.8601  -23.6362  -55.8049 H         1 UNK         0.0600 
    227 H227       -2.3207  -25.6650  -55.8374 H         1 UNK         0.0600 
    228 H228       -1.4405  -24.1705  -55.5826 H         1 UNK         0.0600 
    229 H229       -1.7544  -25.2398  -54.2245 H         1 UNK         0.0600 
    230 H230       -2.0500  -22.0225  -55.0236 H         1 UNK         0.3000 
    231 H231       -1.5668  -20.1820  -53.9079 H         1 UNK         0.0600 
    232 H232       -2.2411  -21.7717  -51.3831 H         1 UNK         0.0600 
    233 H233       -0.6660  -21.6089  -52.1354 H         1 UNK         0.0600 
    234 H234       -1.4331  -20.2176  -51.3917 H         1 UNK         0.0600 
    235 H235       -3.1940  -19.4771  -51.3119 H         1 UNK         0.3000 
    236 H236       -4.7545  -17.9701  -50.8069 H         1 UNK         0.0600 
    237 H237       -6.5258  -19.4687  -52.8121 H         1 UNK         0.0600 
    238 H238       -6.2747  -19.9277  -51.1306 H         1 UNK         0.0600 
    239 H239       -7.0781  -18.4145  -51.5182 H         1 UNK         0.0600 
    240 H240       -2.9223  -16.9032  -52.2879 H         1 UNK         0.3000 
    241 H241       -3.5176  -15.9913  -54.8328 H         1 UNK         0.0600 
    242 H242       -5.2109  -12.9626  -52.7475 H         1 UNK         0.3800 
    243 H243       -4.8296  -14.4863  -51.9893 H         1 UNK         0.3800 
    244 H244       -1.4339  -14.7868  -54.7635 H         1 UNK         0.0800 
    245 H245       -1.4358  -14.6715  -53.0341 H         1 UNK         0.0800 
    246 H246       -1.1223  -17.8196  -51.6275 H         1 UNK         0.0800 
    247 H247       -0.7569  -16.1242  -51.4895 H         1 UNK         0.0800 
@<TRIPOS>BOND
     1    1    2 1    
     2    1  127 1    
     3    1  128 1    
     4    1  129 1    
     5    2    3 2    
     6    2    4 am   BACKBONE|DICT|INTERRES
     7    4    5 1    
     8    4  130 1    
     9    5    6 1    
    10    5   65 1    
    11    5  131 1    
    12    6    7 1    
    13    6  132 1    
    14    6  133 1    
    15    7    8 1    
    16    8    9 1    
    17    8  134 1    
    18    8  135 1    
    19    9   10 ar   
    20    9   14 ar   
    21   10   11 ar   
    22   10  136 1    
    23   11   12 ar   
    24   11  126 1    
    25   12   13 ar   
    26   12  137 1    
    27   13   14 ar   
    28   13   15 1    
    29   14  138 1    
    30   15   16 1    
    31   15  139 1    
    32   15  140 1    
    33   16   17 1    
    34   17   18 1    
    35   17  141 1    
    36   17  142 1    
    37   18   19 1    
    38   18   67 1    
    39   18  143 1    
    40   19   20 am   BACKBONE|DICT|INTERRES
    41   19  144 1    
    42   20   21 2    
    43   20   22 1    
    44   22   23 1    
    45   22   24 1    
    46   22  145 1    
    47   23  146 1    
    48   23  147 1    
    49   23  148 1    
    50   24   25 am   BACKBONE|DICT|INTERRES
    51   24  149 1    
    52   25   26 2    
    53   25   27 1    
    54   27   28 1    
    55   27   29 1    
    56   27  150 1    
    57   28  151 1    
    58   28  152 1    
    59   28  153 1    
    60   29   30 am   BACKBONE|DICT|INTERRES
    61   29  154 1    
    62   30   31 2    
    63   30   32 1    
    64   32   33 1    
    65   32   34 1    
    66   32  155 1    
    67   33  156 1    
    68   33  157 1    
    69   33  158 1    
    70   34   35 am   BACKBONE|DICT|INTERRES
    71   34  159 1    
    72   35   36 2    
    73   35   37 1    
    74   37   38 1    
    75   37   39 1    
    76   37  160 1    
    77   38  161 1    
    78   38  162 1    
    79   38  163 1    
    80   39   40 am   BACKBONE|DICT|INTERRES
    81   39  164 1    
    82   40   41 2    
    83   40   42 1    
    84   42   43 1    
    85   42   44 1    
    86   42  165 1    
    87   43  166 1    
    88   43  167 1    
    89   43  168 1    
    90   44   45 am   BACKBONE|DICT|INTERRES
    91   44  169 1    
    92   45   46 2    
    93   45   47 1    
    94   47   48 1    
    95   47   49 1    
    96   47  170 1    
    97   48  171 1    
    98   48  172 1    
    99   48  173 1    
   100   49   50 am   BACKBONE|DICT|INTERRES
   101   49  174 1    
   102   50   51 2    
   103   50   52 1    
   104   52   53 1    
   105   52   54 1    
   106   52  175 1    
   107   53  176 1    
   108   53  177 1    
   109   53  178 1    
   110   54   55 am   BACKBONE|DICT|INTERRES
   111   54  179 1    
   112   55   56 2    
   113   55   57 1    
   114   57   58 1    
   115   57   59 1    
   116   57  180 1    
   117   58  181 1    
   118   58  182 1    
   119   58  183 1    
   120   59   60 am   BACKBONE|DICT|INTERRES
   121   59  184 1    
   122   60   61 2    
   123   60   62 1    
   124   62   63 1    
   125   62   64 1    
   126   62  185 1    
   127   63  186 1    
   128   63  187 1    
   129   63  188 1    
   130   64   65 am   BACKBONE|DICT|INTERRES
   131   64  189 1    
   132   65   66 2    
   133   67   68 2    
   134   67   69 am   BACKBONE|DICT|INTERRES
   135   69   70 1    
   136   69  190 1    
   137   70   71 1    
   138   70   72 1    
   139   70  191 1    
   140   71  192 1    
   141   71  193 1    
   142   71  194 1    
   143   72   73 2    
   144   72   74 am   BACKBONE|DICT|INTERRES
   145   74   75 1    
   146   74  195 1    
   147   75   76 1    
   148   75   77 1    
   149   75  196 1    
   150   76  197 1    
   151   76  198 1    
   152   76  199 1    
   153   77   78 2    
   154   77   79 am   BACKBONE|DICT|INTERRES
   155   79   80 1    
   156   79  200 1    
   157   80   81 1    
   158   80   82 1    
   159   80  201 1    
   160   81  202 1    
   161   81  203 1    
   162   81  204 1    
   163   82   83 2    
   164   82   84 am   BACKBONE|DICT|INTERRES
   165   84   85 1    
   166   84  205 1    
   167   85   86 1    
   168   85   87 1    
   169   85  206 1    
   170   86  207 1    
   171   86  208 1    
   172   86  209 1    
   173   87   88 2    
   174   87   89 am   BACKBONE|DICT|INTERRES
   175   89   90 1    
   176   89  210 1    
   177   90   91 1    
   178   90   92 1    
   179   90  211 1    
   180   91  212 1    
   181   91  213 1    
   182   91  214 1    
   183   92   93 2    
   184   92   94 am   BACKBONE|DICT|INTERRES
   185   94   95 1    
   186   94  215 1    
   187   95   96 1    
   188   95   97 1    
   189   95  216 1    
   190   96  217 1    
   191   96  218 1    
   192   96  219 1    
   193   97   98 2    
   194   97   99 am   BACKBONE|DICT|INTERRES
   195   99  100 1    
   196   99  220 1    
   197  100  101 1    
   198  100  102 1    
   199  100  221 1    
   200  101  222 1    
   201  101  223 1    
   202  101  224 1    
   203  102  103 2    
   204  102  104 am   BACKBONE|DICT|INTERRES
   205  104  105 1    
   206  104  225 1    
   207  105  106 1    
   208  105  107 1    
   209  105  226 1    
   210  106  227 1    
   211  106  228 1    
   212  106  229 1    
   213  107  108 2    
   214  107  109 am   BACKBONE|DICT|INTERRES
   215  109  110 1    
   216  109  230 1    
   217  110  111 1    
   218  110  112 1    
   219  110  231 1    
   220  111  232 1    
   221  111  233 1    
   222  111  234 1    
   223  112  113 2    
   224  112  114 am   BACKBONE|DICT|INTERRES
   225  114  115 1    
   226  114  235 1    
   227  115  116 1    
   228  115  117 1    
   229  115  236 1    
   230  116  237 1    
   231  116  238 1    
   232  116  239 1    
   233  117  118 2    
   234  117  119 am   BACKBONE|DICT|INTERRES
   235  119  120 1    
   236  119  240 1    
   237  120  121 1    
   238  120  124 1    
   239  120  241 1    
   240  121  122 am   BACKBONE|DICT|INTERRES
   241  121  123 2    
   242  122  242 1    
   243  122  243 1    
   244  124  125 1    
   245  124  244 1    
   246  124  245 1    
   247  125  126 1    
   248  126  246 1    
   249  126  247 1    
@<TRIPOS>SUBSTRUCTURE
     1 UNK         1 GROUP             0       ****    0 ROOT    
