@<TRIPOS>MOLECULE
3R540
247   249    1
SMALL
USER_CHARGES


@<TRIPOS>ATOM
      1 CA          6.6523  -18.4649  -47.4987 C.3       0 UNK        -0.1800 
      2 C           6.0321  -17.2914  -46.7536 C.2       0 UNK         0.5000 
      3 O           6.2205  -17.1668  -45.5438 O.2       0 UNK        -0.5000 
      4 N           5.2861  -16.4422  -47.4703 N.am      1 UNK        -0.5000 
      5 CA          4.6101  -15.2559  -46.9374 C.3       1 UNK         0.1400 
      6 C6          3.6087  -14.6521  -47.9552 C.3       23 UNK        -0.0398 
      7 S7          2.3446  -15.8487  -48.5061 S.3       23 UNK        -0.2404 
      8 C8          1.1053  -14.7333  -49.2242 C.3       23 UNK        -0.0205 
      9 C9         -0.0965  -15.4971  -49.7621 C.ar      23 UNK        -0.0193 
     10 C10        -0.0452  -16.0943  -51.0256 C.ar      23 UNK        -0.1150 
     11 C11        -1.1608  -16.7475  -51.5617 C.ar      23 UNK        -0.0193 
     12 C12        -2.3414  -16.7911  -50.8062 C.ar      23 UNK        -0.1150 
     13 C13        -2.4052  -16.2070  -49.5381 C.ar      23 UNK        -0.0193 
     14 C14        -1.2758  -15.5699  -49.0167 C.ar      23 UNK        -0.1150 
     15 C15        -3.7118  -16.2198  -48.7549 C.3       23 UNK        -0.0205 
     16 S16        -4.1959  -17.8889  -48.2102 S.3       23 UNK        -0.2404 
     17 C17        -2.8451  -18.3173  -47.0632 C.3       23 UNK        -0.0398 
     18 CA         -1.9652  -19.4834  -47.5766 C.3       11 UNK         0.1400 
     19 N          -0.6377  -19.4862  -46.9465 N.am      11 UNK        -0.5000 
     20 C           0.3592  -20.3426  -47.2151 C.2       10 UNK         0.5000 
     21 O           0.2693  -21.2514  -48.0373 O.2       10 UNK        -0.5000 
     22 CA          1.6515  -20.2128  -46.3913 C.3       10 UNK         0.1400 
     23 CB          2.5259  -19.0619  -46.9017 C.3       10 UNK        -0.1800 
     24 N           1.3840  -20.0344  -44.9669 N.am      10 UNK        -0.5000 
     25 C           0.8490  -20.9719  -44.1738 C.2       9 UNK         0.5000 
     26 O           0.5951  -22.1176  -44.5457 O.2       9 UNK        -0.5000 
     27 CA          0.5067  -20.5493  -42.7331 C.3       9 UNK         0.1400 
     28 CB          1.7468  -20.6288  -41.8303 C.3       9 UNK        -0.1800 
     29 N          -0.0717  -19.2063  -42.6568 N.am      9 UNK        -0.5000 
     30 C          -1.2398  -18.8508  -43.2119 C.2       8 UNK         0.5000 
     31 O          -1.9746  -19.6292  -43.8226 O.2       8 UNK        -0.5000 
     32 CA         -1.6303  -17.3643  -43.1068 C.3       8 UNK         0.1400 
     33 CB         -2.1937  -17.0430  -41.7146 C.3       8 UNK        -0.1800 
     34 N          -0.5183  -16.4608  -43.4126 N.am      8 UNK        -0.5000 
     35 C           0.0987  -16.4049  -44.6014 C.2       7 UNK         0.5000 
     36 O          -0.2284  -17.0853  -45.5687 O.2       7 UNK        -0.5000 
     37 CA          1.3236  -15.4888  -44.7276 C.3       7 UNK         0.1400 
     38 CB          0.9145  -14.0215  -44.9159 C.3       7 UNK        -0.1800 
     39 N           2.2362  -15.6137  -43.5955 N.am      7 UNK        -0.5000 
     40 C           2.8792  -16.7368  -43.2474 C.2       6 UNK         0.5000 
     41 O           2.8197  -17.7869  -43.8836 O.2       6 UNK        -0.5000 
     42 CA          3.6740  -16.6898  -41.9328 C.3       6 UNK         0.1400 
     43 CB          5.0435  -16.0242  -42.1391 C.3       6 UNK        -0.1800 
     44 N           2.9371  -15.9897  -40.8801 N.am      6 UNK        -0.5000 
     45 C           1.8153  -16.4480  -40.3063 C.2       5 UNK         0.5000 
     46 O           1.2979  -17.5308  -40.5815 O.2       5 UNK        -0.5000 
     47 CA          1.1409  -15.5206  -39.2787 C.3       5 UNK         0.1400 
     48 CB          1.8157  -15.6506  -37.9051 C.3       5 UNK        -0.1800 
     49 N           1.1524  -14.1169  -39.6955 N.am      5 UNK        -0.5000 
     50 C           0.4483  -13.6332  -40.7284 C.2       4 UNK         0.5000 
     51 O          -0.3034  -14.3174  -41.4223 O.2       4 UNK        -0.5000 
     52 CA          0.6577  -12.1459  -41.0762 C.3       4 UNK         0.1400 
     53 CB         -0.2338  -11.2557  -40.1977 C.3       4 UNK        -0.1800 
     54 N           2.0509  -11.6938  -40.9736 N.am      4 UNK        -0.5000 
     55 C           3.0788  -12.2374  -41.6383 C.2       3 UNK         0.5000 
     56 O           2.9696  -13.2348  -42.3543 O.2       3 UNK        -0.5000 
     57 CA          4.4633  -11.5885  -41.4418 C.3       3 UNK         0.1400 
     58 CB          5.0334  -11.9567  -40.0626 C.3       3 UNK        -0.1800 
     59 N           5.4103  -12.0327  -42.4669 N.am      3 UNK        -0.5000 
     60 C           5.3252  -11.7390  -43.7711 C.2       2 UNK         0.5000 
     61 O           4.5394  -10.9135  -44.2390 O.2       2 UNK        -0.5000 
     62 CA          6.2208  -12.5437  -44.7230 C.3       2 UNK         0.1400 
     63 CB          7.4598  -13.1749  -44.0496 C.3       2 UNK        -0.1800 
     64 N           5.3870  -13.5809  -45.3225 N.am      2 UNK        -0.5000 
     65 C           5.6319  -14.1902  -46.4870 C.2       1 UNK         0.5000 
     66 O           6.6000  -13.9310  -47.2067 O.2       1 UNK        -0.5000 
     67 C          -2.6967  -20.8346  -47.4261 C.2       11 UNK         0.5000 
     68 O          -3.3181  -21.3037  -48.3809 O.2       11 UNK        -0.5000 
     69 N          -2.5543  -21.4718  -46.2557 N.am      12 UNK        -0.5000 
     70 CA         -3.0963  -22.7987  -45.9555 C.3       12 UNK         0.1400 
     71 CB         -2.8741  -23.1063  -44.4673 C.3       12 UNK        -0.1800 
     72 C          -2.5354  -23.9343  -46.8403 C.2       12 UNK         0.5000 
     73 O          -3.1841  -24.9751  -46.9468 O.2       12 UNK        -0.5000 
     74 N          -1.3698  -23.7197  -47.4653 N.am      13 UNK        -0.5000 
     75 CA         -0.7642  -24.6305  -48.4345 C.3       13 UNK         0.1400 
     76 CB          0.7252  -24.8049  -48.0966 C.3       13 UNK        -0.1800 
     77 C          -0.9345  -24.1133  -49.8740 C.2       13 UNK         0.5000 
     78 O          -1.2482  -24.9034  -50.7641 O.2       13 UNK        -0.5000 
     79 N          -0.7030  -22.8097  -50.0836 N.am      14 UNK        -0.5000 
     80 CA         -0.7047  -22.1574  -51.3913 C.3       14 UNK         0.1400 
     81 CB         -0.0273  -20.7816  -51.2880 C.3       14 UNK        -0.1800 
     82 C          -2.1098  -22.0264  -51.9933 C.2       14 UNK         0.5000 
     83 O          -2.3127  -22.4272  -53.1383 O.2       14 UNK        -0.5000 
     84 N          -3.0548  -21.4734  -51.2236 N.am      15 UNK        -0.5000 
     85 CA         -4.4523  -21.3562  -51.6285 C.3       15 UNK         0.1400 
     86 CB         -5.1016  -20.1225  -50.9877 C.3       15 UNK        -0.1800 
     87 C          -5.2148  -22.6321  -51.2592 C.2       15 UNK         0.5000 
     88 O          -5.9399  -23.1648  -52.1020 O.2       15 UNK        -0.5000 
     89 N          -5.0199  -23.0966  -50.0152 N.am      16 UNK        -0.5000 
     90 CA         -5.5889  -24.3148  -49.4282 C.3       16 UNK         0.1400 
     91 CB         -4.9320  -25.5617  -50.0552 C.3       16 UNK        -0.1800 
     92 C          -7.1285  -24.3442  -49.5090 C.2       16 UNK         0.5000 
     93 O          -7.7047  -25.3052  -50.0176 O.2       16 UNK        -0.5000 
     94 N          -7.7634  -23.2470  -49.0676 N.am      17 UNK        -0.5000 
     95 CA         -9.2096  -22.9857  -49.1454 C.3       17 UNK         0.1400 
     96 CB         -9.9925  -23.9453  -48.2244 C.3       17 UNK        -0.1800 
     97 C          -9.7389  -22.9755  -50.5988 C.2       17 UNK         0.5000 
     98 O         -10.8568  -23.4217  -50.8603 O.2       17 UNK        -0.5000 
     99 N          -8.8959  -22.4727  -51.5124 N.am      18 UNK        -0.5000 
    100 CA        -9.0692  -22.3883  -52.9655 C.3       18 UNK         0.1400 
    101 CB       -10.3098  -21.5521  -53.3425 C.3       18 UNK        -0.1800 
    102 C         -9.0183  -23.7491  -53.6938 C.2       18 UNK         0.5000 
    103 O         -9.4035  -23.8160  -54.8620 O.2       18 UNK        -0.5000 
    104 N         -8.5152  -24.8024  -53.0313 N.am      19 UNK        -0.5000 
    105 CA        -8.2639  -26.1049  -53.6533 C.3       19 UNK         0.1400 
    106 CB        -8.1436  -27.1886  -52.5720 C.3       19 UNK        -0.1800 
    107 C         -7.0038  -26.0862  -54.5383 C.2       19 UNK         0.5000 
    108 O         -6.9945  -26.7271  -55.5900 O.2       19 UNK        -0.5000 
    109 N         -5.9752  -25.3467  -54.1022 N.am      20 UNK        -0.5000 
    110 CA        -4.7280  -25.1320  -54.8385 C.3       20 UNK         0.1400 
    111 CB        -3.5456  -25.2970  -53.8733 C.3       20 UNK        -0.1800 
    112 C         -4.7129  -23.7518  -55.5227 C.2       20 UNK         0.5000 
    113 O         -4.1213  -23.6128  -56.5950 O.2       20 UNK        -0.5000 
    114 N         -5.3915  -22.7697  -54.9076 N.am      21 UNK        -0.5000 
    115 CA        -5.7078  -21.4309  -55.4232 C.3       21 UNK         0.1400 
    116 CB        -6.7800  -21.5411  -56.5262 C.3       21 UNK        -0.1800 
    117 C         -4.4888  -20.5909  -55.8694 C.2       21 UNK         0.5000 
    118 O         -4.6272  -19.7364  -56.7464 O.2       21 UNK        -0.5000 
    119 N         -3.3219  -20.8444  -55.2626 N.am      22 UNK        -0.5000 
    120 CA        -2.0231  -20.2177  -55.5637 C.3       22 UNK         0.1400 
    121 C         -1.4446  -20.5982  -56.9617 C.2       22 UNK         0.5000 
    122 N         -1.9121  -21.6645  -57.6032 N.am      22 UNK        -0.7600 
    123 O         -0.5365  -19.9410  -57.4635 O.2       22 UNK        -0.5000 
    124 C124       -1.9948  -18.6881  -55.2796 C.3       23 UNK        -0.0398 
    125 S125       -2.4941  -18.2790  -53.5681 S.3       23 UNK        -0.2404 
    126 C126       -1.0404  -17.3479  -52.9667 C.3       23 UNK        -0.0205 
    127 H127        6.3004  -19.4053  -47.0743 H         1 UNK         0.0600 
    128 H128        7.7382  -18.4340  -47.4103 H         1 UNK         0.0600 
    129 H129        6.3961  -18.4538  -48.5584 H         1 UNK         0.0600 
    130 H130        5.1749  -16.5938  -48.4621 H         1 UNK         0.3000 
    131 H131        4.0551  -15.5793  -46.0561 H         1 UNK         0.0600 
    132 H132        3.0995  -13.7937  -47.5132 H         1 UNK         0.0800 
    133 H133        4.1326  -14.2792  -48.8373 H         1 UNK         0.0800 
    134 H134        1.5623  -14.1554  -50.0290 H         1 UNK         0.0800 
    135 H135        0.7868  -14.0130  -48.4691 H         1 UNK         0.0800 
    136 H136        0.8680  -16.0358  -51.6016 H         1 UNK         0.1150 
    137 H137       -3.2291  -17.2657  -51.1949 H         1 UNK         0.1150 
    138 H138       -1.3205  -15.1088  -48.0399 H         1 UNK         0.1150 
    139 H139       -3.6517  -15.5633  -47.8854 H         1 UNK         0.0800 
    140 H140       -4.5045  -15.8152  -49.3855 H         1 UNK         0.0800 
    141 H141       -3.2625  -18.5351  -46.0786 H         1 UNK         0.0800 
    142 H142       -2.2402  -17.4233  -46.9323 H         1 UNK         0.0800 
    143 H143       -1.7875  -19.3280  -48.6425 H         1 UNK         0.0600 
    144 H144       -0.4595  -18.7301  -46.2877 H         1 UNK         0.3000 
    145 H145        2.2149  -21.1400  -46.5155 H         1 UNK         0.0600 
    146 H146        3.4962  -19.0566  -46.4056 H         1 UNK         0.0600 
    147 H147        2.7053  -19.1437  -47.9744 H         1 UNK         0.0600 
    148 H148        2.0552  -18.0977  -46.7157 H         1 UNK         0.0600 
    149 H149        1.6312  -19.1331  -44.5672 H         1 UNK         0.3000 
    150 H150       -0.2365  -21.2523  -42.3512 H         1 UNK         0.0600 
    151 H151        2.1844  -21.6275  -41.8542 H         1 UNK         0.0600 
    152 H152        1.4934  -20.4089  -40.7931 H         1 UNK         0.0600 
    153 H153        2.5180  -19.9240  -42.1420 H         1 UNK         0.0600 
    154 H154        0.4596  -18.5111  -42.1420 H         1 UNK         0.3000 
    155 H155       -2.4178  -17.1787  -43.8401 H         1 UNK         0.0600 
    156 H156       -1.4395  -17.1622  -40.9364 H         1 UNK         0.0600 
    157 H157       -3.0280  -17.7012  -41.4688 H         1 UNK         0.0600 
    158 H158       -2.5630  -16.0185  -41.6670 H         1 UNK         0.0600 
    159 H159       -0.2231  -15.8325  -42.6712 H         1 UNK         0.3000 
    160 H160        1.8601  -15.8052  -45.6205 H         1 UNK         0.0600 
    161 H161        0.3777  -13.6390  -44.0479 H         1 UNK         0.0600 
    162 H162        0.2631  -13.9077  -45.7833 H         1 UNK         0.0600 
    163 H163        1.7857  -13.3862  -45.0764 H         1 UNK         0.0600 
    164 H164        2.3699  -14.7814  -43.0234 H         1 UNK         0.3000 
    165 H165        3.8414  -17.7179  -41.6051 H         1 UNK         0.0600 
    166 H166        5.6255  -16.0236  -41.2175 H         1 UNK         0.0600 
    167 H167        5.6252  -16.5597  -42.8902 H         1 UNK         0.0600 
    168 H168        4.9485  -14.9930  -42.4769 H         1 UNK         0.0600 
    169 H169        3.2563  -15.0626  -40.6434 H         1 UNK         0.3000 
    170 H170        0.1007  -15.8378  -39.1778 H         1 UNK         0.0600 
    171 H171        1.8079  -16.6866  -37.5635 H         1 UNK         0.0600 
    172 H172        2.8553  -15.3214  -37.9319 H         1 UNK         0.0600 
    173 H173        1.2950  -15.0578  -37.1528 H         1 UNK         0.0600 
    174 H174        1.7504  -13.4875  -39.1809 H         1 UNK         0.3000 
    175 H175        0.3496  -12.0107  -42.1149 H         1 UNK         0.0600 
    176 H176        0.0532  -11.3092  -39.1468 H         1 UNK         0.0600 
    177 H177       -0.1785  -10.2123  -40.5086 H         1 UNK         0.0600 
    178 H178       -1.2794  -11.5588  -40.2685 H         1 UNK         0.0600 
    179 H179        2.2179  -10.8860  -40.3910 H         1 UNK         0.3000 
    180 H180        4.3542  -10.5043  -41.5102 H         1 UNK         0.0600 
    181 H181        5.1476  -13.0357  -39.9484 H         1 UNK         0.0600 
    182 H182        4.3831  -11.6085  -39.2593 H         1 UNK         0.0600 
    183 H183        6.0102  -11.4986  -39.9057 H         1 UNK         0.0600 
    184 H184        6.0752  -12.7358  -42.1820 H         1 UNK         0.3000 
    185 H185        6.5587  -11.8544  -45.4998 H         1 UNK         0.0600 
    186 H186        8.0432  -12.4244  -43.5146 H         1 UNK         0.0600 
    187 H187        7.1891  -13.9601  -43.3429 H         1 UNK         0.0600 
    188 H188        8.1210  -13.6214  -44.7924 H         1 UNK         0.0600 
    189 H189        4.5489  -13.8061  -44.8033 H         1 UNK         0.3000 
    190 H190       -2.0483  -21.0072  -45.5097 H         1 UNK         0.3000 
    191 H191       -4.1726  -22.7570  -46.1341 H         1 UNK         0.0600 
    192 H192       -1.8138  -23.1738  -44.2246 H         1 UNK         0.0600 
    193 H193       -3.3336  -24.0563  -44.1918 H         1 UNK         0.0600 
    194 H194       -3.3145  -22.3361  -43.8337 H         1 UNK         0.0600 
    195 H195       -0.9063  -22.8280  -47.3374 H         1 UNK         0.3000 
    196 H196       -1.2343  -25.6146  -48.3797 H         1 UNK         0.0600 
    197 H197        1.2091  -25.4814  -48.8022 H         1 UNK         0.0600 
    198 H198        0.8538  -25.2272  -47.0999 H         1 UNK         0.0600 
    199 H199        1.2630  -23.8566  -48.1280 H         1 UNK         0.0600 
    200 H200       -0.4033  -22.2328  -49.2990 H         1 UNK         0.3000 
    201 H201       -0.1096  -22.7708  -52.0712 H         1 UNK         0.0600 
    202 H202        0.9918  -20.8701  -50.9114 H         1 UNK         0.0600 
    203 H203       -0.5704  -20.1076  -50.6247 H         1 UNK         0.0600 
    204 H204        0.0277  -20.3047  -52.2668 H         1 UNK         0.0600 
    205 H205       -2.8432  -21.2405  -50.2593 H         1 UNK         0.3000 
    206 H206       -4.5072  -21.2220  -52.7081 H         1 UNK         0.0600 
    207 H207       -4.5444  -19.2179  -51.2278 H         1 UNK         0.0600 
    208 H208       -6.1185  -19.9839  -51.3562 H         1 UNK         0.0600 
    209 H209       -5.1572  -20.2030  -49.9026 H         1 UNK         0.0600 
    210 H210       -4.4128  -22.5546  -49.4061 H         1 UNK         0.3000 
    211 H211       -5.3395  -24.3012  -48.3674 H         1 UNK         0.0600 
    212 H212       -5.1546  -25.6492  -51.1188 H         1 UNK         0.0600 
    213 H213       -5.2822  -26.4735  -49.5704 H         1 UNK         0.0600 
    214 H214       -3.8487  -25.5319  -49.9415 H         1 UNK         0.0600 
    215 H215       -7.2030  -22.4991  -48.6830 H         1 UNK         0.3000 
    216 H216       -9.3587  -21.9741  -48.7651 H         1 UNK         0.0600 
    217 H217      -11.0444  -23.6627  -48.1697 H         1 UNK         0.0600 
    218 H218       -9.5993  -23.9246  -47.2081 H         1 UNK         0.0600 
    219 H219       -9.9502  -24.9752  -48.5798 H         1 UNK         0.0600 
    220 H220       -7.9846  -22.1907  -51.1819 H         1 UNK         0.3000 
    221 H221       -8.1978  -21.8403  -53.3254 H         1 UNK         0.0600 
    222 H222      -11.2383  -22.0724  -53.1071 H         1 UNK         0.0600 
    223 H223      -10.3165  -20.5964  -52.8183 H         1 UNK         0.0600 
    224 H224      -10.3234  -21.3334  -54.4108 H         1 UNK         0.0600 
    225 H225       -8.2255  -24.6926  -52.0666 H         1 UNK         0.3000 
    226 H226       -9.1176  -26.3588  -54.2855 H         1 UNK         0.0600 
    227 H227       -9.0143  -27.1926  -51.9159 H         1 UNK         0.0600 
    228 H228       -8.0693  -28.1789  -53.0226 H         1 UNK         0.0600 
    229 H229       -7.2569  -27.0462  -51.9536 H         1 UNK         0.0600 
    230 H230       -6.0840  -24.8255  -53.2391 H         1 UNK         0.3000 
    231 H231       -4.6175  -25.8807  -55.6256 H         1 UNK         0.0600 
    232 H232       -3.4654  -26.3273  -53.5267 H         1 UNK         0.0600 
    233 H233       -3.6502  -24.6637  -52.9929 H         1 UNK         0.0600 
    234 H234       -2.6015  -25.0405  -54.3555 H         1 UNK         0.0600 
    235 H235       -5.7694  -22.9808  -53.9900 H         1 UNK         0.3000 
    236 H236       -6.1521  -20.8843  -54.5905 H         1 UNK         0.0600 
    237 H237       -6.3899  -22.0361  -57.4161 H         1 UNK         0.0600 
    238 H238       -7.6451  -22.1069  -56.1815 H         1 UNK         0.0600 
    239 H239       -7.1405  -20.5571  -56.8281 H         1 UNK         0.0600 
    240 H240       -3.2737  -21.5765  -54.5602 H         1 UNK         0.3000 
    241 H241       -1.3203  -20.6707  -54.8648 H         1 UNK         0.0600 
    242 H242       -1.5272  -21.9115  -58.5010 H         1 UNK         0.3800 
    243 H243       -2.6549  -22.2276  -57.2036 H         1 UNK         0.3800 
    244 H244       -2.6511  -18.1552  -55.9682 H         1 UNK         0.0800 
    245 H245       -0.9938  -18.2919  -55.4565 H         1 UNK         0.0800 
    246 H246       -0.8407  -16.5349  -53.6661 H         1 UNK         0.0800 
    247 H247       -0.1706  -18.0051  -52.9963 H         1 UNK         0.0800 
@<TRIPOS>BOND
     1    1    2 1    
     2    1  127 1    
     3    1  128 1    
     4    1  129 1    
     5    2    3 2    
     6    2    4 am   BACKBONE|DICT|INTERRES
     7    4    5 1    
     8    4  130 1    
     9    5    6 1    
    10    5   65 1    
    11    5  131 1    
    12    6    7 1    
    13    6  132 1    
    14    6  133 1    
    15    7    8 1    
    16    8    9 1    
    17    8  134 1    
    18    8  135 1    
    19    9   10 ar   
    20    9   14 ar   
    21   10   11 ar   
    22   10  136 1    
    23   11   12 ar   
    24   11  126 1    
    25   12   13 ar   
    26   12  137 1    
    27   13   14 ar   
    28   13   15 1    
    29   14  138 1    
    30   15   16 1    
    31   15  139 1    
    32   15  140 1    
    33   16   17 1    
    34   17   18 1    
    35   17  141 1    
    36   17  142 1    
    37   18   19 1    
    38   18   67 1    
    39   18  143 1    
    40   19   20 am   BACKBONE|DICT|INTERRES
    41   19  144 1    
    42   20   21 2    
    43   20   22 1    
    44   22   23 1    
    45   22   24 1    
    46   22  145 1    
    47   23  146 1    
    48   23  147 1    
    49   23  148 1    
    50   24   25 am   BACKBONE|DICT|INTERRES
    51   24  149 1    
    52   25   26 2    
    53   25   27 1    
    54   27   28 1    
    55   27   29 1    
    56   27  150 1    
    57   28  151 1    
    58   28  152 1    
    59   28  153 1    
    60   29   30 am   BACKBONE|DICT|INTERRES
    61   29  154 1    
    62   30   31 2    
    63   30   32 1    
    64   32   33 1    
    65   32   34 1    
    66   32  155 1    
    67   33  156 1    
    68   33  157 1    
    69   33  158 1    
    70   34   35 am   BACKBONE|DICT|INTERRES
    71   34  159 1    
    72   35   36 2    
    73   35   37 1    
    74   37   38 1    
    75   37   39 1    
    76   37  160 1    
    77   38  161 1    
    78   38  162 1    
    79   38  163 1    
    80   39   40 am   BACKBONE|DICT|INTERRES
    81   39  164 1    
    82   40   41 2    
    83   40   42 1    
    84   42   43 1    
    85   42   44 1    
    86   42  165 1    
    87   43  166 1    
    88   43  167 1    
    89   43  168 1    
    90   44   45 am   BACKBONE|DICT|INTERRES
    91   44  169 1    
    92   45   46 2    
    93   45   47 1    
    94   47   48 1    
    95   47   49 1    
    96   47  170 1    
    97   48  171 1    
    98   48  172 1    
    99   48  173 1    
   100   49   50 am   BACKBONE|DICT|INTERRES
   101   49  174 1    
   102   50   51 2    
   103   50   52 1    
   104   52   53 1    
   105   52   54 1    
   106   52  175 1    
   107   53  176 1    
   108   53  177 1    
   109   53  178 1    
   110   54   55 am   BACKBONE|DICT|INTERRES
   111   54  179 1    
   112   55   56 2    
   113   55   57 1    
   114   57   58 1    
   115   57   59 1    
   116   57  180 1    
   117   58  181 1    
   118   58  182 1    
   119   58  183 1    
   120   59   60 am   BACKBONE|DICT|INTERRES
   121   59  184 1    
   122   60   61 2    
   123   60   62 1    
   124   62   63 1    
   125   62   64 1    
   126   62  185 1    
   127   63  186 1    
   128   63  187 1    
   129   63  188 1    
   130   64   65 am   BACKBONE|DICT|INTERRES
   131   64  189 1    
   132   65   66 2    
   133   67   68 2    
   134   67   69 am   BACKBONE|DICT|INTERRES
   135   69   70 1    
   136   69  190 1    
   137   70   71 1    
   138   70   72 1    
   139   70  191 1    
   140   71  192 1    
   141   71  193 1    
   142   71  194 1    
   143   72   73 2    
   144   72   74 am   BACKBONE|DICT|INTERRES
   145   74   75 1    
   146   74  195 1    
   147   75   76 1    
   148   75   77 1    
   149   75  196 1    
   150   76  197 1    
   151   76  198 1    
   152   76  199 1    
   153   77   78 2    
   154   77   79 am   BACKBONE|DICT|INTERRES
   155   79   80 1    
   156   79  200 1    
   157   80   81 1    
   158   80   82 1    
   159   80  201 1    
   160   81  202 1    
   161   81  203 1    
   162   81  204 1    
   163   82   83 2    
   164   82   84 am   BACKBONE|DICT|INTERRES
   165   84   85 1    
   166   84  205 1    
   167   85   86 1    
   168   85   87 1    
   169   85  206 1    
   170   86  207 1    
   171   86  208 1    
   172   86  209 1    
   173   87   88 2    
   174   87   89 am   BACKBONE|DICT|INTERRES
   175   89   90 1    
   176   89  210 1    
   177   90   91 1    
   178   90   92 1    
   179   90  211 1    
   180   91  212 1    
   181   91  213 1    
   182   91  214 1    
   183   92   93 2    
   184   92   94 am   BACKBONE|DICT|INTERRES
   185   94   95 1    
   186   94  215 1    
   187   95   96 1    
   188   95   97 1    
   189   95  216 1    
   190   96  217 1    
   191   96  218 1    
   192   96  219 1    
   193   97   98 2    
   194   97   99 am   BACKBONE|DICT|INTERRES
   195   99  100 1    
   196   99  220 1    
   197  100  101 1    
   198  100  102 1    
   199  100  221 1    
   200  101  222 1    
   201  101  223 1    
   202  101  224 1    
   203  102  103 2    
   204  102  104 am   BACKBONE|DICT|INTERRES
   205  104  105 1    
   206  104  225 1    
   207  105  106 1    
   208  105  107 1    
   209  105  226 1    
   210  106  227 1    
   211  106  228 1    
   212  106  229 1    
   213  107  108 2    
   214  107  109 am   BACKBONE|DICT|INTERRES
   215  109  110 1    
   216  109  230 1    
   217  110  111 1    
   218  110  112 1    
   219  110  231 1    
   220  111  232 1    
   221  111  233 1    
   222  111  234 1    
   223  112  113 2    
   224  112  114 am   BACKBONE|DICT|INTERRES
   225  114  115 1    
   226  114  235 1    
   227  115  116 1    
   228  115  117 1    
   229  115  236 1    
   230  116  237 1    
   231  116  238 1    
   232  116  239 1    
   233  117  118 2    
   234  117  119 am   BACKBONE|DICT|INTERRES
   235  119  120 1    
   236  119  240 1    
   237  120  121 1    
   238  120  124 1    
   239  120  241 1    
   240  121  122 am   BACKBONE|DICT|INTERRES
   241  121  123 2    
   242  122  242 1    
   243  122  243 1    
   244  124  125 1    
   245  124  244 1    
   246  124  245 1    
   247  125  126 1    
   248  126  246 1    
   249  126  247 1    
@<TRIPOS>SUBSTRUCTURE
     1 UNK         1 GROUP             0       ****    0 ROOT    
