@<TRIPOS>MOLECULE
3R540
247   249    1
SMALL
USER_CHARGES


@<TRIPOS>ATOM
      1 CA         -4.4282  -16.0988  -49.9899 C.3       0 UNK        -0.1800 
      2 C          -3.5450  -15.0326  -50.6199 C.2       0 UNK         0.5000 
      3 O          -4.0616  -14.1055  -51.2436 O.2       0 UNK        -0.5000 
      4 N          -2.2235  -15.1587  -50.4598 N.am      1 UNK        -0.5000 
      5 CA         -1.2314  -14.2017  -50.9520 C.3       1 UNK         0.1400 
      6 C6          0.1044  -14.8807  -51.3351 C.3       23 UNK        -0.0398 
      7 S7         -0.0449  -15.8779  -52.8532 S.3       23 UNK        -0.2404 
      8 C8          1.6597  -16.4883  -53.0449 C.3       23 UNK        -0.0205 
      9 C9          2.0312  -17.5447  -52.0111 C.ar      23 UNK        -0.0193 
     10 C10         1.7687  -18.8960  -52.2577 C.ar      23 UNK        -0.1150 
     11 C11         2.1615  -19.8764  -51.3407 C.ar      23 UNK        -0.0193 
     12 C12         2.8221  -19.4941  -50.1685 C.ar      23 UNK        -0.1150 
     13 C13         3.0852  -18.1449  -49.9044 C.ar      23 UNK        -0.0193 
     14 C14         2.6855  -17.1774  -50.8312 C.ar      23 UNK        -0.1150 
     15 C15         3.8616  -17.7278  -48.6588 C.3       23 UNK        -0.0205 
     16 S16         3.1552  -18.3626  -47.1033 S.3       23 UNK        -0.2404 
     17 C17         1.5853  -17.4372  -46.9800 C.3       23 UNK        -0.0398 
     18 CA          0.3727  -18.2846  -47.4305 C.3       11 UNK         0.1400 
     19 N           0.2524  -19.5383  -46.6745 N.am      11 UNK        -0.5000 
     20 C          -0.5923  -20.5401  -46.9619 C.2       10 UNK         0.5000 
     21 O          -1.4025  -20.5063  -47.8856 O.2       10 UNK        -0.5000 
     22 CA         -0.6137  -21.7475  -46.0069 C.3       10 UNK         0.1400 
     23 CB          0.3750  -22.8201  -46.4859 C.3       10 UNK        -0.1800 
     24 N          -0.3226  -21.4081  -44.6125 N.am      10 UNK        -0.5000 
     25 C          -0.9428  -20.4705  -43.8798 C.2       9 UNK         0.5000 
     26 O          -1.8900  -19.7975  -44.2895 O.2       9 UNK        -0.5000 
     27 CA         -0.3726  -20.1985  -42.4754 C.3       9 UNK         0.1400 
     28 CB         -1.1627  -20.9890  -41.4233 C.3       9 UNK        -0.1800 
     29 N           1.0585  -20.4942  -42.3333 N.am      9 UNK        -0.5000 
     30 C           2.0428  -19.9433  -43.0626 C.2       8 UNK         0.5000 
     31 O           1.8345  -19.1754  -44.0026 O.2       8 UNK        -0.5000 
     32 CA          3.4884  -20.3261  -42.6921 C.3       8 UNK         0.1400 
     33 CB          4.4897  -19.1959  -42.9898 C.3       8 UNK        -0.1800 
     34 N           3.5880  -20.6843  -41.2781 N.am      8 UNK        -0.5000 
     35 C           4.1647  -21.7883  -40.7864 C.2       7 UNK         0.5000 
     36 O           4.6766  -22.6593  -41.4908 O.2       7 UNK        -0.5000 
     37 CA          4.1880  -21.9582  -39.2511 C.3       7 UNK         0.1400 
     38 CB          5.5937  -21.6660  -38.7032 C.3       7 UNK        -0.1800 
     39 N           3.2265  -21.1120  -38.5407 N.am      7 UNK        -0.5000 
     40 C           1.8955  -21.2596  -38.5758 C.2       6 UNK         0.5000 
     41 O           1.3263  -22.1659  -39.1842 O.2       6 UNK        -0.5000 
     42 CA          1.0567  -20.1886  -37.8467 C.3       6 UNK         0.1400 
     43 CB          0.7375  -20.6462  -36.4155 C.3       6 UNK        -0.1800 
     44 N           1.6565  -18.8476  -37.7978 N.am      6 UNK        -0.5000 
     45 C           2.0731  -18.1353  -38.8542 C.2       5 UNK         0.5000 
     46 O           2.1063  -18.5772  -40.0040 O.2       5 UNK        -0.5000 
     47 CA          2.5812  -16.7088  -38.5650 C.3       5 UNK         0.1400 
     48 CB          3.9923  -16.7591  -37.9572 C.3       5 UNK        -0.1800 
     49 N           2.6253  -15.8821  -39.7734 N.am      5 UNK        -0.5000 
     50 C           1.5570  -15.5009  -40.4848 C.2       4 UNK         0.5000 
     51 O           0.3887  -15.7011  -40.1370 O.2       4 UNK        -0.5000 
     52 CA          1.8515  -14.7843  -41.8115 C.3       4 UNK         0.1400 
     53 CB          2.5535  -15.7211  -42.8145 C.3       4 UNK        -0.1800 
     54 N           0.5976  -14.3083  -42.3844 N.am      4 UNK        -0.5000 
     55 C           0.4775  -13.3112  -43.2631 C.2       3 UNK         0.5000 
     56 O           1.4259  -12.6307  -43.6640 O.2       3 UNK        -0.5000 
     57 CA         -0.9493  -13.0105  -43.7608 C.3       3 UNK         0.1400 
     58 CB         -1.6218  -11.9516  -42.8738 C.3       3 UNK        -0.1800 
     59 N          -0.9435  -12.5388  -45.1458 N.am      3 UNK        -0.5000 
     60 C          -0.6185  -13.2974  -46.1994 C.2       2 UNK         0.5000 
     61 O          -0.3919  -14.5061  -46.1327 O.2       2 UNK        -0.5000 
     62 CA         -0.4768  -12.5686  -47.5403 C.3       2 UNK         0.1400 
     63 CB          0.9538  -12.0105  -47.6839 C.3       2 UNK        -0.1800 
     64 N          -0.7795  -13.4817  -48.6411 N.am      2 UNK        -0.5000 
     65 C          -0.9944  -13.0974  -49.9071 C.2       1 UNK         0.5000 
     66 O          -1.0105  -11.9191  -50.2672 O.2       1 UNK        -0.5000 
     67 C          -0.9207  -17.4366  -47.4338 C.2       11 UNK         0.5000 
     68 O          -1.0676  -16.5804  -48.3085 O.2       11 UNK        -0.5000 
     69 N          -1.8382  -17.7028  -46.4934 N.am      12 UNK        -0.5000 
     70 CA         -3.1841  -17.1391  -46.4504 C.3       12 UNK         0.1400 
     71 CB         -3.3913  -16.4421  -45.0972 C.3       12 UNK        -0.1800 
     72 C          -4.2543  -18.2264  -46.6605 C.2       12 UNK         0.5000 
     73 O          -5.2559  -17.9640  -47.3250 O.2       12 UNK        -0.5000 
     74 N          -4.0512  -19.4125  -46.0698 N.am      13 UNK        -0.5000 
     75 CA         -5.0573  -20.4724  -45.9910 C.3       13 UNK         0.1400 
     76 CB         -4.7461  -21.3563  -44.7725 C.3       13 UNK        -0.1800 
     77 C          -5.1850  -21.3453  -47.2531 C.2       13 UNK         0.5000 
     78 O          -6.2539  -21.9211  -47.4595 O.2       13 UNK        -0.5000 
     79 N          -4.1107  -21.4733  -48.0426 N.am      14 UNK        -0.5000 
     80 CA         -4.0302  -22.4007  -49.1777 C.3       14 UNK         0.1400 
     81 CB         -3.1356  -23.5833  -48.7711 C.3       14 UNK        -0.1800 
     82 C          -3.5083  -21.7347  -50.4634 C.2       14 UNK         0.5000 
     83 O          -3.7351  -22.2531  -51.5582 O.2       14 UNK        -0.5000 
     84 N          -2.8115  -20.6056  -50.3262 N.am      15 UNK        -0.5000 
     85 CA         -2.2780  -19.8111  -51.4231 C.3       15 UNK         0.1400 
     86 CB         -1.3550  -18.7539  -50.8291 C.3       15 UNK        -0.1800 
     87 C          -3.3683  -19.1486  -52.2818 C.2       15 UNK         0.5000 
     88 O          -4.5097  -18.9959  -51.8402 O.2       15 UNK        -0.5000 
     89 N          -2.9770  -18.7494  -53.4995 N.am      16 UNK        -0.5000 
     90 CA         -3.8274  -18.1475  -54.5276 C.3       16 UNK         0.1400 
     91 CB         -4.1987  -16.7002  -54.1311 C.3       16 UNK        -0.1800 
     92 C          -5.0354  -19.0527  -54.8570 C.2       16 UNK         0.5000 
     93 O          -4.8487  -20.2524  -55.0708 O.2       16 UNK        -0.5000 
     94 N          -6.2449  -18.4841  -54.8742 N.am      17 UNK        -0.5000 
     95 CA         -7.4922  -19.1818  -55.1818 C.3       17 UNK         0.1400 
     96 CB         -8.5564  -18.1326  -55.5432 C.3       17 UNK        -0.1800 
     97 C          -8.0058  -20.1067  -54.0578 C.2       17 UNK         0.5000 
     98 O          -8.9515  -20.8558  -54.3058 O.2       17 UNK        -0.5000 
     99 N          -7.4203  -20.0383  -52.8504 N.am      18 UNK        -0.5000 
    100 CA        -7.8933  -20.7722  -51.6716 C.3       18 UNK         0.1400 
    101 CB        -7.1968  -20.2461  -50.4088 C.3       18 UNK        -0.1800 
    102 C         -7.7423  -22.3006  -51.7947 C.2       18 UNK         0.5000 
    103 O         -8.6562  -23.0279  -51.4030 O.2       18 UNK        -0.5000 
    104 N         -6.6201  -22.7583  -52.3631 N.am      19 UNK        -0.5000 
    105 CA        -6.3441  -24.1674  -52.6457 C.3       19 UNK         0.1400 
    106 CB        -5.8976  -24.9140  -51.3724 C.3       19 UNK        -0.1800 
    107 C         -5.3430  -24.3018  -53.8062 C.2       19 UNK         0.5000 
    108 O         -4.4405  -25.1382  -53.7456 O.2       19 UNK        -0.5000 
    109 N         -5.5294  -23.4772  -54.8485 N.am      20 UNK        -0.5000 
    110 CA        -4.7951  -23.4818  -56.1205 C.3       20 UNK         0.1400 
    111 CB        -5.1964  -24.7148  -56.9570 C.3       20 UNK        -0.1800 
    112 C         -3.2674  -23.3489  -55.9424 C.2       20 UNK         0.5000 
    113 O         -2.5091  -24.2035  -56.4049 O.2       20 UNK        -0.5000 
    114 N         -2.8612  -22.2694  -55.2615 N.am      21 UNK        -0.5000 
    115 CA        -1.4825  -21.8902  -54.9437 C.3       21 UNK         0.1400 
    116 CB        -0.7119  -21.5026  -56.2229 C.3       21 UNK        -0.1800 
    117 C         -0.7522  -22.9410  -54.0824 C.2       21 UNK         0.5000 
    118 O          0.3269  -23.4068  -54.4537 O.2       21 UNK        -0.5000 
    119 N         -1.3548  -23.2710  -52.9331 N.am      22 UNK        -0.5000 
    120 CA        -0.8265  -24.2011  -51.9204 C.3       22 UNK         0.1400 
    121 C         -0.8328  -25.6944  -52.3691 C.2       22 UNK         0.5000 
    122 N         -1.7905  -26.1342  -53.1751 N.am      22 UNK        -0.7600 
    123 O          0.0261  -26.4786  -51.9733 O.2       22 UNK        -0.5000 
    124 C124        0.5359  -23.7625  -51.3020 C.3       23 UNK        -0.0398 
    125 S125        0.5571  -22.0494  -50.6638 S.3       23 UNK        -0.2404 
    126 C126        1.9236  -21.3496  -51.6420 C.3       23 UNK        -0.0205 
    127 H127       -5.1355  -16.4855  -50.7233 H         1 UNK         0.0600 
    128 H128       -4.9947  -15.6768  -49.1601 H         1 UNK         0.0600 
    129 H129       -3.8465  -16.9395  -49.6139 H         1 UNK         0.0600 
    130 H130       -1.8569  -15.8915  -49.8575 H         1 UNK         0.3000 
    131 H131       -1.6188  -13.7125  -51.8488 H         1 UNK         0.0600 
    132 H132        0.8837  -14.1360  -51.5086 H         1 UNK         0.0800 
    133 H133        0.4535  -15.5149  -50.5191 H         1 UNK         0.0800 
    134 H134        2.3550  -15.6488  -52.9974 H         1 UNK         0.0800 
    135 H135        1.7667  -16.9079  -54.0462 H         1 UNK         0.0800 
    136 H136        1.2723  -19.1846  -53.1733 H         1 UNK         0.1150 
    137 H137        3.1416  -20.2501  -49.4650 H         1 UNK         0.1150 
    138 H138        2.9059  -16.1353  -50.6474 H         1 UNK         0.1150 
    139 H139        4.8819  -18.1016  -48.7513 H         1 UNK         0.0800 
    140 H140        3.9414  -16.6417  -48.5921 H         1 UNK         0.0800 
    141 H141        1.6614  -16.5239  -47.5732 H         1 UNK         0.0800 
    142 H142        1.4592  -17.1157  -45.9443 H         1 UNK         0.0800 
    143 H143        0.5528  -18.5659  -48.4673 H         1 UNK         0.0600 
    144 H144        0.8555  -19.6177  -45.8629 H         1 UNK         0.3000 
    145 H145       -1.6192  -22.1710  -46.0381 H         1 UNK         0.0600 
    146 H146        0.2973  -23.7266  -45.8855 H         1 UNK         0.0600 
    147 H147        0.1779  -23.0997  -47.5220 H         1 UNK         0.0600 
    148 H148        1.4060  -22.4675  -46.4339 H         1 UNK         0.0600 
    149 H149        0.4511  -21.8950  -44.1852 H         1 UNK         0.3000 
    150 H150       -0.5054  -19.1333  -42.2750 H         1 UNK         0.0600 
    151 H151       -2.2334  -20.7985  -41.5109 H         1 UNK         0.0600 
    152 H152       -0.8675  -20.7046  -40.4149 H         1 UNK         0.0600 
    153 H153       -1.0093  -22.0637  -41.5280 H         1 UNK         0.0600 
    154 H154        1.3169  -21.1127  -41.5772 H         1 UNK         0.3000 
    155 H155        3.7429  -21.1814  -43.3207 H         1 UNK         0.0600 
    156 H156        4.2761  -18.3109  -42.3907 H         1 UNK         0.0600 
    157 H157        4.4590  -18.9023  -44.0400 H         1 UNK         0.0600 
    158 H158        5.5107  -19.5086  -42.7715 H         1 UNK         0.0600 
    159 H159        3.1546  -20.0201  -40.6401 H         1 UNK         0.3000 
    160 H160        3.9466  -23.0011  -39.0357 H         1 UNK         0.0600 
    161 H161        5.8851  -20.6294  -38.8774 H         1 UNK         0.0600 
    162 H162        6.3406  -22.3014  -39.1810 H         1 UNK         0.0600 
    163 H163        5.6472  -21.8554  -37.6310 H         1 UNK         0.0600 
    164 H164        3.6050  -20.3314  -38.0250 H         1 UNK         0.3000 
    165 H165        0.1139  -20.0947  -38.3871 H         1 UNK         0.0600 
    166 H166        0.0496  -19.9578  -35.9241 H         1 UNK         0.0600 
    167 H167        0.2648  -21.6294  -36.4148 H         1 UNK         0.0600 
    168 H168        1.6388  -20.7148  -35.8052 H         1 UNK         0.0600 
    169 H169        1.6900  -18.4159  -36.8854 H         1 UNK         0.3000 
    170 H170        1.9017  -16.2378  -37.8517 H         1 UNK         0.0600 
    171 H171        4.0023  -17.3265  -37.0258 H         1 UNK         0.0600 
    172 H172        4.7057  -17.2297  -38.6353 H         1 UNK         0.0600 
    173 H173        4.3586  -15.7584  -37.7269 H         1 UNK         0.0600 
    174 H174        3.5444  -15.6947  -40.1455 H         1 UNK         0.3000 
    175 H175        2.4960  -13.9299  -41.5942 H         1 UNK         0.0600 
    176 H176        1.9619  -16.6175  -43.0042 H         1 UNK         0.0600 
    177 H177        2.7252  -15.2284  -43.7715 H         1 UNK         0.0600 
    178 H178        3.5265  -16.0403  -42.4418 H         1 UNK         0.0600 
    179 H179       -0.2228  -14.7811  -42.0257 H         1 UNK         0.3000 
    180 H180       -1.5382  -13.9284  -43.7126 H         1 UNK         0.0600 
    181 H181       -1.0777  -11.0064  -42.8924 H         1 UNK         0.0600 
    182 H182       -1.6675  -12.2833  -41.8357 H         1 UNK         0.0600 
    183 H183       -2.6447  -11.7576  -43.1970 H         1 UNK         0.0600 
    184 H184       -1.0685  -11.5460  -45.2777 H         1 UNK         0.3000 
    185 H185       -1.1937  -11.7450  -47.5611 H         1 UNK         0.0600 
    186 H186        1.0641  -11.4065  -48.5842 H         1 UNK         0.0600 
    187 H187        1.2133  -11.3726  -46.8379 H         1 UNK         0.0600 
    188 H188        1.6914  -12.8129  -47.7262 H         1 UNK         0.0600 
    189 H189       -0.8168  -14.4653  -48.3858 H         1 UNK         0.3000 
    190 H190       -1.6304  -18.4202  -45.8092 H         1 UNK         0.3000 
    191 H191       -3.3133  -16.3911  -47.2345 H         1 UNK         0.0600 
    192 H192       -4.3929  -16.0165  -45.0245 H         1 UNK         0.0600 
    193 H193       -2.6813  -15.6263  -44.9683 H         1 UNK         0.0600 
    194 H194       -3.2628  -17.1325  -44.2624 H         1 UNK         0.0600 
    195 H195       -3.2255  -19.5428  -45.4908 H         1 UNK         0.3000 
    196 H196       -6.0313  -20.0083  -45.8206 H         1 UNK         0.0600 
    197 H197       -3.7859  -21.8623  -44.8764 H         1 UNK         0.0600 
    198 H198       -4.7165  -20.7683  -43.8549 H         1 UNK         0.0600 
    199 H199       -5.5087  -22.1250  -44.6407 H         1 UNK         0.0600 
    200 H200       -3.2611  -20.9686  -47.8112 H         1 UNK         0.3000 
    201 H201       -5.0218  -22.7878  -49.4188 H         1 UNK         0.0600 
    202 H202       -3.4718  -24.0292  -47.8349 H         1 UNK         0.0600 
    203 H203       -2.0977  -23.2744  -48.6413 H         1 UNK         0.0600 
    204 H204       -3.1574  -24.3710  -49.5227 H         1 UNK         0.0600 
    205 H205       -2.5566  -20.3019  -49.3943 H         1 UNK         0.3000 
    206 H206       -1.6853  -20.4704  -52.0574 H         1 UNK         0.0600 
    207 H207       -0.5486  -19.2167  -50.2648 H         1 UNK         0.0600 
    208 H208       -0.8974  -18.1560  -51.6099 H         1 UNK         0.0600 
    209 H209       -1.9013  -18.0838  -50.1713 H         1 UNK         0.0600 
    210 H210       -2.0129  -18.8818  -53.7653 H         1 UNK         0.3000 
    211 H211       -3.2274  -18.0996  -55.4372 H         1 UNK         0.0600 
    212 H212       -4.7122  -16.1847  -54.9433 H         1 UNK         0.0600 
    213 H213       -3.3047  -16.1194  -53.9021 H         1 UNK         0.0600 
    214 H214       -4.8418  -16.6659  -53.2511 H         1 UNK         0.0600 
    215 H215       -6.3196  -17.5006  -54.6587 H         1 UNK         0.3000 
    216 H216       -7.3250  -19.8092  -56.0600 H         1 UNK         0.0600 
    217 H217       -8.7663  -17.4679  -54.7043 H         1 UNK         0.0600 
    218 H218       -9.4962  -18.6070  -55.8289 H         1 UNK         0.0600 
    219 H219       -8.2367  -17.5198  -56.3864 H         1 UNK         0.0600 
    220 H220       -6.6201  -19.4318  -52.7188 H         1 UNK         0.3000 
    221 H221       -8.9595  -20.5599  -51.5667 H         1 UNK         0.0600 
    222 H222       -7.3093  -19.1664  -50.3103 H         1 UNK         0.0600 
    223 H223       -6.1319  -20.4717  -50.4100 H         1 UNK         0.0600 
    224 H224       -7.6241  -20.7006  -49.5146 H         1 UNK         0.0600 
    225 H225       -5.8873  -22.1057  -52.6133 H         1 UNK         0.3000 
    226 H226       -7.2679  -24.6315  -52.9972 H         1 UNK         0.0600 
    227 H227       -4.9117  -24.5893  -51.0470 H         1 UNK         0.0600 
    228 H228       -6.5937  -24.7645  -50.5474 H         1 UNK         0.0600 
    229 H229       -5.8385  -25.9874  -51.5546 H         1 UNK         0.0600 
    230 H230       -6.2777  -22.8021  -54.7849 H         1 UNK         0.3000 
    231 H231       -5.1183  -22.5956  -56.6688 H         1 UNK         0.0600 
    232 H232       -4.8967  -25.6463  -56.4754 H         1 UNK         0.0600 
    233 H233       -4.7272  -24.6889  -57.9411 H         1 UNK         0.0600 
    234 H234       -6.2745  -24.7507  -57.1134 H         1 UNK         0.0600 
    235 H235       -3.5821  -21.6142  -54.9660 H         1 UNK         0.3000 
    236 H236       -1.5471  -20.9925  -54.3323 H         1 UNK         0.0600 
    237 H237        0.2788  -21.1175  -55.9788 H         1 UNK         0.0600 
    238 H238       -0.5754  -22.3540  -56.8902 H         1 UNK         0.0600 
    239 H239       -1.2354  -20.7232  -56.7765 H         1 UNK         0.0600 
    240 H240       -2.2604  -22.8690  -52.7108 H         1 UNK         0.3000 
    241 H241       -1.5501  -24.1664  -51.1099 H         1 UNK         0.0600 
    242 H242       -1.7850  -27.1006  -53.4577 H         1 UNK         0.3800 
    243 H243       -2.5655  -25.5427  -53.4624 H         1 UNK         0.3800 
    244 H244        1.3389  -23.8963  -52.0279 H         1 UNK         0.0800 
    245 H245        0.7880  -24.4132  -50.4633 H         1 UNK         0.0800 
    246 H246        2.8363  -21.9101  -51.4347 H         1 UNK         0.0800 
    247 H247        1.7119  -21.4893  -52.7031 H         1 UNK         0.0800 
@<TRIPOS>BOND
     1    1    2 1    
     2    1  127 1    
     3    1  128 1    
     4    1  129 1    
     5    2    3 2    
     6    2    4 am   BACKBONE|DICT|INTERRES
     7    4    5 1    
     8    4  130 1    
     9    5    6 1    
    10    5   65 1    
    11    5  131 1    
    12    6    7 1    
    13    6  132 1    
    14    6  133 1    
    15    7    8 1    
    16    8    9 1    
    17    8  134 1    
    18    8  135 1    
    19    9   10 ar   
    20    9   14 ar   
    21   10   11 ar   
    22   10  136 1    
    23   11   12 ar   
    24   11  126 1    
    25   12   13 ar   
    26   12  137 1    
    27   13   14 ar   
    28   13   15 1    
    29   14  138 1    
    30   15   16 1    
    31   15  139 1    
    32   15  140 1    
    33   16   17 1    
    34   17   18 1    
    35   17  141 1    
    36   17  142 1    
    37   18   19 1    
    38   18   67 1    
    39   18  143 1    
    40   19   20 am   BACKBONE|DICT|INTERRES
    41   19  144 1    
    42   20   21 2    
    43   20   22 1    
    44   22   23 1    
    45   22   24 1    
    46   22  145 1    
    47   23  146 1    
    48   23  147 1    
    49   23  148 1    
    50   24   25 am   BACKBONE|DICT|INTERRES
    51   24  149 1    
    52   25   26 2    
    53   25   27 1    
    54   27   28 1    
    55   27   29 1    
    56   27  150 1    
    57   28  151 1    
    58   28  152 1    
    59   28  153 1    
    60   29   30 am   BACKBONE|DICT|INTERRES
    61   29  154 1    
    62   30   31 2    
    63   30   32 1    
    64   32   33 1    
    65   32   34 1    
    66   32  155 1    
    67   33  156 1    
    68   33  157 1    
    69   33  158 1    
    70   34   35 am   BACKBONE|DICT|INTERRES
    71   34  159 1    
    72   35   36 2    
    73   35   37 1    
    74   37   38 1    
    75   37   39 1    
    76   37  160 1    
    77   38  161 1    
    78   38  162 1    
    79   38  163 1    
    80   39   40 am   BACKBONE|DICT|INTERRES
    81   39  164 1    
    82   40   41 2    
    83   40   42 1    
    84   42   43 1    
    85   42   44 1    
    86   42  165 1    
    87   43  166 1    
    88   43  167 1    
    89   43  168 1    
    90   44   45 am   BACKBONE|DICT|INTERRES
    91   44  169 1    
    92   45   46 2    
    93   45   47 1    
    94   47   48 1    
    95   47   49 1    
    96   47  170 1    
    97   48  171 1    
    98   48  172 1    
    99   48  173 1    
   100   49   50 am   BACKBONE|DICT|INTERRES
   101   49  174 1    
   102   50   51 2    
   103   50   52 1    
   104   52   53 1    
   105   52   54 1    
   106   52  175 1    
   107   53  176 1    
   108   53  177 1    
   109   53  178 1    
   110   54   55 am   BACKBONE|DICT|INTERRES
   111   54  179 1    
   112   55   56 2    
   113   55   57 1    
   114   57   58 1    
   115   57   59 1    
   116   57  180 1    
   117   58  181 1    
   118   58  182 1    
   119   58  183 1    
   120   59   60 am   BACKBONE|DICT|INTERRES
   121   59  184 1    
   122   60   61 2    
   123   60   62 1    
   124   62   63 1    
   125   62   64 1    
   126   62  185 1    
   127   63  186 1    
   128   63  187 1    
   129   63  188 1    
   130   64   65 am   BACKBONE|DICT|INTERRES
   131   64  189 1    
   132   65   66 2    
   133   67   68 2    
   134   67   69 am   BACKBONE|DICT|INTERRES
   135   69   70 1    
   136   69  190 1    
   137   70   71 1    
   138   70   72 1    
   139   70  191 1    
   140   71  192 1    
   141   71  193 1    
   142   71  194 1    
   143   72   73 2    
   144   72   74 am   BACKBONE|DICT|INTERRES
   145   74   75 1    
   146   74  195 1    
   147   75   76 1    
   148   75   77 1    
   149   75  196 1    
   150   76  197 1    
   151   76  198 1    
   152   76  199 1    
   153   77   78 2    
   154   77   79 am   BACKBONE|DICT|INTERRES
   155   79   80 1    
   156   79  200 1    
   157   80   81 1    
   158   80   82 1    
   159   80  201 1    
   160   81  202 1    
   161   81  203 1    
   162   81  204 1    
   163   82   83 2    
   164   82   84 am   BACKBONE|DICT|INTERRES
   165   84   85 1    
   166   84  205 1    
   167   85   86 1    
   168   85   87 1    
   169   85  206 1    
   170   86  207 1    
   171   86  208 1    
   172   86  209 1    
   173   87   88 2    
   174   87   89 am   BACKBONE|DICT|INTERRES
   175   89   90 1    
   176   89  210 1    
   177   90   91 1    
   178   90   92 1    
   179   90  211 1    
   180   91  212 1    
   181   91  213 1    
   182   91  214 1    
   183   92   93 2    
   184   92   94 am   BACKBONE|DICT|INTERRES
   185   94   95 1    
   186   94  215 1    
   187   95   96 1    
   188   95   97 1    
   189   95  216 1    
   190   96  217 1    
   191   96  218 1    
   192   96  219 1    
   193   97   98 2    
   194   97   99 am   BACKBONE|DICT|INTERRES
   195   99  100 1    
   196   99  220 1    
   197  100  101 1    
   198  100  102 1    
   199  100  221 1    
   200  101  222 1    
   201  101  223 1    
   202  101  224 1    
   203  102  103 2    
   204  102  104 am   BACKBONE|DICT|INTERRES
   205  104  105 1    
   206  104  225 1    
   207  105  106 1    
   208  105  107 1    
   209  105  226 1    
   210  106  227 1    
   211  106  228 1    
   212  106  229 1    
   213  107  108 2    
   214  107  109 am   BACKBONE|DICT|INTERRES
   215  109  110 1    
   216  109  230 1    
   217  110  111 1    
   218  110  112 1    
   219  110  231 1    
   220  111  232 1    
   221  111  233 1    
   222  111  234 1    
   223  112  113 2    
   224  112  114 am   BACKBONE|DICT|INTERRES
   225  114  115 1    
   226  114  235 1    
   227  115  116 1    
   228  115  117 1    
   229  115  236 1    
   230  116  237 1    
   231  116  238 1    
   232  116  239 1    
   233  117  118 2    
   234  117  119 am   BACKBONE|DICT|INTERRES
   235  119  120 1    
   236  119  240 1    
   237  120  121 1    
   238  120  124 1    
   239  120  241 1    
   240  121  122 am   BACKBONE|DICT|INTERRES
   241  121  123 2    
   242  122  242 1    
   243  122  243 1    
   244  124  125 1    
   245  124  244 1    
   246  124  245 1    
   247  125  126 1    
   248  126  246 1    
   249  126  247 1    
@<TRIPOS>SUBSTRUCTURE
     1 UNK         1 GROUP             0       ****    0 ROOT    
