@<TRIPOS>MOLECULE
3R540
247   249    1
SMALL
USER_CHARGES


@<TRIPOS>ATOM
      1 CA         -2.0239  -10.3171  -40.1716 C.3       0 UNK        -0.1800 
      2 C          -1.0101  -10.3044  -41.3065 C.2       0 UNK         0.5000 
      3 O          -0.2694   -9.3326  -41.4588 O.2       0 UNK        -0.5000 
      4 N          -0.9551  -11.3856  -42.0945 N.am      1 UNK        -0.5000 
      5 CA         -0.0660  -11.5729  -43.2496 C.3       1 UNK         0.1400 
      6 C6         -0.6965  -12.5582  -44.2696 C.3       23 UNK        -0.0398 
      7 S7          0.0103  -12.4083  -45.9490 S.3       23 UNK        -0.2404 
      8 C8         -1.4265  -11.8952  -46.9400 C.3       23 UNK        -0.0205 
      9 C9         -2.1765  -13.0824  -47.5307 C.ar      23 UNK        -0.0193 
     10 C10        -2.0477  -13.3848  -48.8908 C.ar      23 UNK        -0.1150 
     11 C11        -2.7853  -14.4273  -49.4596 C.ar      23 UNK        -0.0193 
     12 C12        -3.6552  -15.1682  -48.6580 C.ar      23 UNK        -0.1150 
     13 C13        -3.7536  -14.9148  -47.2885 C.ar      23 UNK        -0.0193 
     14 C14        -3.0219  -13.8609  -46.7326 C.ar      23 UNK        -0.1150 
     15 C15        -4.6524  -15.7769  -46.4143 C.3       23 UNK        -0.0205 
     16 S16        -3.8430  -17.3430  -45.9513 S.3       23 UNK        -0.2404 
     17 C17        -4.0865  -18.3408  -47.4650 C.3       23 UNK        -0.0398 
     18 CA         -3.7613  -19.8535  -47.3722 C.3       11 UNK         0.1400 
     19 N          -2.3324  -20.1419  -47.5123 N.am      11 UNK        -0.5000 
     20 C          -1.8527  -21.3258  -47.9200 C.2       10 UNK         0.5000 
     21 O          -2.5632  -22.2867  -48.2113 O.2       10 UNK        -0.5000 
     22 CA         -0.3270  -21.4885  -47.9941 C.3       10 UNK         0.1400 
     23 CB          0.2221  -20.8598  -49.2834 C.3       10 UNK        -0.1800 
     24 N           0.3625  -20.9423  -46.8266 N.am      10 UNK        -0.5000 
     25 C           0.1845  -21.3790  -45.5706 C.2       9 UNK         0.5000 
     26 O          -0.5754  -22.2985  -45.2640 O.2       9 UNK        -0.5000 
     27 CA          0.9533  -20.6366  -44.4647 C.3       9 UNK         0.1400 
     28 CB          2.4210  -21.0868  -44.4214 C.3       9 UNK        -0.1800 
     29 N           0.8878  -19.1845  -44.6189 N.am      9 UNK        -0.5000 
     30 C          -0.2406  -18.4632  -44.5540 C.2       8 UNK         0.5000 
     31 O          -1.3448  -18.9465  -44.3097 O.2       8 UNK        -0.5000 
     32 CA         -0.1136  -16.9579  -44.8527 C.3       8 UNK         0.1400 
     33 CB          0.5276  -16.2241  -43.6641 C.3       8 UNK        -0.1800 
     34 N           0.6634  -16.6994  -46.0650 N.am      8 UNK        -0.5000 
     35 C           0.3509  -17.1464  -47.2907 C.2       7 UNK         0.5000 
     36 O          -0.6586  -17.7985  -47.5539 O.2       7 UNK        -0.5000 
     37 CA          1.3878  -16.8831  -48.3942 C.3       7 UNK         0.1400 
     38 CB          1.2253  -15.4714  -48.9804 C.3       7 UNK        -0.1800 
     39 N           2.7525  -17.0657  -47.8952 N.am      7 UNK        -0.5000 
     40 C           3.2887  -18.2539  -47.5785 C.2       6 UNK         0.5000 
     41 O           2.7049  -19.3268  -47.7284 O.2       6 UNK        -0.5000 
     42 CA          4.6965  -18.2414  -46.9512 C.3       6 UNK         0.1400 
     43 CB          5.7746  -18.1522  -48.0414 C.3       6 UNK        -0.1800 
     44 N           4.8806  -17.1477  -45.9963 N.am      6 UNK        -0.5000 
     45 C           4.2359  -17.0486  -44.8250 C.2       5 UNK         0.5000 
     46 O           3.4804  -17.9179  -44.3929 O.2       5 UNK        -0.5000 
     47 CA          4.4270  -15.7445  -44.0219 C.3       5 UNK         0.1400 
     48 CB          5.5435  -15.9092  -42.9809 C.3       5 UNK        -0.1800 
     49 N           4.7054  -14.5606  -44.8419 N.am      5 UNK        -0.5000 
     50 C           3.9174  -14.1024  -45.8238 C.2       4 UNK         0.5000 
     51 O           2.8792  -14.6602  -46.1780 O.2       4 UNK        -0.5000 
     52 CA          4.3801  -12.8091  -46.5045 C.3       4 UNK         0.1400 
     53 CB          3.5536  -12.4405  -47.7508 C.3       4 UNK        -0.1800 
     54 N           4.3193  -11.7298  -45.5268 N.am      4 UNK        -0.5000 
     55 C           5.1867  -10.7138  -45.4453 C.2       3 UNK         0.5000 
     56 O           6.1447  -10.5748  -46.2071 O.2       3 UNK        -0.5000 
     57 CA          4.9539   -9.6671  -44.3366 C.3       3 UNK         0.1400 
     58 CB          4.3688   -8.3776  -44.9339 C.3       3 UNK        -0.1800 
     59 N           4.0691  -10.1278  -43.2654 N.am      3 UNK        -0.5000 
     60 C           4.3904  -11.0310  -42.3287 C.2       2 UNK         0.5000 
     61 O           5.4931  -11.5731  -42.2505 O.2       2 UNK        -0.5000 
     62 CA          3.2848  -11.3999  -41.3200 C.3       2 UNK         0.1400 
     63 CB          3.4339  -10.5787  -40.0306 C.3       2 UNK        -0.1800 
     64 N           1.9331  -11.2070  -41.8531 N.am      2 UNK        -0.5000 
     65 C           1.3739  -11.9535  -42.8142 C.2       1 UNK         0.5000 
     66 O           1.9616  -12.8990  -43.3377 O.2       1 UNK        -0.5000 
     67 C          -4.3899  -20.5674  -46.1565 C.2       11 UNK         0.5000 
     68 O          -5.5262  -21.0298  -46.2615 O.2       11 UNK        -0.5000 
     69 N          -3.6371  -20.6988  -45.0525 N.am      12 UNK        -0.5000 
     70 CA         -4.0481  -21.4318  -43.8519 C.3       12 UNK         0.1400 
     71 CB         -3.0584  -21.1612  -42.7090 C.3       12 UNK        -0.1800 
     72 C          -4.1888  -22.9440  -44.1020 C.2       12 UNK         0.5000 
     73 O          -5.1526  -23.5516  -43.6347 O.2       12 UNK        -0.5000 
     74 N          -3.2468  -23.5154  -44.8647 N.am      13 UNK        -0.5000 
     75 CA         -3.2805  -24.9067  -45.3211 C.3       13 UNK         0.1400 
     76 CB         -1.8566  -25.3260  -45.7200 C.3       13 UNK        -0.1800 
     77 C          -4.2423  -25.1334  -46.5047 C.2       13 UNK         0.5000 
     78 O          -4.5047  -26.2856  -46.8532 O.2       13 UNK        -0.5000 
     79 N          -4.6901  -24.0416  -47.1437 N.am      14 UNK        -0.5000 
     80 CA         -5.4630  -23.9769  -48.3897 C.3       14 UNK         0.1400 
     81 CB         -6.9060  -24.4666  -48.1518 C.3       14 UNK        -0.1800 
     82 C          -4.7650  -24.7154  -49.5518 C.2       14 UNK         0.5000 
     83 O          -5.4329  -25.3667  -50.3527 O.2       14 UNK        -0.5000 
     84 N          -3.4237  -24.6634  -49.5647 N.am      15 UNK        -0.5000 
     85 CA         -2.5004  -25.4215  -50.4182 C.3       15 UNK         0.1400 
     86 CB         -2.4695  -24.8215  -51.8356 C.3       15 UNK        -0.1800 
     87 C          -2.7456  -26.9496  -50.4089 C.2       15 UNK         0.5000 
     88 O          -2.5659  -27.6062  -51.4349 O.2       15 UNK        -0.5000 
     89 N          -3.1628  -27.4802  -49.2476 N.am      16 UNK        -0.5000 
     90 CA         -3.6132  -28.8569  -49.0139 C.3       16 UNK         0.1400 
     91 CB         -2.4775  -29.8754  -49.2500 C.3       16 UNK        -0.1800 
     92 C          -4.9086  -29.1785  -49.7904 C.2       16 UNK         0.5000 
     93 O          -5.0247  -30.2461  -50.3948 O.2       16 UNK        -0.5000 
     94 N          -5.8541  -28.2283  -49.7430 N.am      17 UNK        -0.5000 
     95 CA         -7.1517  -28.2029  -50.4228 C.3       17 UNK         0.1400 
     96 CB         -8.0635  -29.3462  -49.9290 C.3       17 UNK        -0.1800 
     97 C          -6.9979  -28.1543  -51.9561 C.2       17 UNK         0.5000 
     98 O          -7.4834  -29.0425  -52.6605 O.2       17 UNK        -0.5000 
     99 N          -6.3159  -27.1113  -52.4420 N.am      18 UNK        -0.5000 
    100 CA        -6.0781  -26.8477  -53.8580 C.3       18 UNK         0.1400 
    101 CB        -4.6884  -27.3803  -54.2466 C.3       18 UNK        -0.1800 
    102 C         -6.1860  -25.3428  -54.1469 C.2       18 UNK         0.5000 
    103 O         -6.0575  -24.5178  -53.2411 O.2       18 UNK        -0.5000 
    104 N         -6.3776  -25.0056  -55.4278 N.am      19 UNK        -0.5000 
    105 CA        -6.4653  -23.6295  -55.9310 C.3       19 UNK         0.1400 
    106 CB        -7.1666  -23.6561  -57.2992 C.3       19 UNK        -0.1800 
    107 C         -5.1002  -22.9123  -56.0317 C.2       19 UNK         0.5000 
    108 O         -5.0624  -21.7298  -56.3718 O.2       19 UNK        -0.5000 
    109 N         -4.0059  -23.6349  -55.7558 N.am      20 UNK        -0.5000 
    110 CA        -2.6211  -23.1703  -55.8501 C.3       20 UNK         0.1400 
    111 CB        -1.6957  -24.3970  -55.8127 C.3       20 UNK        -0.1800 
    112 C         -2.2043  -22.1450  -54.7750 C.2       20 UNK         0.5000 
    113 O         -1.1414  -21.5376  -54.9197 O.2       20 UNK        -0.5000 
    114 N         -3.0159  -21.9687  -53.7206 N.am      21 UNK        -0.5000 
    115 CA        -2.7874  -21.0180  -52.6289 C.3       21 UNK         0.1400 
    116 CB        -3.9008  -21.1624  -51.5781 C.3       21 UNK        -0.1800 
    117 C         -2.6868  -19.5700  -53.1478 C.2       21 UNK         0.5000 
    118 O         -3.6669  -19.0455  -53.6803 O.2       21 UNK        -0.5000 
    119 N         -1.4894  -18.9845  -53.0176 N.am      22 UNK        -0.5000 
    120 CA        -1.0933  -17.6738  -53.5674 C.3       22 UNK         0.1400 
    121 C         -0.9732  -17.6376  -55.1238 C.2       22 UNK         0.5000 
    122 N         -0.9053  -18.7692  -55.8156 N.am      22 UNK        -0.7600 
    123 O         -0.9042  -16.5660  -55.7201 O.2       22 UNK        -0.5000 
    124 C124       -1.9213  -16.4820  -53.0070 C.3       23 UNK        -0.0398 
    125 S125       -1.8626  -16.3751  -51.1890 S.3       23 UNK        -0.2404 
    126 C126       -2.6581  -14.7576  -50.9382 C.3       23 UNK        -0.0205 
    127 H127       -2.7160   -9.4819  -40.2781 H         1 UNK         0.0600 
    128 H128       -1.5146  -10.2193  -39.2128 H         1 UNK         0.0600 
    129 H129       -2.6042  -11.2400  -40.1562 H         1 UNK         0.0600 
    130 H130       -1.5619  -12.1659  -41.8858 H         1 UNK         0.3000 
    131 H131        0.0170  -10.6059  -43.7508 H         1 UNK         0.0600 
    132 H132       -0.6127  -13.5888  -43.9293 H         1 UNK         0.0800 
    133 H133       -1.7672  -12.3659  -44.3322 H         1 UNK         0.0800 
    134 H134       -2.1042  -11.2810  -46.3457 H         1 UNK         0.0800 
    135 H135       -1.0685  -11.2471  -47.7413 H         1 UNK         0.0800 
    136 H136       -1.3833  -12.7987  -49.5102 H         1 UNK         0.1150 
    137 H137       -4.2367  -15.9618  -49.1037 H         1 UNK         0.1150 
    138 H138       -3.1159  -13.6464  -45.6786 H         1 UNK         0.1150 
    139 H139       -4.9115  -15.2381  -45.5017 H         1 UNK         0.0800 
    140 H140       -5.5957  -15.9772  -46.9242 H         1 UNK         0.0800 
    141 H141       -3.4859  -17.9061  -48.2639 H         1 UNK         0.0800 
    142 H142       -5.1260  -18.2228  -47.7746 H         1 UNK         0.0800 
    143 H143       -4.2396  -20.3002  -48.2471 H         1 UNK         0.0600 
    144 H144       -1.6902  -19.3743  -47.3251 H         1 UNK         0.3000 
    145 H145       -0.1135  -22.5589  -48.0265 H         1 UNK         0.0600 
    146 H146        1.2924  -21.0390  -49.3847 H         1 UNK         0.0600 
    147 H147       -0.2624  -21.2877  -50.1616 H         1 UNK         0.0600 
    148 H148        0.0579  -19.7826  -49.3097 H         1 UNK         0.0600 
    149 H149        1.0306  -20.1985  -47.0010 H         1 UNK         0.3000 
    150 H150        0.4908  -20.8920  -43.5092 H         1 UNK         0.0600 
    151 H151        2.4951  -22.1682  -44.3003 H         1 UNK         0.0600 
    152 H152        2.9481  -20.6285  -43.5844 H         1 UNK         0.0600 
    153 H153        2.9521  -20.8200  -45.3357 H         1 UNK         0.0600 
    154 H154        1.7701  -18.7023  -44.7669 H         1 UNK         0.3000 
    155 H155       -1.1107  -16.5458  -45.0164 H         1 UNK         0.0600 
    156 H156       -0.1941  -16.0916  -42.8578 H         1 UNK         0.0600 
    157 H157        0.8907  -15.2395  -43.9531 H         1 UNK         0.0600 
    158 H158        1.3754  -16.7695  -43.2507 H         1 UNK         0.0600 
    159 H159        1.4972  -16.1293  -45.9659 H         1 UNK         0.3000 
    160 H160        1.2174  -17.6022  -49.1979 H         1 UNK         0.0600 
    161 H161        1.9565  -15.2798  -49.7654 H         1 UNK         0.0600 
    162 H162        1.3308  -14.6959  -48.2223 H         1 UNK         0.0600 
    163 H163        0.2361  -15.3488  -49.4194 H         1 UNK         0.0600 
    164 H164        3.2487  -16.2221  -47.6413 H         1 UNK         0.3000 
    165 H165        4.8300  -19.1843  -46.4165 H         1 UNK         0.0600 
    166 H166        6.7748  -18.2218  -47.6134 H         1 UNK         0.0600 
    167 H167        5.6716  -18.9677  -48.7586 H         1 UNK         0.0600 
    168 H168        5.7109  -17.2160  -48.5974 H         1 UNK         0.0600 
    169 H169        5.4893  -16.3926  -46.2744 H         1 UNK         0.3000 
    170 H170        3.4939  -15.5515  -43.4894 H         1 UNK         0.0600 
    171 H171        5.3502  -16.7651  -42.3328 H         1 UNK         0.0600 
    172 H172        6.5138  -16.0664  -43.4533 H         1 UNK         0.0600 
    173 H173        5.6185  -15.0293  -42.3412 H         1 UNK         0.0600 
    174 H174        5.5288  -14.0294  -44.5977 H         1 UNK         0.3000 
    175 H175        5.4131  -12.9730  -46.8183 H         1 UNK         0.0600 
    176 H176        2.5111  -12.2465  -47.5007 H         1 UNK         0.0600 
    177 H177        3.9508  -11.5497  -48.2372 H         1 UNK         0.0600 
    178 H178        3.5716  -13.2471  -48.4846 H         1 UNK         0.0600 
    179 H179        3.5813  -11.8064  -44.8382 H         1 UNK         0.3000 
    180 H180        5.9268   -9.4316  -43.9001 H         1 UNK         0.0600 
    181 H181        4.2638   -7.6025  -44.1745 H         1 UNK         0.0600 
    182 H182        3.3875   -8.5494  -45.3782 H         1 UNK         0.0600 
    183 H183        5.0172   -7.9785  -45.7151 H         1 UNK         0.0600 
    184 H184        3.1401   -9.7336  -43.2453 H         1 UNK         0.3000 
    185 H185        3.4064  -12.4561  -41.0702 H         1 UNK         0.0600 
    186 H186        3.3015   -9.5119  -40.2154 H         1 UNK         0.0600 
    187 H187        2.7014  -10.8831  -39.2826 H         1 UNK         0.0600 
    188 H188        4.4227  -10.7165  -39.5911 H         1 UNK         0.0600 
    189 H189        1.3880  -10.4373  -41.4777 H         1 UNK         0.3000 
    190 H190       -2.7322  -20.2385  -45.0159 H         1 UNK         0.3000 
    191 H191       -5.0262  -21.0536  -43.5475 H         1 UNK         0.0600 
    192 H192       -2.0455  -21.4675  -42.9721 H         1 UNK         0.0600 
    193 H193       -3.0324  -20.1015  -42.4550 H         1 UNK         0.0600 
    194 H194       -3.3433  -21.7039  -41.8069 H         1 UNK         0.0600 
    195 H195       -2.4472  -22.9607  -45.1582 H         1 UNK         0.3000 
    196 H196       -3.6103  -25.5441  -44.4983 H         1 UNK         0.0600 
    197 H197       -1.1643  -25.2123  -44.8856 H         1 UNK         0.0600 
    198 H198       -1.4798  -24.7262  -46.5499 H         1 UNK         0.0600 
    199 H199       -1.8247  -26.3720  -46.0280 H         1 UNK         0.0600 
    200 H200       -4.3758  -23.1476  -46.7925 H         1 UNK         0.3000 
    201 H201       -5.5057  -22.9249  -48.6751 H         1 UNK         0.0600 
    202 H202       -7.5217  -24.3177  -49.0396 H         1 UNK         0.0600 
    203 H203       -7.3762  -23.9175  -47.3360 H         1 UNK         0.0600 
    204 H204       -6.9387  -25.5281  -47.9042 H         1 UNK         0.0600 
    205 H205       -2.9907  -24.0272  -48.9001 H         1 UNK         0.3000 
    206 H206       -1.5082  -25.2839  -49.9865 H         1 UNK         0.0600 
    207 H207       -2.1405  -23.7848  -51.8025 H         1 UNK         0.0600 
    208 H208       -3.4498  -24.8527  -52.3106 H         1 UNK         0.0600 
    209 H209       -1.7694  -25.3550  -52.4788 H         1 UNK         0.0600 
    210 H210       -3.3272  -26.8497  -48.4710 H         1 UNK         0.3000 
    211 H211       -3.8773  -28.9096  -47.9566 H         1 UNK         0.0600 
    212 H212       -1.5843  -29.6076  -48.6858 H         1 UNK         0.0600 
    213 H213       -2.7784  -30.8724  -48.9267 H         1 UNK         0.0600 
    214 H214       -2.2021  -29.9463  -50.3024 H         1 UNK         0.0600 
    215 H215       -5.6081  -27.3620  -49.2825 H         1 UNK         0.3000 
    216 H216       -7.6268  -27.2642  -50.1336 H         1 UNK         0.0600 
    217 H217       -9.0627  -29.2563  -50.3566 H         1 UNK         0.0600 
    218 H218       -7.6791  -30.3278  -50.2069 H         1 UNK         0.0600 
    219 H219       -8.1714  -29.3230  -48.8447 H         1 UNK         0.0600 
    220 H220       -5.9796  -26.3919  -51.8008 H         1 UNK         0.3000 
    221 H221       -6.8360  -27.3529  -54.4605 H         1 UNK         0.0600 
    222 H222       -3.8952  -26.8629  -53.7069 H         1 UNK         0.0600 
    223 H223       -4.5987  -28.4443  -54.0264 H         1 UNK         0.0600 
    224 H224       -4.4985  -27.2531  -55.3128 H         1 UNK         0.0600 
    225 H225       -6.4620  -25.7371  -56.1196 H         1 UNK         0.3000 
    226 H226       -7.0836  -23.0474  -55.2444 H         1 UNK         0.0600 
    227 H227       -8.1564  -24.1073  -57.2268 H         1 UNK         0.0600 
    228 H228       -7.3012  -22.6475  -57.6922 H         1 UNK         0.0600 
    229 H229       -6.5920  -24.2207  -58.0346 H         1 UNK         0.0600 
    230 H230       -4.1380  -24.5970  -55.4842 H         1 UNK         0.3000 
    231 H231       -2.4965  -22.6813  -56.8185 H         1 UNK         0.0600 
    232 H232       -0.6487  -24.1039  -55.9015 H         1 UNK         0.0600 
    233 H233       -1.9100  -25.0779  -56.6367 H         1 UNK         0.0600 
    234 H234       -1.8030  -24.9537  -54.8816 H         1 UNK         0.0600 
    235 H235       -3.8794  -22.4907  -53.6928 H         1 UNK         0.3000 
    236 H236       -1.8433  -21.2872  -52.1516 H         1 UNK         0.0600 
    237 H237       -3.7463  -20.4681  -50.7513 H         1 UNK         0.0600 
    238 H238       -4.8845  -20.9575  -52.0021 H         1 UNK         0.0600 
    239 H239       -3.9212  -22.1669  -51.1564 H         1 UNK         0.0600 
    240 H240       -0.7398  -19.5114  -52.5942 H         1 UNK         0.3000 
    241 H241       -0.0685  -17.5268  -53.2251 H         1 UNK         0.0600 
    242 H242       -0.8132  -18.7262  -56.8179 H         1 UNK         0.3800 
    243 H243       -0.9481  -19.6748  -55.3570 H         1 UNK         0.3800 
    244 H244       -1.5389  -15.5393  -53.4017 H         1 UNK         0.0800 
    245 H245       -2.9622  -16.5443  -53.3262 H         1 UNK         0.0800 
    246 H246       -2.0830  -13.9885  -51.4561 H         1 UNK         0.0800 
    247 H247       -3.6502  -14.7657  -51.3920 H         1 UNK         0.0800 
@<TRIPOS>BOND
     1    1    2 1    
     2    1  127 1    
     3    1  128 1    
     4    1  129 1    
     5    2    3 2    
     6    2    4 am   BACKBONE|DICT|INTERRES
     7    4    5 1    
     8    4  130 1    
     9    5    6 1    
    10    5   65 1    
    11    5  131 1    
    12    6    7 1    
    13    6  132 1    
    14    6  133 1    
    15    7    8 1    
    16    8    9 1    
    17    8  134 1    
    18    8  135 1    
    19    9   10 ar   
    20    9   14 ar   
    21   10   11 ar   
    22   10  136 1    
    23   11   12 ar   
    24   11  126 1    
    25   12   13 ar   
    26   12  137 1    
    27   13   14 ar   
    28   13   15 1    
    29   14  138 1    
    30   15   16 1    
    31   15  139 1    
    32   15  140 1    
    33   16   17 1    
    34   17   18 1    
    35   17  141 1    
    36   17  142 1    
    37   18   19 1    
    38   18   67 1    
    39   18  143 1    
    40   19   20 am   BACKBONE|DICT|INTERRES
    41   19  144 1    
    42   20   21 2    
    43   20   22 1    
    44   22   23 1    
    45   22   24 1    
    46   22  145 1    
    47   23  146 1    
    48   23  147 1    
    49   23  148 1    
    50   24   25 am   BACKBONE|DICT|INTERRES
    51   24  149 1    
    52   25   26 2    
    53   25   27 1    
    54   27   28 1    
    55   27   29 1    
    56   27  150 1    
    57   28  151 1    
    58   28  152 1    
    59   28  153 1    
    60   29   30 am   BACKBONE|DICT|INTERRES
    61   29  154 1    
    62   30   31 2    
    63   30   32 1    
    64   32   33 1    
    65   32   34 1    
    66   32  155 1    
    67   33  156 1    
    68   33  157 1    
    69   33  158 1    
    70   34   35 am   BACKBONE|DICT|INTERRES
    71   34  159 1    
    72   35   36 2    
    73   35   37 1    
    74   37   38 1    
    75   37   39 1    
    76   37  160 1    
    77   38  161 1    
    78   38  162 1    
    79   38  163 1    
    80   39   40 am   BACKBONE|DICT|INTERRES
    81   39  164 1    
    82   40   41 2    
    83   40   42 1    
    84   42   43 1    
    85   42   44 1    
    86   42  165 1    
    87   43  166 1    
    88   43  167 1    
    89   43  168 1    
    90   44   45 am   BACKBONE|DICT|INTERRES
    91   44  169 1    
    92   45   46 2    
    93   45   47 1    
    94   47   48 1    
    95   47   49 1    
    96   47  170 1    
    97   48  171 1    
    98   48  172 1    
    99   48  173 1    
   100   49   50 am   BACKBONE|DICT|INTERRES
   101   49  174 1    
   102   50   51 2    
   103   50   52 1    
   104   52   53 1    
   105   52   54 1    
   106   52  175 1    
   107   53  176 1    
   108   53  177 1    
   109   53  178 1    
   110   54   55 am   BACKBONE|DICT|INTERRES
   111   54  179 1    
   112   55   56 2    
   113   55   57 1    
   114   57   58 1    
   115   57   59 1    
   116   57  180 1    
   117   58  181 1    
   118   58  182 1    
   119   58  183 1    
   120   59   60 am   BACKBONE|DICT|INTERRES
   121   59  184 1    
   122   60   61 2    
   123   60   62 1    
   124   62   63 1    
   125   62   64 1    
   126   62  185 1    
   127   63  186 1    
   128   63  187 1    
   129   63  188 1    
   130   64   65 am   BACKBONE|DICT|INTERRES
   131   64  189 1    
   132   65   66 2    
   133   67   68 2    
   134   67   69 am   BACKBONE|DICT|INTERRES
   135   69   70 1    
   136   69  190 1    
   137   70   71 1    
   138   70   72 1    
   139   70  191 1    
   140   71  192 1    
   141   71  193 1    
   142   71  194 1    
   143   72   73 2    
   144   72   74 am   BACKBONE|DICT|INTERRES
   145   74   75 1    
   146   74  195 1    
   147   75   76 1    
   148   75   77 1    
   149   75  196 1    
   150   76  197 1    
   151   76  198 1    
   152   76  199 1    
   153   77   78 2    
   154   77   79 am   BACKBONE|DICT|INTERRES
   155   79   80 1    
   156   79  200 1    
   157   80   81 1    
   158   80   82 1    
   159   80  201 1    
   160   81  202 1    
   161   81  203 1    
   162   81  204 1    
   163   82   83 2    
   164   82   84 am   BACKBONE|DICT|INTERRES
   165   84   85 1    
   166   84  205 1    
   167   85   86 1    
   168   85   87 1    
   169   85  206 1    
   170   86  207 1    
   171   86  208 1    
   172   86  209 1    
   173   87   88 2    
   174   87   89 am   BACKBONE|DICT|INTERRES
   175   89   90 1    
   176   89  210 1    
   177   90   91 1    
   178   90   92 1    
   179   90  211 1    
   180   91  212 1    
   181   91  213 1    
   182   91  214 1    
   183   92   93 2    
   184   92   94 am   BACKBONE|DICT|INTERRES
   185   94   95 1    
   186   94  215 1    
   187   95   96 1    
   188   95   97 1    
   189   95  216 1    
   190   96  217 1    
   191   96  218 1    
   192   96  219 1    
   193   97   98 2    
   194   97   99 am   BACKBONE|DICT|INTERRES
   195   99  100 1    
   196   99  220 1    
   197  100  101 1    
   198  100  102 1    
   199  100  221 1    
   200  101  222 1    
   201  101  223 1    
   202  101  224 1    
   203  102  103 2    
   204  102  104 am   BACKBONE|DICT|INTERRES
   205  104  105 1    
   206  104  225 1    
   207  105  106 1    
   208  105  107 1    
   209  105  226 1    
   210  106  227 1    
   211  106  228 1    
   212  106  229 1    
   213  107  108 2    
   214  107  109 am   BACKBONE|DICT|INTERRES
   215  109  110 1    
   216  109  230 1    
   217  110  111 1    
   218  110  112 1    
   219  110  231 1    
   220  111  232 1    
   221  111  233 1    
   222  111  234 1    
   223  112  113 2    
   224  112  114 am   BACKBONE|DICT|INTERRES
   225  114  115 1    
   226  114  235 1    
   227  115  116 1    
   228  115  117 1    
   229  115  236 1    
   230  116  237 1    
   231  116  238 1    
   232  116  239 1    
   233  117  118 2    
   234  117  119 am   BACKBONE|DICT|INTERRES
   235  119  120 1    
   236  119  240 1    
   237  120  121 1    
   238  120  124 1    
   239  120  241 1    
   240  121  122 am   BACKBONE|DICT|INTERRES
   241  121  123 2    
   242  122  242 1    
   243  122  243 1    
   244  124  125 1    
   245  124  244 1    
   246  124  245 1    
   247  125  126 1    
   248  126  246 1    
   249  126  247 1    
@<TRIPOS>SUBSTRUCTURE
     1 UNK         1 GROUP             0       ****    0 ROOT    
