@<TRIPOS>MOLECULE
3R540
247   249    1
SMALL
USER_CHARGES


@<TRIPOS>ATOM
      1 CA         -1.9585  -17.9461  -51.2495 C.3       0 UNK        -0.1800 
      2 C          -1.0731  -17.3398  -50.1699 C.2       0 UNK         0.5000 
      3 O          -0.6028  -18.0612  -49.2945 O.2       0 UNK        -0.5000 
      4 N          -0.8575  -16.0175  -50.2237 N.am      1 UNK        -0.5000 
      5 CA         -0.0242  -15.2365  -49.2933 C.3       1 UNK         0.1400 
      6 C6          1.4922  -15.5631  -49.3916 C.3       23 UNK        -0.0398 
      7 S7          2.1445  -15.1989  -51.0591 S.3       23 UNK        -0.2404 
      8 C8          3.6101  -16.2792  -51.1520 C.3       23 UNK        -0.0205 
      9 C9          3.2595  -17.7612  -51.1333 C.ar      23 UNK        -0.0193 
     10 C10         2.3922  -18.2981  -52.0899 C.ar      23 UNK        -0.1150 
     11 C11         2.0566  -19.6550  -52.0651 C.ar      23 UNK        -0.0193 
     12 C12         2.5961  -20.4764  -51.0724 C.ar      23 UNK        -0.1150 
     13 C13         3.4537  -19.9496  -50.1023 C.ar      23 UNK        -0.0193 
     14 C14         3.7967  -18.5956  -50.1490 C.ar      23 UNK        -0.1150 
     15 C15         3.9408  -20.8302  -48.9596 C.3       23 UNK        -0.0205 
     16 S16         3.3236  -20.2811  -47.3283 S.3       23 UNK        -0.2404 
     17 C17         1.5408  -20.0066  -47.6304 C.3       23 UNK        -0.0398 
     18 CA          0.6724  -21.2328  -47.2766 C.3       11 UNK         0.1400 
     19 N           0.6172  -21.4694  -45.8317 N.am      11 UNK        -0.5000 
     20 C          -0.0348  -22.4822  -45.2411 C.2       10 UNK         0.5000 
     21 O          -0.5725  -23.3968  -45.8657 O.2       10 UNK        -0.5000 
     22 CA         -0.1642  -22.4477  -43.7048 C.3       10 UNK         0.1400 
     23 CB          0.8218  -23.4343  -43.0643 C.3       10 UNK        -0.1800 
     24 N           0.0325  -21.1179  -43.1203 N.am      10 UNK        -0.5000 
     25 C          -0.7285  -20.0377  -43.3654 C.2       9 UNK         0.5000 
     26 O          -1.7238  -20.0628  -44.0901 O.2       9 UNK        -0.5000 
     27 CA         -0.2763  -18.6972  -42.7475 C.3       9 UNK         0.1400 
     28 CB         -1.1152  -18.3718  -41.5039 C.3       9 UNK        -0.1800 
     29 N           1.1481  -18.6720  -42.3993 N.am      9 UNK        -0.5000 
     30 C           2.1439  -18.7604  -43.2960 C.2       8 UNK         0.5000 
     31 O           1.9469  -18.8056  -44.5090 O.2       8 UNK        -0.5000 
     32 CA          3.5892  -18.8851  -42.7718 C.3       8 UNK         0.1400 
     33 CB          4.3874  -17.6009  -43.0289 C.3       8 UNK        -0.1800 
     34 N           3.6726  -19.2319  -41.3525 N.am      8 UNK        -0.5000 
     35 C           3.3351  -20.4253  -40.8431 C.2       7 UNK         0.5000 
     36 O           2.9355  -21.3655  -41.5296 O.2       7 UNK        -0.5000 
     37 CA          3.4160  -20.5901  -39.3128 C.3       7 UNK         0.1400 
     38 CB          4.7329  -21.2745  -38.9168 C.3       7 UNK        -0.1800 
     39 N           3.2856  -19.3371  -38.5630 N.am      7 UNK        -0.5000 
     40 C           2.2151  -18.5309  -38.5796 C.2       6 UNK         0.5000 
     41 O           1.2164  -18.7485  -39.2674 O.2       6 UNK        -0.5000 
     42 CA          2.2549  -17.2723  -37.6869 C.3       6 UNK         0.1400 
     43 CB          3.6277  -17.0016  -37.0288 C.3       6 UNK        -0.1800 
     44 N           1.7841  -16.0772  -38.3939 N.am      6 UNK        -0.5000 
     45 C           2.3018  -15.5411  -39.5082 C.2       5 UNK         0.5000 
     46 O           3.2671  -16.0082  -40.1178 O.2       5 UNK        -0.5000 
     47 CA          1.6545  -14.2223  -39.9679 C.3       5 UNK         0.1400 
     48 CB          2.1199  -13.0599  -39.0748 C.3       5 UNK        -0.1800 
     49 N           1.9802  -13.8912  -41.3542 N.am      5 UNK        -0.5000 
     50 C           1.3310  -14.3629  -42.4233 C.2       4 UNK         0.5000 
     51 O           0.4051  -15.1742  -42.3639 O.2       4 UNK        -0.5000 
     52 CA          1.7785  -13.8086  -43.7902 C.3       4 UNK         0.1400 
     53 CB          2.5386  -14.8664  -44.6024 C.3       4 UNK        -0.1800 
     54 N           0.6340  -13.3350  -44.5675 N.am      4 UNK        -0.5000 
     55 C          -0.0953  -12.2509  -44.2590 C.2       3 UNK         0.5000 
     56 O           0.1712  -11.5015  -43.3181 O.2       3 UNK        -0.5000 
     57 CA         -1.3158  -11.9243  -45.1462 C.3       3 UNK         0.1400 
     58 CB         -0.9974  -10.7521  -46.0877 C.3       3 UNK        -0.1800 
     59 N          -1.7769  -13.0563  -45.9489 N.am      3 UNK        -0.5000 
     60 C          -2.3846  -14.1477  -45.4656 C.2       2 UNK         0.5000 
     61 O          -2.7222  -14.2730  -44.2885 O.2       2 UNK        -0.5000 
     62 CA         -2.6550  -15.2989  -46.4566 C.3       2 UNK         0.1400 
     63 CB         -4.1541  -15.3784  -46.7888 C.3       2 UNK        -0.1800 
     64 N          -1.9023  -15.2260  -47.7151 N.am      2 UNK        -0.5000 
     65 C          -0.5674  -15.2794  -47.8445 C.2       1 UNK         0.5000 
     66 O           0.2030  -15.3270  -46.8850 O.2       1 UNK        -0.5000 
     67 C          -0.7319  -21.0730  -47.8957 C.2       11 UNK         0.5000 
     68 O          -0.9675  -21.5913  -48.9864 O.2       11 UNK        -0.5000 
     69 N          -1.6511  -20.4077  -47.1783 N.am      12 UNK        -0.5000 
     70 CA         -3.0281  -20.2083  -47.6245 C.3       12 UNK         0.1400 
     71 CB         -3.7072  -19.1352  -46.7670 C.3       12 UNK        -0.1800 
     72 C          -3.8328  -21.5150  -47.6009 C.2       12 UNK         0.5000 
     73 O          -4.6207  -21.7515  -48.5150 O.2       12 UNK        -0.5000 
     74 N          -3.5918  -22.3551  -46.5843 N.am      13 UNK        -0.5000 
     75 CA         -4.1789  -23.6888  -46.4548 C.3       13 UNK         0.1400 
     76 CB         -3.8951  -24.2508  -45.0536 C.3       13 UNK        -0.1800 
     77 C          -3.6795  -24.6448  -47.5524 C.2       13 UNK         0.5000 
     78 O          -4.4899  -25.3496  -48.1547 O.2       13 UNK        -0.5000 
     79 N          -2.3697  -24.6015  -47.8402 N.am      14 UNK        -0.5000 
     80 CA         -1.7310  -25.3218  -48.9465 C.3       14 UNK         0.1400 
     81 CB         -0.2077  -25.1432  -48.8595 C.3       14 UNK        -0.1800 
     82 C          -2.2570  -24.8830  -50.3286 C.2       14 UNK         0.5000 
     83 O          -2.4071  -25.7189  -51.2194 O.2       14 UNK        -0.5000 
     84 N          -2.5826  -23.5908  -50.4567 N.am      15 UNK        -0.5000 
     85 CA         -3.2294  -22.9735  -51.6137 C.3       15 UNK         0.1400 
     86 CB         -2.8285  -21.4902  -51.6596 C.3       15 UNK        -0.1800 
     87 C          -4.7659  -23.1424  -51.6284 C.2       15 UNK         0.5000 
     88 O          -5.4317  -22.4388  -52.3877 O.2       15 UNK        -0.5000 
     89 N          -5.3150  -24.0459  -50.8012 N.am      16 UNK        -0.5000 
     90 CA         -6.7318  -24.4186  -50.7101 C.3       16 UNK         0.1400 
     91 CB         -7.1897  -25.1168  -52.0089 C.3       16 UNK        -0.1800 
     92 C          -7.6355  -23.2339  -50.3125 C.2       16 UNK         0.5000 
     93 O          -8.6109  -22.9363  -51.0020 O.2       16 UNK        -0.5000 
     94 N          -7.2584  -22.5539  -49.2211 N.am      17 UNK        -0.5000 
     95 CA         -7.8402  -21.3074  -48.7058 C.3       17 UNK         0.1400 
     96 CB         -9.3114  -21.4988  -48.2812 C.3       17 UNK        -0.1800 
     97 C          -7.6274  -20.1320  -49.6829 C.2       17 UNK         0.5000 
     98 O          -8.5167  -19.2991  -49.8641 O.2       17 UNK        -0.5000 
     99 N          -6.4402  -20.1165  -50.3071 N.am      18 UNK        -0.5000 
    100 CA        -5.9688  -19.1805  -51.3332 C.3       18 UNK         0.1400 
    101 CB        -5.8190  -17.7599  -50.7510 C.3       18 UNK        -0.1800 
    102 C         -6.7761  -19.2082  -52.6518 C.2       18 UNK         0.5000 
    103 O         -6.6737  -18.2695  -53.4428 O.2       18 UNK        -0.5000 
    104 N         -7.5391  -20.2840  -52.8937 N.am      19 UNK        -0.5000 
    105 CA        -8.2739  -20.5133  -54.1396 C.3       19 UNK         0.1400 
    106 CB        -9.3631  -21.5690  -53.9021 C.3       19 UNK        -0.1800 
    107 C         -7.3487  -20.9494  -55.2908 C.2       19 UNK         0.5000 
    108 O         -7.6182  -20.6200  -56.4463 O.2       19 UNK        -0.5000 
    109 N         -6.2699  -21.6634  -54.9511 N.am      20 UNK        -0.5000 
    110 CA        -5.2208  -22.1275  -55.8515 C.3       20 UNK         0.1400 
    111 CB        -5.1216  -23.6607  -55.7465 C.3       20 UNK        -0.1800 
    112 C         -3.9086  -21.4146  -55.4818 C.2       20 UNK         0.5000 
    113 O         -2.9045  -22.0652  -55.1862 O.2       20 UNK        -0.5000 
    114 N         -3.9595  -20.0754  -55.4629 N.am      21 UNK        -0.5000 
    115 CA        -2.8330  -19.1919  -55.1637 C.3       21 UNK         0.1400 
    116 CB        -3.3499  -17.7510  -55.0343 C.3       21 UNK        -0.1800 
    117 C         -1.7046  -19.2791  -56.2110 C.2       21 UNK         0.5000 
    118 O         -1.9487  -19.6209  -57.3709 O.2       21 UNK        -0.5000 
    119 N         -0.4890  -18.9476  -55.7672 N.am      22 UNK        -0.5000 
    120 CA         0.7624  -19.0559  -56.5357 C.3       22 UNK         0.1400 
    121 C          1.0222  -17.8760  -57.5192 C.2       22 UNK         0.5000 
    122 N          0.2071  -16.8284  -57.5399 N.am      22 UNK        -0.7600 
    123 O          1.9793  -17.9158  -58.2876 O.2       22 UNK        -0.5000 
    124 C124        1.9780  -19.2767  -55.5947 C.3       23 UNK        -0.0398 
    125 S125        1.8466  -20.8062  -54.6002 S.3       23 UNK        -0.2404 
    126 C126        1.0604  -20.2274  -53.0610 C.3       23 UNK        -0.0205 
    127 H127       -2.2595  -17.2089  -51.9939 H         1 UNK         0.0600 
    128 H128       -2.8571  -18.3649  -50.7988 H         1 UNK         0.0600 
    129 H129       -1.4284  -18.7502  -51.7576 H         1 UNK         0.0600 
    130 H130       -1.2695  -15.4855  -50.9771 H         1 UNK         0.3000 
    131 H131       -0.1432  -14.1957  -49.5983 H         1 UNK         0.0600 
    132 H132        1.6759  -16.6074  -49.1353 H         1 UNK         0.0800 
    133 H133        2.0666  -14.9668  -48.6807 H         1 UNK         0.0800 
    134 H134        4.2864  -16.0266  -50.3339 H         1 UNK         0.0800 
    135 H135        4.1490  -16.0604  -52.0747 H         1 UNK         0.0800 
    136 H136        1.9596  -17.6467  -52.8347 H         1 UNK         0.1150 
    137 H137        2.3147  -21.5194  -51.0327 H         1 UNK         0.1150 
    138 H138        4.4515  -18.1871  -49.3921 H         1 UNK         0.1150 
    139 H139        3.6371  -21.8666  -49.1152 H         1 UNK         0.0800 
    140 H140        5.0314  -20.8292  -48.9457 H         1 UNK         0.0800 
    141 H141        1.3818  -19.7085  -48.6653 H         1 UNK         0.0800 
    142 H142        1.2260  -19.1401  -47.0466 H         1 UNK         0.0800 
    143 H143        1.1215  -22.1158  -47.7357 H         1 UNK         0.0600 
    144 H144        1.0413  -20.7554  -45.2522 H         1 UNK         0.3000 
    145 H145       -1.1782  -22.7684  -43.4578 H         1 UNK         0.0600 
    146 H146        0.7137  -23.4557  -41.9798 H         1 UNK         0.0600 
    147 H147        0.6515  -24.4484  -43.4283 H         1 UNK         0.0600 
    148 H148        1.8556  -23.1732  -43.2939 H         1 UNK         0.0600 
    149 H149        0.8466  -21.0076  -42.5290 H         1 UNK         0.3000 
    150 H150       -0.4508  -17.9152  -43.4897 H         1 UNK         0.0600 
    151 H151       -2.1731  -18.2941  -41.7576 H         1 UNK         0.0600 
    152 H152       -0.8156  -17.4206  -41.0630 H         1 UNK         0.0600 
    153 H153       -1.0168  -19.1432  -40.7394 H         1 UNK         0.0600 
    154 H154        1.3710  -18.6453  -41.4107 H         1 UNK         0.3000 
    155 H155        4.0633  -19.6885  -43.3398 H         1 UNK         0.0600 
    156 H156        3.9525  -16.7490  -42.5081 H         1 UNK         0.0600 
    157 H157        4.4073  -17.3646  -44.0935 H         1 UNK         0.0600 
    158 H158        5.4217  -17.7042  -42.7009 H         1 UNK         0.0600 
    159 H159        3.9462  -18.4920  -40.7201 H         1 UNK         0.3000 
    160 H160        2.5904  -21.2397  -39.0149 H         1 UNK         0.0600 
    161 H161        5.5971  -20.6565  -39.1635 H         1 UNK         0.0600 
    162 H162        4.8508  -22.2263  -39.4367 H         1 UNK         0.0600 
    163 H163        4.7633  -21.4849  -37.8475 H         1 UNK         0.0600 
    164 H164        4.0694  -19.0790  -37.9813 H         1 UNK         0.3000 
    165 H165        1.5378  -17.4541  -36.8853 H         1 UNK         0.0600 
    166 H166        3.5916  -16.1039  -36.4115 H         1 UNK         0.0600 
    167 H167        3.9241  -17.8221  -36.3742 H         1 UNK         0.0600 
    168 H168        4.4171  -16.8593  -37.7679 H         1 UNK         0.0600 
    169 H169        0.9760  -15.6308  -37.9837 H         1 UNK         0.3000 
    170 H170        0.5707  -14.3198  -39.8720 H         1 UNK         0.0600 
    171 H171        1.8577  -13.2331  -38.0303 H         1 UNK         0.0600 
    172 H172        3.2012  -12.9240  -39.1223 H         1 UNK         0.0600 
    173 H173        1.6505  -12.1219  -39.3724 H         1 UNK         0.0600 
    174 H174        2.7564  -13.2603  -41.4887 H         1 UNK         0.3000 
    175 H175        2.4479  -12.9599  -43.6335 H         1 UNK         0.0600 
    176 H176        1.9698  -15.7930  -44.6961 H         1 UNK         0.0600 
    177 H177        2.7638  -14.5103  -45.6079 H         1 UNK         0.0600 
    178 H178        3.4891  -15.1019  -44.1262 H         1 UNK         0.0600 
    179 H179        0.3400  -13.9284  -45.3353 H         1 UNK         0.3000 
    180 H180       -2.1292  -11.6203  -44.4840 H         1 UNK         0.0600 
    181 H181       -0.1951  -11.0014  -46.7833 H         1 UNK         0.0600 
    182 H182       -0.6820   -9.8726  -45.5247 H         1 UNK         0.0600 
    183 H183       -1.8724  -10.4650  -46.6713 H         1 UNK         0.0600 
    184 H184       -1.5495  -13.0370  -46.9315 H         1 UNK         0.3000 
    185 H185       -2.3590  -16.2192  -45.9505 H         1 UNK         0.0600 
    186 H186       -4.3738  -16.2135  -47.4538 H         1 UNK         0.0600 
    187 H187       -4.7480  -15.5201  -45.8849 H         1 UNK         0.0600 
    188 H188       -4.5055  -14.4662  -47.2725 H         1 UNK         0.0600 
    189 H189       -2.4537  -15.1821  -48.5596 H         1 UNK         0.3000 
    190 H190       -1.4129  -20.0578  -46.2585 H         1 UNK         0.3000 
    191 H191       -3.0020  -19.8456  -48.6538 H         1 UNK         0.0600 
    192 H192       -3.7979  -19.4418  -45.7246 H         1 UNK         0.0600 
    193 H193       -4.7102  -18.9170  -47.1364 H         1 UNK         0.0600 
    194 H194       -3.1380  -18.2087  -46.7970 H         1 UNK         0.0600 
    195 H195       -2.9076  -22.0869  -45.8922 H         1 UNK         0.3000 
    196 H196       -5.2609  -23.5908  -46.5654 H         1 UNK         0.0600 
    197 H197       -4.3733  -25.2221  -44.9218 H         1 UNK         0.0600 
    198 H198       -4.2828  -23.5903  -44.2779 H         1 UNK         0.0600 
    199 H199       -2.8285  -24.3866  -44.8759 H         1 UNK         0.0600 
    200 H200       -1.7635  -24.0265  -47.2615 H         1 UNK         0.3000 
    201 H201       -1.9580  -26.3830  -48.8266 H         1 UNK         0.0600 
    202 H202        0.1769  -25.4956  -47.9022 H         1 UNK         0.0600 
    203 H203        0.0829  -24.0987  -48.9718 H         1 UNK         0.0600 
    204 H204        0.2968  -25.7100  -49.6429 H         1 UNK         0.0600 
    205 H205       -2.3570  -22.9644  -49.6917 H         1 UNK         0.3000 
    206 H206       -2.8534  -23.4477  -52.5224 H         1 UNK         0.0600 
    207 H207       -1.7461  -21.3777  -51.7126 H         1 UNK         0.0600 
    208 H208       -3.2466  -20.9924  -52.5332 H         1 UNK         0.0600 
    209 H209       -3.1751  -20.9558  -50.7762 H         1 UNK         0.0600 
    210 H210       -4.7023  -24.5374  -50.1623 H         1 UNK         0.3000 
    211 H211       -6.8074  -25.1469  -49.9015 H         1 UNK         0.0600 
    212 H212       -7.1722  -24.4408  -52.8645 H         1 UNK         0.0600 
    213 H213       -8.2090  -25.4919  -51.9112 H         1 UNK         0.0600 
    214 H214       -6.5516  -25.9688  -52.2433 H         1 UNK         0.0600 
    215 H215       -6.3742  -22.8092  -48.7961 H         1 UNK         0.3000 
    216 H216       -7.2735  -21.0578  -47.8076 H         1 UNK         0.0600 
    217 H217       -9.6822  -20.6163  -47.7588 H         1 UNK         0.0600 
    218 H218       -9.4191  -22.3456  -47.6035 H         1 UNK         0.0600 
    219 H219       -9.9660  -21.6670  -49.1366 H         1 UNK         0.0600 
    220 H220       -5.7903  -20.8530  -50.0562 H         1 UNK         0.3000 
    221 H221       -4.9710  -19.5215  -51.6056 H         1 UNK         0.0600 
    222 H222       -6.7865  -17.3127  -50.5224 H         1 UNK         0.0600 
    223 H223       -5.2283  -17.7689  -49.8348 H         1 UNK         0.0600 
    224 H224       -5.3121  -17.0989  -51.4550 H         1 UNK         0.0600 
    225 H225       -7.5525  -21.0322  -52.2126 H         1 UNK         0.3000 
    226 H226       -8.7621  -19.5814  -54.4325 H         1 UNK         0.0600 
    227 H227      -10.0255  -21.2782  -53.0865 H         1 UNK         0.0600 
    228 H228       -9.9789  -21.7006  -54.7926 H         1 UNK         0.0600 
    229 H229       -8.9333  -22.5405  -53.6552 H         1 UNK         0.0600 
    230 H230       -6.1041  -21.8607  -53.9647 H         1 UNK         0.3000 
    231 H231       -5.4508  -21.8695  -56.8871 H         1 UNK         0.0600 
    232 H232       -6.0648  -24.1341  -56.0193 H         1 UNK         0.0600 
    233 H233       -4.8690  -23.9807  -54.7349 H         1 UNK         0.0600 
    234 H234       -4.3556  -24.0504  -56.4179 H         1 UNK         0.0600 
    235 H235       -4.8265  -19.6266  -55.7197 H         1 UNK         0.3000 
    236 H236       -2.4218  -19.4965  -54.1996 H         1 UNK         0.0600 
    237 H237       -2.5417  -17.0610  -54.7893 H         1 UNK         0.0600 
    238 H238       -3.8092  -17.4042  -55.9608 H         1 UNK         0.0600 
    239 H239       -4.0923  -17.6690  -54.2403 H         1 UNK         0.0600 
    240 H240       -0.3875  -18.6273  -54.8175 H         1 UNK         0.3000 
    241 H241        0.6818  -19.9422  -57.1682 H         1 UNK         0.0600 
    242 H242        0.3842  -16.0747  -58.1857 H         1 UNK         0.3800 
    243 H243       -0.5910  -16.7864  -56.9277 H         1 UNK         0.3800 
    244 H244        2.8954  -19.3635  -56.1795 H         1 UNK         0.0800 
    245 H245        2.1241  -18.4154  -54.9446 H         1 UNK         0.0800 
    246 H246        0.2899  -19.4901  -53.2763 H         1 UNK         0.0800 
    247 H247        0.5394  -21.0722  -52.6080 H         1 UNK         0.0800 
@<TRIPOS>BOND
     1    1    2 1    
     2    1  127 1    
     3    1  128 1    
     4    1  129 1    
     5    2    3 2    
     6    2    4 am   BACKBONE|DICT|INTERRES
     7    4    5 1    
     8    4  130 1    
     9    5    6 1    
    10    5   65 1    
    11    5  131 1    
    12    6    7 1    
    13    6  132 1    
    14    6  133 1    
    15    7    8 1    
    16    8    9 1    
    17    8  134 1    
    18    8  135 1    
    19    9   10 ar   
    20    9   14 ar   
    21   10   11 ar   
    22   10  136 1    
    23   11   12 ar   
    24   11  126 1    
    25   12   13 ar   
    26   12  137 1    
    27   13   14 ar   
    28   13   15 1    
    29   14  138 1    
    30   15   16 1    
    31   15  139 1    
    32   15  140 1    
    33   16   17 1    
    34   17   18 1    
    35   17  141 1    
    36   17  142 1    
    37   18   19 1    
    38   18   67 1    
    39   18  143 1    
    40   19   20 am   BACKBONE|DICT|INTERRES
    41   19  144 1    
    42   20   21 2    
    43   20   22 1    
    44   22   23 1    
    45   22   24 1    
    46   22  145 1    
    47   23  146 1    
    48   23  147 1    
    49   23  148 1    
    50   24   25 am   BACKBONE|DICT|INTERRES
    51   24  149 1    
    52   25   26 2    
    53   25   27 1    
    54   27   28 1    
    55   27   29 1    
    56   27  150 1    
    57   28  151 1    
    58   28  152 1    
    59   28  153 1    
    60   29   30 am   BACKBONE|DICT|INTERRES
    61   29  154 1    
    62   30   31 2    
    63   30   32 1    
    64   32   33 1    
    65   32   34 1    
    66   32  155 1    
    67   33  156 1    
    68   33  157 1    
    69   33  158 1    
    70   34   35 am   BACKBONE|DICT|INTERRES
    71   34  159 1    
    72   35   36 2    
    73   35   37 1    
    74   37   38 1    
    75   37   39 1    
    76   37  160 1    
    77   38  161 1    
    78   38  162 1    
    79   38  163 1    
    80   39   40 am   BACKBONE|DICT|INTERRES
    81   39  164 1    
    82   40   41 2    
    83   40   42 1    
    84   42   43 1    
    85   42   44 1    
    86   42  165 1    
    87   43  166 1    
    88   43  167 1    
    89   43  168 1    
    90   44   45 am   BACKBONE|DICT|INTERRES
    91   44  169 1    
    92   45   46 2    
    93   45   47 1    
    94   47   48 1    
    95   47   49 1    
    96   47  170 1    
    97   48  171 1    
    98   48  172 1    
    99   48  173 1    
   100   49   50 am   BACKBONE|DICT|INTERRES
   101   49  174 1    
   102   50   51 2    
   103   50   52 1    
   104   52   53 1    
   105   52   54 1    
   106   52  175 1    
   107   53  176 1    
   108   53  177 1    
   109   53  178 1    
   110   54   55 am   BACKBONE|DICT|INTERRES
   111   54  179 1    
   112   55   56 2    
   113   55   57 1    
   114   57   58 1    
   115   57   59 1    
   116   57  180 1    
   117   58  181 1    
   118   58  182 1    
   119   58  183 1    
   120   59   60 am   BACKBONE|DICT|INTERRES
   121   59  184 1    
   122   60   61 2    
   123   60   62 1    
   124   62   63 1    
   125   62   64 1    
   126   62  185 1    
   127   63  186 1    
   128   63  187 1    
   129   63  188 1    
   130   64   65 am   BACKBONE|DICT|INTERRES
   131   64  189 1    
   132   65   66 2    
   133   67   68 2    
   134   67   69 am   BACKBONE|DICT|INTERRES
   135   69   70 1    
   136   69  190 1    
   137   70   71 1    
   138   70   72 1    
   139   70  191 1    
   140   71  192 1    
   141   71  193 1    
   142   71  194 1    
   143   72   73 2    
   144   72   74 am   BACKBONE|DICT|INTERRES
   145   74   75 1    
   146   74  195 1    
   147   75   76 1    
   148   75   77 1    
   149   75  196 1    
   150   76  197 1    
   151   76  198 1    
   152   76  199 1    
   153   77   78 2    
   154   77   79 am   BACKBONE|DICT|INTERRES
   155   79   80 1    
   156   79  200 1    
   157   80   81 1    
   158   80   82 1    
   159   80  201 1    
   160   81  202 1    
   161   81  203 1    
   162   81  204 1    
   163   82   83 2    
   164   82   84 am   BACKBONE|DICT|INTERRES
   165   84   85 1    
   166   84  205 1    
   167   85   86 1    
   168   85   87 1    
   169   85  206 1    
   170   86  207 1    
   171   86  208 1    
   172   86  209 1    
   173   87   88 2    
   174   87   89 am   BACKBONE|DICT|INTERRES
   175   89   90 1    
   176   89  210 1    
   177   90   91 1    
   178   90   92 1    
   179   90  211 1    
   180   91  212 1    
   181   91  213 1    
   182   91  214 1    
   183   92   93 2    
   184   92   94 am   BACKBONE|DICT|INTERRES
   185   94   95 1    
   186   94  215 1    
   187   95   96 1    
   188   95   97 1    
   189   95  216 1    
   190   96  217 1    
   191   96  218 1    
   192   96  219 1    
   193   97   98 2    
   194   97   99 am   BACKBONE|DICT|INTERRES
   195   99  100 1    
   196   99  220 1    
   197  100  101 1    
   198  100  102 1    
   199  100  221 1    
   200  101  222 1    
   201  101  223 1    
   202  101  224 1    
   203  102  103 2    
   204  102  104 am   BACKBONE|DICT|INTERRES
   205  104  105 1    
   206  104  225 1    
   207  105  106 1    
   208  105  107 1    
   209  105  226 1    
   210  106  227 1    
   211  106  228 1    
   212  106  229 1    
   213  107  108 2    
   214  107  109 am   BACKBONE|DICT|INTERRES
   215  109  110 1    
   216  109  230 1    
   217  110  111 1    
   218  110  112 1    
   219  110  231 1    
   220  111  232 1    
   221  111  233 1    
   222  111  234 1    
   223  112  113 2    
   224  112  114 am   BACKBONE|DICT|INTERRES
   225  114  115 1    
   226  114  235 1    
   227  115  116 1    
   228  115  117 1    
   229  115  236 1    
   230  116  237 1    
   231  116  238 1    
   232  116  239 1    
   233  117  118 2    
   234  117  119 am   BACKBONE|DICT|INTERRES
   235  119  120 1    
   236  119  240 1    
   237  120  121 1    
   238  120  124 1    
   239  120  241 1    
   240  121  122 am   BACKBONE|DICT|INTERRES
   241  121  123 2    
   242  122  242 1    
   243  122  243 1    
   244  124  125 1    
   245  124  244 1    
   246  124  245 1    
   247  125  126 1    
   248  126  246 1    
   249  126  247 1    
@<TRIPOS>SUBSTRUCTURE
     1 UNK         1 GROUP             0       ****    0 ROOT    
