@<TRIPOS>MOLECULE
3R540
247   249    1
SMALL
USER_CHARGES


@<TRIPOS>ATOM
      1 CA          7.4382  -13.7957  -44.8405 C.3       0 UNK        -0.1800 
      2 C           6.4881  -14.2037  -45.9574 C.2       0 UNK         0.5000 
      3 O           5.7105  -15.1397  -45.7836 O.2       0 UNK        -0.5000 
      4 N           6.5486  -13.5009  -47.0947 N.am      1 UNK        -0.5000 
      5 CA          5.7114  -13.7350  -48.2801 C.3       1 UNK         0.1400 
      6 C6          6.5335  -13.6011  -49.5883 C.3       23 UNK        -0.0398 
      7 S7          7.6796  -15.0033  -49.8166 S.3       23 UNK        -0.2404 
      8 C8          6.7822  -16.0145  -51.0416 C.3       23 UNK        -0.0205 
      9 C9          5.5445  -16.6727  -50.4468 C.ar      23 UNK        -0.0193 
     10 C10         4.3022  -16.0341  -50.5165 C.ar      23 UNK        -0.1150 
     11 C11         3.1731  -16.6234  -49.9464 C.ar      23 UNK        -0.0193 
     12 C12         3.2879  -17.8704  -49.3346 C.ar      23 UNK        -0.1150 
     13 C13         4.5129  -18.5426  -49.2753 C.ar      23 UNK        -0.0193 
     14 C14         5.6396  -17.9263  -49.8319 C.ar      23 UNK        -0.1150 
     15 C15         4.6619  -19.9334  -48.6494 C.3       23 UNK        -0.0205 
     16 S16         3.3592  -20.4280  -47.4609 S.3       23 UNK        -0.2404 
     17 C17         2.0235  -21.0387  -48.5533 C.3       23 UNK        -0.0398 
     18 CA          1.0828  -22.0414  -47.8439 C.3       11 UNK         0.1400 
     19 N           0.4540  -21.4710  -46.6414 N.am      11 UNK        -0.5000 
     20 C          -0.2889  -22.1650  -45.7653 C.2       10 UNK         0.5000 
     21 O          -0.4815  -23.3766  -45.8664 O.2       10 UNK        -0.5000 
     22 CA         -0.9797  -21.4033  -44.6157 C.3       10 UNK         0.1400 
     23 CB         -0.2507  -21.6718  -43.2904 C.3       10 UNK        -0.1800 
     24 N          -1.1190  -19.9564  -44.8000 N.am      10 UNK        -0.5000 
     25 C          -1.7394  -19.3347  -45.8139 C.2       9 UNK         0.5000 
     26 O          -2.2361  -19.9109  -46.7829 O.2       9 UNK        -0.5000 
     27 CA         -1.7151  -17.7946  -45.7848 C.3       9 UNK         0.1400 
     28 CB         -2.7817  -17.2416  -44.8301 C.3       9 UNK        -0.1800 
     29 N          -0.3986  -17.2684  -45.4260 N.am      9 UNK        -0.5000 
     30 C           0.7267  -17.5239  -46.1088 C.2       8 UNK         0.5000 
     31 O           0.7483  -18.1903  -47.1405 O.2       8 UNK        -0.5000 
     32 CA          2.0402  -16.9830  -45.5251 C.3       8 UNK         0.1400 
     33 CB          2.2210  -15.5043  -45.8842 C.3       8 UNK        -0.1800 
     34 N           2.0660  -17.1343  -44.0720 N.am      8 UNK        -0.5000 
     35 C           2.3675  -18.2756  -43.4380 C.2       7 UNK         0.5000 
     36 O           2.7189  -19.3069  -44.0093 O.2       7 UNK        -0.5000 
     37 CA          2.2408  -18.2717  -41.9026 C.3       7 UNK         0.1400 
     38 CB          3.5684  -17.8507  -41.2542 C.3       7 UNK        -0.1800 
     39 N           1.1714  -17.3998  -41.4136 N.am      7 UNK        -0.5000 
     40 C          -0.1360  -17.6108  -41.6190 C.2       6 UNK         0.5000 
     41 O          -0.5860  -18.5752  -42.2367 O.2       6 UNK        -0.5000 
     42 CA         -1.0979  -16.5316  -41.0875 C.3       6 UNK         0.1400 
     43 CB         -1.4427  -16.7939  -39.6141 C.3       6 UNK        -0.1800 
     44 N          -0.5852  -15.1648  -41.2327 N.am      6 UNK        -0.5000 
     45 C          -0.2737  -14.5918  -42.4026 C.2       5 UNK         0.5000 
     46 O          -0.3196  -15.1818  -43.4836 O.2       5 UNK        -0.5000 
     47 CA          0.2218  -13.1380  -42.3528 C.3       5 UNK         0.1400 
     48 CB          1.7579  -13.1009  -42.3777 C.3       5 UNK        -0.1800 
     49 N          -0.2991  -12.3782  -43.4878 N.am      5 UNK        -0.5000 
     50 C          -1.5664  -11.9498  -43.5903 C.2       4 UNK         0.5000 
     51 O          -2.3973  -12.0720  -42.6887 O.2       4 UNK        -0.5000 
     52 CA         -1.9887  -11.2608  -44.9055 C.3       4 UNK         0.1400 
     53 CB         -1.9338   -9.7330  -44.7519 C.3       4 UNK        -0.1800 
     54 N          -1.1722  -11.6476  -46.0552 N.am      4 UNK        -0.5000 
     55 C          -1.1794  -12.8568  -46.6309 C.2       3 UNK         0.5000 
     56 O          -1.9715  -13.7492  -46.3290 O.2       3 UNK        -0.5000 
     57 CA         -0.1296  -13.1240  -47.7309 C.3       3 UNK         0.1400 
     58 CB         -0.7988  -13.1131  -49.1146 C.3       3 UNK        -0.1800 
     59 N           1.0287  -12.2177  -47.7641 N.am      3 UNK        -0.5000 
     60 C           1.8739  -11.9480  -46.7586 C.2       2 UNK         0.5000 
     61 O           1.7177  -12.3407  -45.6032 O.2       2 UNK        -0.5000 
     62 CA          3.1174  -11.1107  -47.1075 C.3       2 UNK         0.1400 
     63 CB          3.4231  -10.0710  -46.0161 C.3       2 UNK        -0.1800 
     64 N           4.2817  -11.9781  -47.2782 N.am      2 UNK        -0.5000 
     65 C           4.4671  -12.8183  -48.3062 C.2       1 UNK         0.5000 
     66 O           3.6941  -12.8817  -49.2630 O.2       1 UNK        -0.5000 
     67 C           0.0513  -22.6128  -48.8481 C.2       11 UNK         0.5000 
     68 O           0.4108  -23.4662  -49.6603 O.2       11 UNK        -0.5000 
     69 N          -1.2151  -22.1772  -48.7479 N.am      12 UNK        -0.5000 
     70 CA         -2.3484  -22.6988  -49.5112 C.3       12 UNK         0.1400 
     71 CB         -3.5710  -21.8013  -49.2755 C.3       12 UNK        -0.1800 
     72 C          -2.7181  -24.1589  -49.1934 C.2       12 UNK         0.5000 
     73 O          -3.4000  -24.7770  -50.0087 O.2       12 UNK        -0.5000 
     74 N          -2.2849  -24.6954  -48.0408 N.am      13 UNK        -0.5000 
     75 CA         -2.6584  -26.0166  -47.5143 C.3       13 UNK         0.1400 
     76 CB         -1.9721  -26.2297  -46.1570 C.3       13 UNK        -0.1800 
     77 C          -2.3863  -27.2176  -48.4456 C.2       13 UNK         0.5000 
     78 O          -3.0232  -28.2584  -48.2812 O.2       13 UNK        -0.5000 
     79 N          -1.4786  -27.0527  -49.4176 N.am      14 UNK        -0.5000 
     80 CA         -1.2065  -28.0233  -50.4794 C.3       14 UNK         0.1400 
     81 CB          0.0643  -27.5946  -51.2288 C.3       14 UNK        -0.1800 
     82 C          -2.3800  -28.2019  -51.4678 C.2       14 UNK         0.5000 
     83 O          -2.5280  -29.2871  -52.0313 O.2       14 UNK        -0.5000 
     84 N          -3.1834  -27.1467  -51.6594 N.am      15 UNK        -0.5000 
     85 CA         -4.3618  -27.1236  -52.5316 C.3       15 UNK         0.1400 
     86 CB         -4.1854  -25.9901  -53.5518 C.3       15 UNK        -0.1800 
     87 C          -5.6714  -26.9361  -51.7401 C.2       15 UNK         0.5000 
     88 O          -6.7437  -27.2192  -52.2759 O.2       15 UNK        -0.5000 
     89 N          -5.5661  -26.4649  -50.4896 N.am      16 UNK        -0.5000 
     90 CA         -6.6429  -26.1618  -49.5486 C.3       16 UNK         0.1400 
     91 CB         -7.4004  -27.4452  -49.1399 C.3       16 UNK        -0.1800 
     92 C          -7.5354  -25.0214  -50.0759 C.2       16 UNK         0.5000 
     93 O          -7.0058  -23.9843  -50.4819 O.2       16 UNK        -0.5000 
     94 N          -8.8605  -25.2185  -50.0718 N.am      17 UNK        -0.5000 
     95 CA         -9.8814  -24.2375  -50.4563 C.3       17 UNK         0.1400 
     96 CB        -11.2695  -24.8447  -50.2019 C.3       17 UNK        -0.1800 
     97 C          -9.7794  -23.7170  -51.9049 C.2       17 UNK         0.5000 
     98 O         -10.3097  -22.6439  -52.1930 O.2       17 UNK        -0.5000 
     99 N          -9.0908  -24.4611  -52.7825 N.am      18 UNK        -0.5000 
    100 CA        -8.7825  -24.0484  -54.1526 C.3       18 UNK         0.1400 
    101 CB        -8.2712  -25.2622  -54.9420 C.3       18 UNK        -0.1800 
    102 C         -7.7708  -22.8853  -54.2204 C.2       18 UNK         0.5000 
    103 O         -7.8219  -22.1031  -55.1705 O.2       18 UNK        -0.5000 
    104 N         -6.8881  -22.7834  -53.2168 N.am      19 UNK        -0.5000 
    105 CA        -5.9444  -21.6779  -53.0475 C.3       19 UNK         0.1400 
    106 CB        -4.5644  -22.2401  -52.6776 C.3       19 UNK        -0.1800 
    107 C         -6.4360  -20.6834  -51.9822 C.2       19 UNK         0.5000 
    108 O         -6.2720  -19.4772  -52.1639 O.2       19 UNK        -0.5000 
    109 N         -7.0373  -21.2047  -50.9025 N.am      20 UNK        -0.5000 
    110 CA        -7.6421  -20.5219  -49.7520 C.3       20 UNK         0.1400 
    111 CB        -8.7867  -19.5853  -50.1820 C.3       20 UNK        -0.1800 
    112 C         -6.6361  -19.8055  -48.8297 C.2       20 UNK         0.5000 
    113 O         -6.6610  -20.0398  -47.6211 O.2       20 UNK        -0.5000 
    114 N         -5.7625  -18.9714  -49.4003 N.am      21 UNK        -0.5000 
    115 CA        -4.6693  -18.2895  -48.7181 C.3       21 UNK         0.1400 
    116 CB        -5.1626  -16.9793  -48.0817 C.3       21 UNK        -0.1800 
    117 C         -3.5554  -18.0288  -49.7384 C.2       21 UNK         0.5000 
    118 O         -3.8485  -17.5656  -50.8428 O.2       21 UNK        -0.5000 
    119 N         -2.3090  -18.3456  -49.3648 N.am      22 UNK        -0.5000 
    120 CA        -1.0842  -18.2385  -50.1807 C.3       22 UNK         0.1400 
    121 C         -1.0210  -19.2719  -51.3435 C.2       22 UNK         0.5000 
    122 N         -2.0362  -19.3537  -52.1923 N.am      22 UNK        -0.7600 
    123 O         -0.0524  -20.0160  -51.4625 O.2       22 UNK        -0.5000 
    124 C124       -0.8063  -16.7805  -50.6504 C.3       23 UNK        -0.0398 
    125 S125        0.8419  -16.5280  -51.3975 S.3       23 UNK        -0.2404 
    126 C126        1.8214  -15.9309  -49.9879 C.3       23 UNK        -0.0205 
    127 H127        6.8730  -13.5099  -43.9533 H         1 UNK         0.0600 
    128 H128        8.0675  -12.9534  -45.1292 H         1 UNK         0.0600 
    129 H129        8.0876  -14.6307  -44.5778 H         1 UNK         0.0600 
    130 H130        7.2204  -12.7506  -47.1762 H         1 UNK         0.3000 
    131 H131        5.3136  -14.7507  -48.2396 H         1 UNK         0.0600 
    132 H132        5.8926  -13.5352  -50.4683 H         1 UNK         0.0800 
    133 H133        7.1121  -12.6762  -49.5824 H         1 UNK         0.0800 
    134 H134        7.4575  -16.7825  -51.4219 H         1 UNK         0.0800 
    135 H135        6.5121  -15.4006  -51.9022 H         1 UNK         0.0800 
    136 H136        4.2122  -15.0722  -51.0008 H         1 UNK         0.1150 
    137 H137        2.4016  -18.3085  -48.9167 H         1 UNK         0.1150 
    138 H138        6.5976  -18.4258  -49.7897 H         1 UNK         0.1150 
    139 H139        4.7316  -20.6757  -49.4452 H         1 UNK         0.0800 
    140 H140        5.6124  -19.9724  -48.1153 H         1 UNK         0.0800 
    141 H141        2.4815  -21.5066  -49.4265 H         1 UNK         0.0800 
    142 H142        1.4412  -20.1995  -48.9307 H         1 UNK         0.0800 
    143 H143        1.6901  -22.8864  -47.5126 H         1 UNK         0.0600 
    144 H144        0.5740  -20.4752  -46.5054 H         1 UNK         0.3000 
    145 H145       -1.9889  -21.8115  -44.5346 H         1 UNK         0.0600 
    146 H146        0.7402  -21.2167  -43.2799 H         1 UNK         0.0600 
    147 H147       -0.8118  -21.2754  -42.4442 H         1 UNK         0.0600 
    148 H148       -0.1239  -22.7415  -43.1183 H         1 UNK         0.0600 
    149 H149       -0.7583  -19.3826  -44.0431 H         1 UNK         0.3000 
    150 H150       -1.9441  -17.4295  -46.7865 H         1 UNK         0.0600 
    151 H151       -3.7781  -17.5713  -45.1268 H         1 UNK         0.0600 
    152 H152       -2.7845  -16.1511  -44.8324 H         1 UNK         0.0600 
    153 H153       -2.6179  -17.5741  -43.8056 H         1 UNK         0.0600 
    154 H154       -0.3556  -16.6476  -44.6209 H         1 UNK         0.3000 
    155 H155        2.8704  -17.5441  -45.9605 H         1 UNK         0.0600 
    156 H156        2.3403  -15.3725  -46.9595 H         1 UNK         0.0600 
    157 H157        1.3623  -14.9135  -45.5672 H         1 UNK         0.0600 
    158 H158        3.1039  -15.0819  -45.4065 H         1 UNK         0.0600 
    159 H159        1.7277  -16.3515  -43.5314 H         1 UNK         0.3000 
    160 H160        2.0141  -19.2927  -41.5876 H         1 UNK         0.0600 
    161 H161        4.3841  -18.4972  -41.5809 H         1 UNK         0.0600 
    162 H162        3.8371  -16.8262  -41.5149 H         1 UNK         0.0600 
    163 H163        3.5165  -17.9193  -40.1675 H         1 UNK         0.0600 
    164 H164        1.4509  -16.5774  -40.8997 H         1 UNK         0.3000 
    165 H165       -2.0200  -16.5993  -41.6677 H         1 UNK         0.0600 
    166 H166       -2.1973  -16.0941  -39.2547 H         1 UNK         0.0600 
    167 H167       -1.8446  -17.7993  -39.4805 H         1 UNK         0.0600 
    168 H168       -0.5660  -16.7028  -38.9717 H         1 UNK         0.0600 
    169 H169       -0.5086  -14.6217  -40.3847 H         1 UNK         0.3000 
    170 H170       -0.1226  -12.6692  -41.4287 H         1 UNK         0.0600 
    171 H171        2.1756  -13.5989  -41.5021 H         1 UNK         0.0600 
    172 H172        2.1599  -13.5999  -43.2605 H         1 UNK         0.0600 
    173 H173        2.1283  -12.0756  -42.3776 H         1 UNK         0.0600 
    174 H174        0.3200  -12.2965  -44.2900 H         1 UNK         0.3000 
    175 H175       -3.0224  -11.5476  -45.1096 H         1 UNK         0.0600 
    176 H176       -0.9178   -9.3844  -44.5617 H         1 UNK         0.0600 
    177 H177       -2.2994   -9.2323  -45.6487 H         1 UNK         0.0600 
    178 H178       -2.5559   -9.4012  -43.9196 H         1 UNK         0.0600 
    179 H179       -0.4831  -10.9801  -46.3672 H         1 UNK         0.3000 
    180 H180        0.2540  -14.1298  -47.5564 H         1 UNK         0.0600 
    181 H181       -1.6524  -13.7916  -49.1452 H         1 UNK         0.0600 
    182 H182       -0.1066  -13.4309  -49.8942 H         1 UNK         0.0600 
    183 H183       -1.1630  -12.1184  -49.3741 H         1 UNK         0.0600 
    184 H184        1.2732  -11.8660  -48.6791 H         1 UNK         0.3000 
    185 H185        2.9346  -10.5752  -48.0415 H         1 UNK         0.0600 
    186 H186        4.2662   -9.4403  -46.2985 H         1 UNK         0.0600 
    187 H187        2.5673   -9.4150  -45.8520 H         1 UNK         0.0600 
    188 H188        3.6628  -10.5419  -45.0616 H         1 UNK         0.0600 
    189 H189        4.9389  -12.0096  -46.5131 H         1 UNK         0.3000 
    190 H190       -1.4308  -21.4823  -48.0423 H         1 UNK         0.3000 
    191 H191       -2.0922  -22.6579  -50.5719 H         1 UNK         0.0600 
    192 H192       -3.7433  -21.6154  -48.2151 H         1 UNK         0.0600 
    193 H193       -4.4845  -22.2460  -49.6711 H         1 UNK         0.0600 
    194 H194       -3.4428  -20.8466  -49.7774 H         1 UNK         0.0600 
    195 H195       -1.7025  -24.1296  -47.4334 H         1 UNK         0.3000 
    196 H196       -3.7366  -25.9947  -47.3445 H         1 UNK         0.0600 
    197 H197       -2.2380  -27.1962  -45.7268 H         1 UNK         0.0600 
    198 H198       -2.2710  -25.4652  -45.4397 H         1 UNK         0.0600 
    199 H199       -0.8857  -26.1977  -46.2490 H         1 UNK         0.0600 
    200 H200       -1.0002  -26.1650  -49.4773 H         1 UNK         0.3000 
    201 H201       -1.0178  -28.9924  -50.0127 H         1 UNK         0.0600 
    202 H202        0.9206  -27.5426  -50.5561 H         1 UNK         0.0600 
    203 H203       -0.0555  -26.6162  -51.6962 H         1 UNK         0.0600 
    204 H204        0.3133  -28.3071  -52.0163 H         1 UNK         0.0600 
    205 H205       -3.0033  -26.2968  -51.1341 H         1 UNK         0.3000 
    206 H206       -4.4534  -28.0632  -53.0799 H         1 UNK         0.0600 
    207 H207       -3.2958  -26.1456  -54.1623 H         1 UNK         0.0600 
    208 H208       -5.0368  -25.9282  -54.2293 H         1 UNK         0.0600 
    209 H209       -4.0847  -25.0270  -53.0546 H         1 UNK         0.0600 
    210 H210       -4.6566  -26.1132  -50.2085 H         1 UNK         0.3000 
    211 H211       -6.1573  -25.7689  -48.6544 H         1 UNK         0.0600 
    212 H212       -7.9499  -27.8859  -49.9723 H         1 UNK         0.0600 
    213 H213       -8.1113  -27.2463  -48.3370 H         1 UNK         0.0600 
    214 H214       -6.7071  -28.2002  -48.7687 H         1 UNK         0.0600 
    215 H215       -9.2041  -26.1102  -49.7456 H         1 UNK         0.3000 
    216 H216       -9.7630  -23.3724  -49.8008 H         1 UNK         0.0600 
    217 H217      -12.0598  -24.1328  -50.4443 H         1 UNK         0.0600 
    218 H218      -11.3948  -25.1205  -49.1546 H         1 UNK         0.0600 
    219 H219      -11.4342  -25.7367  -50.8075 H         1 UNK         0.0600 
    220 H220       -8.6865  -25.3320  -52.4663 H         1 UNK         0.3000 
    221 H221       -9.7078  -23.7060  -54.6209 H         1 UNK         0.0600 
    222 H222       -7.3642  -25.6742  -54.5012 H         1 UNK         0.0600 
    223 H223       -9.0181  -26.0556  -54.9726 H         1 UNK         0.0600 
    224 H224       -8.0424  -24.9909  -55.9734 H         1 UNK         0.0600 
    225 H225       -6.9440  -23.4470  -52.4528 H         1 UNK         0.3000 
    226 H226       -5.8340  -21.1212  -53.9805 H         1 UNK         0.0600 
    227 H227       -4.1048  -22.7290  -53.5360 H         1 UNK         0.0600 
    228 H228       -3.8860  -21.4500  -52.3567 H         1 UNK         0.0600 
    229 H229       -4.6288  -22.9701  -51.8709 H         1 UNK         0.0600 
    230 H230       -7.0458  -22.2198  -50.8248 H         1 UNK         0.3000 
    231 H231       -8.0902  -21.3192  -49.1566 H         1 UNK         0.0600 
    232 H232       -9.2991  -19.1748  -49.3112 H         1 UNK         0.0600 
    233 H233       -9.5292  -20.1199  -50.7748 H         1 UNK         0.0600 
    234 H234       -8.4279  -18.7431  -50.7738 H         1 UNK         0.0600 
    235 H235       -5.7892  -18.8583  -50.4122 H         1 UNK         0.3000 
    236 H236       -4.2861  -18.9400  -47.9317 H         1 UNK         0.0600 
    237 H237       -4.3436  -16.4487  -47.5942 H         1 UNK         0.0600 
    238 H238       -5.9229  -17.1697  -47.3241 H         1 UNK         0.0600 
    239 H239       -5.5923  -16.3091  -48.8272 H         1 UNK         0.0600 
    240 H240       -2.1849  -18.8051  -48.4693 H         1 UNK         0.3000 
    241 H241       -0.2767  -18.5076  -49.5007 H         1 UNK         0.0600 
    242 H242       -2.0011  -20.0070  -52.9572 H         1 UNK         0.3800 
    243 H243       -2.8360  -18.7419  -52.0677 H         1 UNK         0.3800 
    244 H244       -1.5464  -16.4697  -51.3885 H         1 UNK         0.0800 
    245 H245       -0.9232  -16.0947  -49.8112 H         1 UNK         0.0800 
    246 H246        1.2931  -16.1168  -49.0521 H         1 UNK         0.0800 
    247 H247        1.9459  -14.8500  -50.0635 H         1 UNK         0.0800 
@<TRIPOS>BOND
     1    1    2 1    
     2    1  127 1    
     3    1  128 1    
     4    1  129 1    
     5    2    3 2    
     6    2    4 am   BACKBONE|DICT|INTERRES
     7    4    5 1    
     8    4  130 1    
     9    5    6 1    
    10    5   65 1    
    11    5  131 1    
    12    6    7 1    
    13    6  132 1    
    14    6  133 1    
    15    7    8 1    
    16    8    9 1    
    17    8  134 1    
    18    8  135 1    
    19    9   10 ar   
    20    9   14 ar   
    21   10   11 ar   
    22   10  136 1    
    23   11   12 ar   
    24   11  126 1    
    25   12   13 ar   
    26   12  137 1    
    27   13   14 ar   
    28   13   15 1    
    29   14  138 1    
    30   15   16 1    
    31   15  139 1    
    32   15  140 1    
    33   16   17 1    
    34   17   18 1    
    35   17  141 1    
    36   17  142 1    
    37   18   19 1    
    38   18   67 1    
    39   18  143 1    
    40   19   20 am   BACKBONE|DICT|INTERRES
    41   19  144 1    
    42   20   21 2    
    43   20   22 1    
    44   22   23 1    
    45   22   24 1    
    46   22  145 1    
    47   23  146 1    
    48   23  147 1    
    49   23  148 1    
    50   24   25 am   BACKBONE|DICT|INTERRES
    51   24  149 1    
    52   25   26 2    
    53   25   27 1    
    54   27   28 1    
    55   27   29 1    
    56   27  150 1    
    57   28  151 1    
    58   28  152 1    
    59   28  153 1    
    60   29   30 am   BACKBONE|DICT|INTERRES
    61   29  154 1    
    62   30   31 2    
    63   30   32 1    
    64   32   33 1    
    65   32   34 1    
    66   32  155 1    
    67   33  156 1    
    68   33  157 1    
    69   33  158 1    
    70   34   35 am   BACKBONE|DICT|INTERRES
    71   34  159 1    
    72   35   36 2    
    73   35   37 1    
    74   37   38 1    
    75   37   39 1    
    76   37  160 1    
    77   38  161 1    
    78   38  162 1    
    79   38  163 1    
    80   39   40 am   BACKBONE|DICT|INTERRES
    81   39  164 1    
    82   40   41 2    
    83   40   42 1    
    84   42   43 1    
    85   42   44 1    
    86   42  165 1    
    87   43  166 1    
    88   43  167 1    
    89   43  168 1    
    90   44   45 am   BACKBONE|DICT|INTERRES
    91   44  169 1    
    92   45   46 2    
    93   45   47 1    
    94   47   48 1    
    95   47   49 1    
    96   47  170 1    
    97   48  171 1    
    98   48  172 1    
    99   48  173 1    
   100   49   50 am   BACKBONE|DICT|INTERRES
   101   49  174 1    
   102   50   51 2    
   103   50   52 1    
   104   52   53 1    
   105   52   54 1    
   106   52  175 1    
   107   53  176 1    
   108   53  177 1    
   109   53  178 1    
   110   54   55 am   BACKBONE|DICT|INTERRES
   111   54  179 1    
   112   55   56 2    
   113   55   57 1    
   114   57   58 1    
   115   57   59 1    
   116   57  180 1    
   117   58  181 1    
   118   58  182 1    
   119   58  183 1    
   120   59   60 am   BACKBONE|DICT|INTERRES
   121   59  184 1    
   122   60   61 2    
   123   60   62 1    
   124   62   63 1    
   125   62   64 1    
   126   62  185 1    
   127   63  186 1    
   128   63  187 1    
   129   63  188 1    
   130   64   65 am   BACKBONE|DICT|INTERRES
   131   64  189 1    
   132   65   66 2    
   133   67   68 2    
   134   67   69 am   BACKBONE|DICT|INTERRES
   135   69   70 1    
   136   69  190 1    
   137   70   71 1    
   138   70   72 1    
   139   70  191 1    
   140   71  192 1    
   141   71  193 1    
   142   71  194 1    
   143   72   73 2    
   144   72   74 am   BACKBONE|DICT|INTERRES
   145   74   75 1    
   146   74  195 1    
   147   75   76 1    
   148   75   77 1    
   149   75  196 1    
   150   76  197 1    
   151   76  198 1    
   152   76  199 1    
   153   77   78 2    
   154   77   79 am   BACKBONE|DICT|INTERRES
   155   79   80 1    
   156   79  200 1    
   157   80   81 1    
   158   80   82 1    
   159   80  201 1    
   160   81  202 1    
   161   81  203 1    
   162   81  204 1    
   163   82   83 2    
   164   82   84 am   BACKBONE|DICT|INTERRES
   165   84   85 1    
   166   84  205 1    
   167   85   86 1    
   168   85   87 1    
   169   85  206 1    
   170   86  207 1    
   171   86  208 1    
   172   86  209 1    
   173   87   88 2    
   174   87   89 am   BACKBONE|DICT|INTERRES
   175   89   90 1    
   176   89  210 1    
   177   90   91 1    
   178   90   92 1    
   179   90  211 1    
   180   91  212 1    
   181   91  213 1    
   182   91  214 1    
   183   92   93 2    
   184   92   94 am   BACKBONE|DICT|INTERRES
   185   94   95 1    
   186   94  215 1    
   187   95   96 1    
   188   95   97 1    
   189   95  216 1    
   190   96  217 1    
   191   96  218 1    
   192   96  219 1    
   193   97   98 2    
   194   97   99 am   BACKBONE|DICT|INTERRES
   195   99  100 1    
   196   99  220 1    
   197  100  101 1    
   198  100  102 1    
   199  100  221 1    
   200  101  222 1    
   201  101  223 1    
   202  101  224 1    
   203  102  103 2    
   204  102  104 am   BACKBONE|DICT|INTERRES
   205  104  105 1    
   206  104  225 1    
   207  105  106 1    
   208  105  107 1    
   209  105  226 1    
   210  106  227 1    
   211  106  228 1    
   212  106  229 1    
   213  107  108 2    
   214  107  109 am   BACKBONE|DICT|INTERRES
   215  109  110 1    
   216  109  230 1    
   217  110  111 1    
   218  110  112 1    
   219  110  231 1    
   220  111  232 1    
   221  111  233 1    
   222  111  234 1    
   223  112  113 2    
   224  112  114 am   BACKBONE|DICT|INTERRES
   225  114  115 1    
   226  114  235 1    
   227  115  116 1    
   228  115  117 1    
   229  115  236 1    
   230  116  237 1    
   231  116  238 1    
   232  116  239 1    
   233  117  118 2    
   234  117  119 am   BACKBONE|DICT|INTERRES
   235  119  120 1    
   236  119  240 1    
   237  120  121 1    
   238  120  124 1    
   239  120  241 1    
   240  121  122 am   BACKBONE|DICT|INTERRES
   241  121  123 2    
   242  122  242 1    
   243  122  243 1    
   244  124  125 1    
   245  124  244 1    
   246  124  245 1    
   247  125  126 1    
   248  126  246 1    
   249  126  247 1    
@<TRIPOS>SUBSTRUCTURE
     1 UNK         1 GROUP             0       ****    0 ROOT    
