@<TRIPOS>MOLECULE
3R540
247   249    1
SMALL
USER_CHARGES


@<TRIPOS>ATOM
      1 CA         -3.8458  -15.8212  -45.1214 C.3       0 UNK        -0.1800 
      2 C          -3.2895  -16.4951  -46.3681 C.2       0 UNK         0.5000 
      3 O          -4.0569  -16.7988  -47.2791 O.2       0 UNK        -0.5000 
      4 N          -1.9691  -16.7242  -46.4181 N.am      1 UNK        -0.5000 
      5 CA         -1.2712  -17.3355  -47.5597 C.3       1 UNK         0.1400 
      6 C6          0.1410  -17.8422  -47.1609 C.3       23 UNK        -0.0398 
      7 S7          1.3581  -16.4992  -46.8689 S.3       23 UNK        -0.2404 
      8 C8          2.9659  -17.1991  -47.3662 C.3       23 UNK        -0.0205 
      9 C9          2.9098  -18.0063  -48.6538 C.ar      23 UNK        -0.0193 
     10 C10         2.5020  -17.4179  -49.8544 C.ar      23 UNK        -0.1150 
     11 C11         2.4058  -18.1807  -51.0229 C.ar      23 UNK        -0.0193 
     12 C12         2.7321  -19.5414  -50.9824 C.ar      23 UNK        -0.1150 
     13 C13         3.1430  -20.1384  -49.7857 C.ar      23 UNK        -0.0193 
     14 C14         3.2408  -19.3618  -48.6301 C.ar      23 UNK        -0.1150 
     15 C15         3.4797  -21.6207  -49.7299 C.3       23 UNK        -0.0205 
     16 S16         2.0289  -22.6308  -49.2928 S.3       23 UNK        -0.2404 
     17 C17         1.7360  -22.1731  -47.5467 C.3       23 UNK        -0.0398 
     18 CA          1.0440  -23.3123  -46.7587 C.3       11 UNK         0.1400 
     19 N           1.2914  -23.2323  -45.3192 N.am      11 UNK        -0.5000 
     20 C           1.3559  -24.3067  -44.5186 C.2       10 UNK         0.5000 
     21 O           1.0814  -25.4505  -44.8818 O.2       10 UNK        -0.5000 
     22 CA          1.8324  -24.0721  -43.0783 C.3       10 UNK         0.1400 
     23 CB          3.2751  -23.5408  -43.0501 C.3       10 UNK        -0.1800 
     24 N           0.9538  -23.1318  -42.3936 N.am      10 UNK        -0.5000 
     25 C          -0.0316  -23.4847  -41.5574 C.2       9 UNK         0.5000 
     26 O          -0.2730  -24.6483  -41.2352 O.2       9 UNK        -0.5000 
     27 CA         -0.8953  -22.3512  -40.9675 C.3       9 UNK         0.1400 
     28 CB         -0.4817  -22.0602  -39.5167 C.3       9 UNK        -0.1800 
     29 N          -0.8381  -21.1037  -41.7319 N.am      9 UNK        -0.5000 
     30 C          -1.3263  -20.9449  -42.9688 C.2       8 UNK         0.5000 
     31 O          -1.8725  -21.8422  -43.6079 O.2       8 UNK        -0.5000 
     32 CA         -1.1120  -19.5656  -43.6168 C.3       8 UNK         0.1400 
     33 CB         -2.2137  -18.5944  -43.1755 C.3       8 UNK        -0.1800 
     34 N           0.1969  -18.9833  -43.3092 N.am      8 UNK        -0.5000 
     35 C           1.3800  -19.5217  -43.6298 C.2       7 UNK         0.5000 
     36 O           1.4881  -20.5794  -44.2571 O.2       7 UNK        -0.5000 
     37 CA          2.6411  -18.7728  -43.1462 C.3       7 UNK         0.1400 
     38 CB          3.9330  -19.3369  -43.7644 C.3       7 UNK        -0.1800 
     39 N           2.6010  -17.3277  -43.3859 N.am      7 UNK        -0.5000 
     40 C           1.9481  -16.4171  -42.6509 C.2       6 UNK         0.5000 
     41 O           1.1952  -16.7140  -41.7210 O.2       6 UNK        -0.5000 
     42 CA          2.2074  -14.9263  -42.9736 C.3       6 UNK         0.1400 
     43 CB          3.2723  -14.6798  -44.0631 C.3       6 UNK        -0.1800 
     44 N           1.0219  -14.1182  -43.2755 N.am      6 UNK        -0.5000 
     45 C          -0.1091  -14.4460  -43.9154 C.2       5 UNK         0.5000 
     46 O          -0.4139  -15.5800  -44.2835 O.2       5 UNK        -0.5000 
     47 CA         -1.0595  -13.2797  -44.2452 C.3       5 UNK         0.1400 
     48 CB         -1.6974  -12.6709  -42.9821 C.3       5 UNK        -0.1800 
     49 N          -0.4443  -12.2641  -45.1079 N.am      5 UNK        -0.5000 
     50 C           0.5497  -11.4051  -44.8326 C.2       4 UNK         0.5000 
     51 O           1.0631  -11.2909  -43.7184 O.2       4 UNK        -0.5000 
     52 CA          1.1005  -10.5536  -45.9977 C.3       4 UNK         0.1400 
     53 CB          2.5155  -11.0261  -46.3701 C.3       4 UNK        -0.1800 
     54 N           0.2699  -10.5939  -47.2036 N.am      4 UNK        -0.5000 
     55 C          -0.8866   -9.9377  -47.3704 C.2       3 UNK         0.5000 
     56 O          -1.3490   -9.1515  -46.5432 O.2       3 UNK        -0.5000 
     57 CA         -1.6751  -10.2293  -48.6674 C.3       3 UNK         0.1400 
     58 CB         -1.4181   -9.1294  -49.7088 C.3       3 UNK        -0.1800 
     59 N          -1.3932  -11.5374  -49.2770 N.am      3 UNK        -0.5000 
     60 C          -1.5789  -12.7215  -48.6783 C.2       2 UNK         0.5000 
     61 O          -1.9983  -12.8321  -47.5214 O.2       2 UNK        -0.5000 
     62 CA         -1.2001  -13.9839  -49.4735 C.3       2 UNK         0.1400 
     63 CB          0.2295  -13.9028  -50.0500 C.3       2 UNK        -0.1800 
     64 N          -1.3113  -15.1027  -48.5510 N.am      2 UNK        -0.5000 
     65 C          -1.2190  -16.4118  -48.7985 C.2       1 UNK         0.5000 
     66 O          -1.0804  -16.8952  -49.9195 O.2       1 UNK        -0.5000 
     67 C          -0.4591  -23.4215  -47.0664 C.2       11 UNK         0.5000 
     68 O          -0.8794  -24.4282  -47.6332 O.2       11 UNK        -0.5000 
     69 N          -1.2544  -22.4138  -46.6734 N.am      12 UNK        -0.5000 
     70 CA         -2.6875  -22.3131  -47.0011 C.3       12 UNK         0.1400 
     71 CB         -3.2201  -20.9306  -46.5955 C.3       12 UNK        -0.1800 
     72 C          -3.5584  -23.4309  -46.3986 C.2       12 UNK         0.5000 
     73 O          -4.6382  -23.7119  -46.9175 O.2       12 UNK        -0.5000 
     74 N          -3.0555  -24.0700  -45.3375 N.am      13 UNK        -0.5000 
     75 CA         -3.6256  -25.2588  -44.7126 C.3       13 UNK         0.1400 
     76 CB         -2.8951  -25.4982  -43.3823 C.3       13 UNK        -0.1800 
     77 C          -3.5688  -26.5262  -45.5946 C.2       13 UNK         0.5000 
     78 O          -4.2871  -27.4807  -45.2924 O.2       13 UNK        -0.5000 
     79 N          -2.7254  -26.5378  -46.6388 N.am      14 UNK        -0.5000 
     80 CA         -2.5007  -27.6964  -47.5051 C.3       14 UNK         0.1400 
     81 CB         -1.1532  -28.3416  -47.1409 C.3       14 UNK        -0.1800 
     82 C          -2.5466  -27.3451  -49.0015 C.2       14 UNK         0.5000 
     83 O          -3.1671  -28.0796  -49.7717 O.2       14 UNK        -0.5000 
     84 N          -1.8757  -26.2591  -49.4025 N.am      15 UNK        -0.5000 
     85 CA         -1.7385  -25.8371  -50.7924 C.3       15 UNK         0.1400 
     86 CB         -0.4534  -25.0093  -50.9489 C.3       15 UNK        -0.1800 
     87 C          -2.9597  -25.0239  -51.2416 C.2       15 UNK         0.5000 
     88 O          -3.2743  -23.9989  -50.6313 O.2       15 UNK        -0.5000 
     89 N          -3.5903  -25.4679  -52.3364 N.am      16 UNK        -0.5000 
     90 CA         -4.7499  -24.8235  -52.9578 C.3       16 UNK         0.1400 
     91 CB         -5.2925  -25.7284  -54.0739 C.3       16 UNK        -0.1800 
     92 C          -4.4507  -23.4145  -53.5045 C.2       16 UNK         0.5000 
     93 O          -5.3460  -22.5709  -53.5195 O.2       16 UNK        -0.5000 
     94 N          -3.1960  -23.1780  -53.9165 N.am      17 UNK        -0.5000 
     95 CA         -2.7000  -21.8763  -54.3605 C.3       17 UNK         0.1400 
     96 CB         -1.2865  -22.0279  -54.9440 C.3       17 UNK        -0.1800 
     97 C          -2.7195  -20.8414  -53.2248 C.2       17 UNK         0.5000 
     98 O          -3.3173  -19.7792  -53.3839 O.2       17 UNK        -0.5000 
     99 N          -2.1159  -21.1900  -52.0809 N.am      18 UNK        -0.5000 
    100 CA        -2.0731  -20.3403  -50.8899 C.3       18 UNK         0.1400 
    101 CB        -1.0141  -20.8677  -49.9166 C.3       18 UNK        -0.1800 
    102 C         -3.4463  -20.1847  -50.2160 C.2       18 UNK         0.5000 
    103 O         -3.7312  -19.1174  -49.6782 O.2       18 UNK        -0.5000 
    104 N         -4.3079  -21.2079  -50.3161 N.am      19 UNK        -0.5000 
    105 CA        -5.7167  -21.1367  -49.9123 C.3       19 UNK         0.1400 
    106 CB        -6.3449  -22.5346  -49.9964 C.3       19 UNK        -0.1800 
    107 C         -6.5363  -20.1210  -50.7401 C.2       19 UNK         0.5000 
    108 O         -7.5087  -19.5667  -50.2279 O.2       19 UNK        -0.5000 
    109 N         -6.1073  -19.8687  -51.9842 N.am      20 UNK        -0.5000 
    110 CA        -6.6353  -18.8459  -52.8884 C.3       20 UNK         0.1400 
    111 CB        -6.6814  -19.4300  -54.3112 C.3       20 UNK        -0.1800 
    112 C         -5.8105  -17.5392  -52.8381 C.2       20 UNK         0.5000 
    113 O         -5.9457  -16.7039  -53.7343 O.2       20 UNK        -0.5000 
    114 N         -4.9607  -17.3845  -51.8103 N.am      21 UNK        -0.5000 
    115 CA        -4.0801  -16.2435  -51.5340 C.3       21 UNK         0.1400 
    116 CB        -4.9091  -14.9802  -51.2190 C.3       21 UNK        -0.1800 
    117 C         -3.0000  -15.9985  -52.6131 C.2       21 UNK         0.5000 
    118 O         -2.5155  -14.8730  -52.7452 O.2       21 UNK        -0.5000 
    119 N         -2.6524  -17.0461  -53.3730 N.am      22 UNK        -0.5000 
    120 CA        -1.6806  -17.0533  -54.4802 C.3       22 UNK         0.1400 
    121 C         -2.0750  -16.1549  -55.6934 C.2       22 UNK         0.5000 
    122 N         -3.3413  -15.7872  -55.8562 N.am      22 UNK        -0.7600 
    123 O         -1.2350  -15.8128  -56.5217 O.2       22 UNK        -0.5000 
    124 C124       -0.2138  -16.8461  -54.0048 C.3       23 UNK        -0.0398 
    125 S125        0.3126  -18.1443  -52.8342 S.3       23 UNK        -0.2404 
    126 C126        1.9470  -17.5321  -52.3226 C.3       23 UNK        -0.0205 
    127 H127       -3.0876  -15.6794  -44.3537 H         1 UNK         0.0600 
    128 H128       -4.6451  -16.4269  -44.6945 H         1 UNK         0.0600 
    129 H129       -4.2566  -14.8444  -45.3771 H         1 UNK         0.0600 
    130 H130       -1.3733  -16.4236  -45.6479 H         1 UNK         0.3000 
    131 H131       -1.8548  -18.2045  -47.8629 H         1 UNK         0.0600 
    132 H132        0.4971  -18.5148  -47.9397 H         1 UNK         0.0800 
    133 H133        0.0838  -18.4500  -46.2592 H         1 UNK         0.0800 
    134 H134        3.3395  -17.8106  -46.5458 H         1 UNK         0.0800 
    135 H135        3.6806  -16.3844  -47.4883 H         1 UNK         0.0800 
    136 H136        2.2371  -16.3703  -49.8689 H         1 UNK         0.1150 
    137 H137        2.6496  -20.1376  -51.8804 H         1 UNK         0.1150 
    138 H138        3.5582  -19.8193  -47.7040 H         1 UNK         0.1150 
    139 H139        3.8550  -21.9493  -50.7001 H         1 UNK         0.0800 
    140 H140        4.2848  -21.8030  -49.0165 H         1 UNK         0.0800 
    141 H141        1.1738  -21.2390  -47.4984 H         1 UNK         0.0800 
    142 H142        2.7059  -21.9654  -47.0933 H         1 UNK         0.0800 
    143 H143        1.4987  -24.2443  -47.1042 H         1 UNK         0.0600 
    144 H144        1.4809  -22.3086  -44.9370 H         1 UNK         0.3000 
    145 H145        1.8301  -25.0357  -42.5641 H         1 UNK         0.0600 
    146 H146        3.6263  -23.4121  -42.0262 H         1 UNK         0.0600 
    147 H147        3.3669  -22.5812  -43.5574 H         1 UNK         0.0600 
    148 H148        3.9553  -24.2370  -43.5421 H         1 UNK         0.0600 
    149 H149        1.0493  -22.1578  -42.6443 H         1 UNK         0.3000 
    150 H150       -1.9305  -22.6990  -40.9664 H         1 UNK         0.0600 
    151 H151       -0.5426  -22.9608  -38.9042 H         1 UNK         0.0600 
    152 H152       -1.1350  -21.3156  -39.0613 H         1 UNK         0.0600 
    153 H153        0.5430  -21.6913  -39.4570 H         1 UNK         0.0600 
    154 H154       -0.3941  -20.3151  -41.2845 H         1 UNK         0.3000 
    155 H155       -1.1761  -19.6903  -44.6983 H         1 UNK         0.0600 
    156 H156       -2.2299  -18.4649  -42.0926 H         1 UNK         0.0600 
    157 H157       -3.1978  -18.9507  -43.4826 H         1 UNK         0.0600 
    158 H158       -2.0665  -17.6136  -43.6211 H         1 UNK         0.0600 
    159 H159        0.2054  -18.1075  -42.7955 H         1 UNK         0.3000 
    160 H160        2.7011  -18.9339  -42.0680 H         1 UNK         0.0600 
    161 H161        3.9095  -19.3079  -44.8535 H         1 UNK         0.0600 
    162 H162        4.0861  -20.3744  -43.4691 H         1 UNK         0.0600 
    163 H163        4.8088  -18.7800  -43.4311 H         1 UNK         0.0600 
    164 H164        3.1562  -16.9930  -44.1589 H         1 UNK         0.3000 
    165 H165        2.6083  -14.5108  -42.0481 H         1 UNK         0.0600 
    166 H166        3.5119  -13.6185  -44.1345 H         1 UNK         0.0600 
    167 H167        4.2060  -15.1979  -43.8408 H         1 UNK         0.0600 
    168 H168        2.9320  -14.9987  -45.0461 H         1 UNK         0.0600 
    169 H169        1.1247  -13.1287  -43.0713 H         1 UNK         0.3000 
    170 H170       -1.8713  -13.6956  -44.8418 H         1 UNK         0.0600 
    171 H171       -0.9577  -12.2346  -42.3111 H         1 UNK         0.0600 
    172 H172       -2.4138  -11.8916  -43.2422 H         1 UNK         0.0600 
    173 H173       -2.2366  -13.4328  -42.4179 H         1 UNK         0.0600 
    174 H174       -0.8024  -12.2709  -46.0576 H         1 UNK         0.3000 
    175 H175        1.1628   -9.5208  -45.6488 H         1 UNK         0.0600 
    176 H176        2.5155  -12.0595  -46.7200 H         1 UNK         0.0600 
    177 H177        2.9461  -10.4044  -47.1553 H         1 UNK         0.0600 
    178 H178        3.1862  -10.9718  -45.5116 H         1 UNK         0.0600 
    179 H179        0.5777  -11.2082  -47.9426 H         1 UNK         0.3000 
    180 H180       -2.7356  -10.2116  -48.4078 H         1 UNK         0.0600 
    181 H181       -2.0442   -9.2657  -50.5907 H         1 UNK         0.0600 
    182 H182       -0.3767   -9.1186  -50.0330 H         1 UNK         0.0600 
    183 H183       -1.6452   -8.1433  -49.3012 H         1 UNK         0.0600 
    184 H184       -1.0432  -11.5198  -50.2241 H         1 UNK         0.3000 
    185 H185       -1.9223  -14.1123  -50.2786 H         1 UNK         0.0600 
    186 H186        0.9746  -13.7918  -49.2610 H         1 UNK         0.0600 
    187 H187        0.4774  -14.7994  -50.6179 H         1 UNK         0.0600 
    188 H188        0.3407  -13.0623  -50.7352 H         1 UNK         0.0600 
    189 H189       -1.4855  -14.8093  -47.5975 H         1 UNK         0.3000 
    190 H190       -0.8602  -21.6660  -46.1236 H         1 UNK         0.3000 
    191 H191       -2.7812  -22.4048  -48.0841 H         1 UNK         0.0600 
    192 H192       -2.6007  -20.1326  -46.9974 H         1 UNK         0.0600 
    193 H193       -3.2681  -20.8102  -45.5146 H         1 UNK         0.0600 
    194 H194       -4.2294  -20.7781  -46.9779 H         1 UNK         0.0600 
    195 H195       -2.2021  -23.7062  -44.9342 H         1 UNK         0.3000 
    196 H196       -4.6765  -25.0562  -44.4970 H         1 UNK         0.0600 
    197 H197       -2.9847  -24.6354  -42.7217 H         1 UNK         0.0600 
    198 H198       -1.8324  -25.6909  -43.5378 H         1 UNK         0.0600 
    199 H199       -3.3110  -26.3564  -42.8531 H         1 UNK         0.0600 
    200 H200       -2.1783  -25.7074  -46.8410 H         1 UNK         0.3000 
    201 H201       -3.2805  -28.4438  -47.3447 H         1 UNK         0.0600 
    202 H202       -1.1553  -28.6998  -46.1113 H         1 UNK         0.0600 
    203 H203       -0.3283  -27.6353  -47.2461 H         1 UNK         0.0600 
    204 H204       -0.9404  -29.1973  -47.7829 H         1 UNK         0.0600 
    205 H205       -1.4389  -25.6488  -48.7132 H         1 UNK         0.3000 
    206 H206       -1.6408  -26.7231  -51.4236 H         1 UNK         0.0600 
    207 H207       -0.4828  -24.1025  -50.3455 H         1 UNK         0.0600 
    208 H208        0.4238  -25.5805  -50.6447 H         1 UNK         0.0600 
    209 H209       -0.3031  -24.7084  -51.9863 H         1 UNK         0.0600 
    210 H210       -3.2678  -26.3203  -52.7718 H         1 UNK         0.3000 
    211 H211       -5.5233  -24.7260  -52.1942 H         1 UNK         0.0600 
    212 H212       -4.5523  -25.8889  -54.8588 H         1 UNK         0.0600 
    213 H213       -6.1746  -25.2870  -54.5399 H         1 UNK         0.0600 
    214 H214       -5.5868  -26.7031  -53.6840 H         1 UNK         0.0600 
    215 H215       -2.5300  -23.9348  -53.8800 H         1 UNK         0.3000 
    216 H216       -3.3587  -21.5143  -55.1530 H         1 UNK         0.0600 
    217 H217       -0.8955  -21.0636  -55.2718 H         1 UNK         0.0600 
    218 H218       -1.2879  -22.6888  -55.8109 H         1 UNK         0.0600 
    219 H219       -0.5854  -22.4343  -54.2140 H         1 UNK         0.0600 
    220 H220       -1.6841  -22.0986  -52.0093 H         1 UNK         0.3000 
    221 H221       -1.7667  -19.3389  -51.1974 H         1 UNK         0.0600 
    222 H222       -1.0235  -20.3123  -48.9790 H         1 UNK         0.0600 
    223 H223       -1.1675  -21.9206  -49.6852 H         1 UNK         0.0600 
    224 H224       -0.0176  -20.7580  -50.3436 H         1 UNK         0.0600 
    225 H225       -3.9869  -22.0868  -50.7097 H         1 UNK         0.3000 
    226 H226       -5.7476  -20.8138  -48.8702 H         1 UNK         0.0600 
    227 H227       -5.7673  -23.2655  -49.4303 H         1 UNK         0.0600 
    228 H228       -7.3558  -22.5307  -49.5875 H         1 UNK         0.0600 
    229 H229       -6.4120  -22.8816  -51.0265 H         1 UNK         0.0600 
    230 H230       -5.3032  -20.3783  -52.3293 H         1 UNK         0.3000 
    231 H231       -7.6560  -18.5897  -52.5985 H         1 UNK         0.0600 
    232 H232       -7.1445  -18.7327  -55.0102 H         1 UNK         0.0600 
    233 H233       -7.2645  -20.3507  -54.3394 H         1 UNK         0.0600 
    234 H234       -5.6832  -19.6577  -54.6860 H         1 UNK         0.0600 
    235 H235       -4.8835  -18.1404  -51.1394 H         1 UNK         0.3000 
    236 H236       -3.5450  -16.5074  -50.6236 H         1 UNK         0.0600 
    237 H237       -5.4354  -14.6110  -52.0995 H         1 UNK         0.0600 
    238 H238       -5.6482  -15.1789  -50.4429 H         1 UNK         0.0600 
    239 H239       -4.2743  -14.1715  -50.8569 H         1 UNK         0.0600 
    240 H240       -3.0969  -17.9444  -53.2024 H         1 UNK         0.3000 
    241 H241       -1.7325  -18.0630  -54.8882 H         1 UNK         0.0600 
    242 H242       -3.5960  -15.2163  -56.6465 H         1 UNK         0.3800 
    243 H243       -4.0458  -16.0630  -55.1862 H         1 UNK         0.3800 
    244 H244       -0.0992  -15.8679  -53.5360 H         1 UNK         0.0800 
    245 H245        0.4762  -16.8691  -54.8495 H         1 UNK         0.0800 
    246 H246        1.9058  -16.4479  -52.2080 H         1 UNK         0.0800 
    247 H247        2.6730  -17.7350  -53.1108 H         1 UNK         0.0800 
@<TRIPOS>BOND
     1    1    2 1    
     2    1  127 1    
     3    1  128 1    
     4    1  129 1    
     5    2    3 2    
     6    2    4 am   BACKBONE|DICT|INTERRES
     7    4    5 1    
     8    4  130 1    
     9    5    6 1    
    10    5   65 1    
    11    5  131 1    
    12    6    7 1    
    13    6  132 1    
    14    6  133 1    
    15    7    8 1    
    16    8    9 1    
    17    8  134 1    
    18    8  135 1    
    19    9   10 ar   
    20    9   14 ar   
    21   10   11 ar   
    22   10  136 1    
    23   11   12 ar   
    24   11  126 1    
    25   12   13 ar   
    26   12  137 1    
    27   13   14 ar   
    28   13   15 1    
    29   14  138 1    
    30   15   16 1    
    31   15  139 1    
    32   15  140 1    
    33   16   17 1    
    34   17   18 1    
    35   17  141 1    
    36   17  142 1    
    37   18   19 1    
    38   18   67 1    
    39   18  143 1    
    40   19   20 am   BACKBONE|DICT|INTERRES
    41   19  144 1    
    42   20   21 2    
    43   20   22 1    
    44   22   23 1    
    45   22   24 1    
    46   22  145 1    
    47   23  146 1    
    48   23  147 1    
    49   23  148 1    
    50   24   25 am   BACKBONE|DICT|INTERRES
    51   24  149 1    
    52   25   26 2    
    53   25   27 1    
    54   27   28 1    
    55   27   29 1    
    56   27  150 1    
    57   28  151 1    
    58   28  152 1    
    59   28  153 1    
    60   29   30 am   BACKBONE|DICT|INTERRES
    61   29  154 1    
    62   30   31 2    
    63   30   32 1    
    64   32   33 1    
    65   32   34 1    
    66   32  155 1    
    67   33  156 1    
    68   33  157 1    
    69   33  158 1    
    70   34   35 am   BACKBONE|DICT|INTERRES
    71   34  159 1    
    72   35   36 2    
    73   35   37 1    
    74   37   38 1    
    75   37   39 1    
    76   37  160 1    
    77   38  161 1    
    78   38  162 1    
    79   38  163 1    
    80   39   40 am   BACKBONE|DICT|INTERRES
    81   39  164 1    
    82   40   41 2    
    83   40   42 1    
    84   42   43 1    
    85   42   44 1    
    86   42  165 1    
    87   43  166 1    
    88   43  167 1    
    89   43  168 1    
    90   44   45 am   BACKBONE|DICT|INTERRES
    91   44  169 1    
    92   45   46 2    
    93   45   47 1    
    94   47   48 1    
    95   47   49 1    
    96   47  170 1    
    97   48  171 1    
    98   48  172 1    
    99   48  173 1    
   100   49   50 am   BACKBONE|DICT|INTERRES
   101   49  174 1    
   102   50   51 2    
   103   50   52 1    
   104   52   53 1    
   105   52   54 1    
   106   52  175 1    
   107   53  176 1    
   108   53  177 1    
   109   53  178 1    
   110   54   55 am   BACKBONE|DICT|INTERRES
   111   54  179 1    
   112   55   56 2    
   113   55   57 1    
   114   57   58 1    
   115   57   59 1    
   116   57  180 1    
   117   58  181 1    
   118   58  182 1    
   119   58  183 1    
   120   59   60 am   BACKBONE|DICT|INTERRES
   121   59  184 1    
   122   60   61 2    
   123   60   62 1    
   124   62   63 1    
   125   62   64 1    
   126   62  185 1    
   127   63  186 1    
   128   63  187 1    
   129   63  188 1    
   130   64   65 am   BACKBONE|DICT|INTERRES
   131   64  189 1    
   132   65   66 2    
   133   67   68 2    
   134   67   69 am   BACKBONE|DICT|INTERRES
   135   69   70 1    
   136   69  190 1    
   137   70   71 1    
   138   70   72 1    
   139   70  191 1    
   140   71  192 1    
   141   71  193 1    
   142   71  194 1    
   143   72   73 2    
   144   72   74 am   BACKBONE|DICT|INTERRES
   145   74   75 1    
   146   74  195 1    
   147   75   76 1    
   148   75   77 1    
   149   75  196 1    
   150   76  197 1    
   151   76  198 1    
   152   76  199 1    
   153   77   78 2    
   154   77   79 am   BACKBONE|DICT|INTERRES
   155   79   80 1    
   156   79  200 1    
   157   80   81 1    
   158   80   82 1    
   159   80  201 1    
   160   81  202 1    
   161   81  203 1    
   162   81  204 1    
   163   82   83 2    
   164   82   84 am   BACKBONE|DICT|INTERRES
   165   84   85 1    
   166   84  205 1    
   167   85   86 1    
   168   85   87 1    
   169   85  206 1    
   170   86  207 1    
   171   86  208 1    
   172   86  209 1    
   173   87   88 2    
   174   87   89 am   BACKBONE|DICT|INTERRES
   175   89   90 1    
   176   89  210 1    
   177   90   91 1    
   178   90   92 1    
   179   90  211 1    
   180   91  212 1    
   181   91  213 1    
   182   91  214 1    
   183   92   93 2    
   184   92   94 am   BACKBONE|DICT|INTERRES
   185   94   95 1    
   186   94  215 1    
   187   95   96 1    
   188   95   97 1    
   189   95  216 1    
   190   96  217 1    
   191   96  218 1    
   192   96  219 1    
   193   97   98 2    
   194   97   99 am   BACKBONE|DICT|INTERRES
   195   99  100 1    
   196   99  220 1    
   197  100  101 1    
   198  100  102 1    
   199  100  221 1    
   200  101  222 1    
   201  101  223 1    
   202  101  224 1    
   203  102  103 2    
   204  102  104 am   BACKBONE|DICT|INTERRES
   205  104  105 1    
   206  104  225 1    
   207  105  106 1    
   208  105  107 1    
   209  105  226 1    
   210  106  227 1    
   211  106  228 1    
   212  106  229 1    
   213  107  108 2    
   214  107  109 am   BACKBONE|DICT|INTERRES
   215  109  110 1    
   216  109  230 1    
   217  110  111 1    
   218  110  112 1    
   219  110  231 1    
   220  111  232 1    
   221  111  233 1    
   222  111  234 1    
   223  112  113 2    
   224  112  114 am   BACKBONE|DICT|INTERRES
   225  114  115 1    
   226  114  235 1    
   227  115  116 1    
   228  115  117 1    
   229  115  236 1    
   230  116  237 1    
   231  116  238 1    
   232  116  239 1    
   233  117  118 2    
   234  117  119 am   BACKBONE|DICT|INTERRES
   235  119  120 1    
   236  119  240 1    
   237  120  121 1    
   238  120  124 1    
   239  120  241 1    
   240  121  122 am   BACKBONE|DICT|INTERRES
   241  121  123 2    
   242  122  242 1    
   243  122  243 1    
   244  124  125 1    
   245  124  244 1    
   246  124  245 1    
   247  125  126 1    
   248  126  246 1    
   249  126  247 1    
@<TRIPOS>SUBSTRUCTURE
     1 UNK         1 GROUP             0       ****    0 ROOT    
