@<TRIPOS>MOLECULE
3R540
247   249    1
SMALL
USER_CHARGES


@<TRIPOS>ATOM
      1 CA         -2.1216  -11.8603  -45.3872 C.3       0 UNK        -0.1800 
      2 C          -2.0268  -13.2888  -45.8999 C.2       0 UNK         0.5000 
      3 O          -1.4333  -14.1479  -45.2450 O.2       0 UNK        -0.5000 
      4 N          -2.6376  -13.5452  -47.0622 N.am      1 UNK        -0.5000 
      5 CA         -2.7144  -14.8581  -47.7184 C.3       1 UNK         0.1400 
      6 C6         -3.2535  -14.7303  -49.1647 C.3       23 UNK        -0.0398 
      7 S7         -2.0463  -13.9335  -50.2807 S.3       23 UNK        -0.2404 
      8 C8         -1.7095  -15.2567  -51.4923 C.3       23 UNK        -0.0205 
      9 C9         -0.6223  -16.2240  -51.0381 C.ar      23 UNK        -0.0193 
     10 C10         0.5920  -16.2949  -51.7266 C.ar      23 UNK        -0.1150 
     11 C11         1.5681  -17.2308  -51.3636 C.ar      23 UNK        -0.0193 
     12 C12         1.3371  -18.0737  -50.2696 C.ar      23 UNK        -0.1150 
     13 C13         0.1433  -17.9842  -49.5493 C.ar      23 UNK        -0.0193 
     14 C14        -0.8365  -17.0779  -49.9550 C.ar      23 UNK        -0.1150 
     15 C15        -0.1149  -18.8553  -48.3324 C.3       23 UNK        -0.0205 
     16 S16         0.3502  -17.9932  -46.7920 S.3       23 UNK        -0.2404 
     17 C17        -0.8058  -18.5552  -45.4781 C.3       23 UNK        -0.0398 
     18 CA         -1.7765  -19.7204  -45.7802 C.3       11 UNK         0.1400 
     19 N          -1.0672  -20.9562  -46.1242 N.am      11 UNK        -0.5000 
     20 C          -1.6545  -22.0750  -46.5721 C.2       10 UNK         0.5000 
     21 O          -2.8712  -22.1888  -46.7182 O.2       10 UNK        -0.5000 
     22 CA         -0.7425  -23.2662  -46.9078 C.3       10 UNK         0.1400 
     23 CB         -0.3597  -23.2084  -48.3936 C.3       10 UNK        -0.1800 
     24 N           0.4779  -23.3156  -46.1010 N.am      10 UNK        -0.5000 
     25 C           0.5254  -23.4232  -44.7644 C.2       9 UNK         0.5000 
     26 O          -0.4718  -23.5308  -44.0510 O.2       9 UNK        -0.5000 
     27 CA          1.9213  -23.3575  -44.1141 C.3       9 UNK         0.1400 
     28 CB          2.4569  -24.7725  -43.8491 C.3       9 UNK        -0.1800 
     29 N           2.9050  -22.6116  -44.9076 N.am      9 UNK        -0.5000 
     30 C           2.8331  -21.3009  -45.1740 C.2       8 UNK         0.5000 
     31 O           1.9069  -20.5763  -44.8024 O.2       8 UNK        -0.5000 
     32 CA          3.9491  -20.7208  -46.0545 C.3       8 UNK         0.1400 
     33 CB          3.4890  -20.6437  -47.5183 C.3       8 UNK        -0.1800 
     34 N           4.2976  -19.3789  -45.6025 N.am      8 UNK        -0.5000 
     35 C           5.2589  -19.0900  -44.7168 C.2       7 UNK         0.5000 
     36 O           5.9796  -19.9453  -44.1992 O.2       7 UNK        -0.5000 
     37 CA          5.4370  -17.6039  -44.3297 C.3       7 UNK         0.1400 
     38 CB          6.9127  -17.2275  -44.0828 C.3       7 UNK        -0.1800 
     39 N           4.8013  -16.6602  -45.2592 N.am      7 UNK        -0.5000 
     40 C           5.1026  -16.4391  -46.5499 C.2       6 UNK         0.5000 
     41 O           6.0294  -16.9946  -47.1399 O.2       6 UNK        -0.5000 
     42 CA          4.1949  -15.4668  -47.3331 C.3       6 UNK         0.1400 
     43 CB          3.4630  -16.2111  -48.4589 C.3       6 UNK        -0.1800 
     44 N           3.1959  -14.8117  -46.4855 N.am      6 UNK        -0.5000 
     45 C           3.4152  -13.6933  -45.7825 C.2       5 UNK         0.5000 
     46 O           4.4666  -13.0536  -45.8242 O.2       5 UNK        -0.5000 
     47 CA          2.2803  -13.2278  -44.8492 C.3       5 UNK         0.1400 
     48 CB          1.3844  -12.2115  -45.5673 C.3       5 UNK        -0.1800 
     49 N           1.4622  -14.3206  -44.2991 N.am      5 UNK        -0.5000 
     50 C           1.9470  -15.2589  -43.4685 C.2       4 UNK         0.5000 
     51 O           3.1364  -15.3200  -43.1558 O.2       4 UNK        -0.5000 
     52 CA          0.9635  -16.2915  -42.8916 C.3       4 UNK         0.1400 
     53 CB          1.5083  -16.9885  -41.6255 C.3       4 UNK        -0.1800 
     54 N          -0.3395  -15.6831  -42.6289 N.am      4 UNK        -0.5000 
     55 C          -1.4840  -16.3558  -42.4617 C.2       3 UNK         0.5000 
     56 O          -1.5620  -17.5841  -42.4825 O.2       3 UNK        -0.5000 
     57 CA         -2.7674  -15.5355  -42.2605 C.3       3 UNK         0.1400 
     58 CB         -2.5226  -14.0667  -41.8596 C.3       3 UNK        -0.1800 
     59 N          -3.5120  -15.5730  -43.5136 N.am      3 UNK        -0.5000 
     60 C          -4.6731  -16.2123  -43.7108 C.2       2 UNK         0.5000 
     61 O          -5.2934  -16.7859  -42.8142 O.2       2 UNK        -0.5000 
     62 CA         -5.2650  -16.1896  -45.1373 C.3       2 UNK         0.1400 
     63 CB         -6.6982  -15.6318  -45.1334 C.3       2 UNK        -0.1800 
     64 N          -4.4596  -15.3903  -46.0627 N.am      2 UNK        -0.5000 
     65 C          -3.5545  -15.8800  -46.9204 C.2       1 UNK         0.5000 
     66 O          -3.3576  -17.0809  -47.0932 O.2       1 UNK        -0.5000 
     67 C          -2.7900  -19.9232  -44.6325 C.2       11 UNK         0.5000 
     68 O          -3.8728  -19.3400  -44.6750 O.2       11 UNK        -0.5000 
     69 N          -2.4745  -20.8226  -43.6886 N.am      12 UNK        -0.5000 
     70 CA         -3.3631  -21.2248  -42.5953 C.3       12 UNK         0.1400 
     71 CB         -2.5539  -22.0278  -41.5660 C.3       12 UNK        -0.1800 
     72 C          -4.5981  -22.0271  -43.0620 C.2       12 UNK         0.5000 
     73 O          -5.5789  -22.1052  -42.3222 O.2       12 UNK        -0.5000 
     74 N          -4.5426  -22.5861  -44.2785 N.am      13 UNK        -0.5000 
     75 CA         -5.6242  -23.3104  -44.9457 C.3       13 UNK         0.1400 
     76 CB         -5.0569  -24.6255  -45.5114 C.3       13 UNK        -0.1800 
     77 C          -6.2794  -22.4415  -46.0403 C.2       13 UNK         0.5000 
     78 O          -6.7466  -22.9768  -47.0477 O.2       13 UNK        -0.5000 
     79 N          -6.2766  -21.1128  -45.8429 N.am      14 UNK        -0.5000 
     80 CA         -6.7970  -20.0814  -46.7491 C.3       14 UNK         0.1400 
     81 CB         -8.3338  -20.1672  -46.8535 C.3       14 UNK        -0.1800 
     82 C          -6.0962  -20.1157  -48.1210 C.2       14 UNK         0.5000 
     83 O          -6.7557  -20.1364  -49.1618 O.2       14 UNK        -0.5000 
     84 N          -4.7588  -20.1819  -48.0789 N.am      15 UNK        -0.5000 
     85 CA         -3.8492  -20.3506  -49.2154 C.3       15 UNK         0.1400 
     86 CB         -3.8949  -19.1162  -50.1390 C.3       15 UNK        -0.1800 
     87 C          -4.0849  -21.6817  -49.9531 C.2       15 UNK         0.5000 
     88 O          -4.0874  -21.7101  -51.1823 O.2       15 UNK        -0.5000 
     89 N          -4.3070  -22.7545  -49.1800 N.am      16 UNK        -0.5000 
     90 CA         -4.7060  -24.0962  -49.6197 C.3       16 UNK         0.1400 
     91 CB         -3.5204  -24.8238  -50.2861 C.3       16 UNK        -0.1800 
     92 C          -5.9770  -24.0600  -50.4952 C.2       16 UNK         0.5000 
     93 O          -5.9907  -24.6098  -51.5973 O.2       16 UNK        -0.5000 
     94 N          -7.0029  -23.3620  -49.9861 N.am      17 UNK        -0.5000 
     95 CA         -8.2663  -23.0286  -50.6502 C.3       17 UNK         0.1400 
     96 CB         -9.1200  -24.2945  -50.8732 C.3       17 UNK        -0.1800 
     97 C          -8.0536  -22.1978  -51.9357 C.2       17 UNK         0.5000 
     98 O          -8.5328  -22.5727  -53.0078 O.2       17 UNK        -0.5000 
     99 N          -7.3347  -21.0755  -51.7867 N.am      18 UNK        -0.5000 
    100 CA        -7.0269  -20.0667  -52.8084 C.3       18 UNK         0.1400 
    101 CB        -8.3143  -19.3483  -53.2651 C.3       18 UNK        -0.1800 
    102 C         -6.1755  -20.5832  -53.9909 C.2       18 UNK         0.5000 
    103 O         -6.2916  -20.0623  -55.1020 O.2       18 UNK        -0.5000 
    104 N         -5.3216  -21.5809  -53.7354 N.am      19 UNK        -0.5000 
    105 CA        -4.3692  -22.1311  -54.6998 C.3       19 UNK         0.1400 
    106 CB        -4.1802  -23.6294  -54.4182 C.3       19 UNK        -0.1800 
    107 C         -3.0156  -21.3978  -54.6475 C.2       19 UNK         0.5000 
    108 O         -2.4335  -21.1429  -55.7021 O.2       19 UNK        -0.5000 
    109 N         -2.5704  -21.0689  -53.4240 N.am      20 UNK        -0.5000 
    110 CA        -1.2962  -20.4651  -53.0180 C.3       20 UNK         0.1400 
    111 CB        -1.0745  -19.0963  -53.6860 C.3       20 UNK        -0.1800 
    112 C         -0.0824  -21.3942  -53.2200 C.2       20 UNK         0.5000 
    113 O          0.0756  -22.0058  -54.2779 O.2       20 UNK        -0.5000 
    114 N          0.7929  -21.4522  -52.2048 N.am      21 UNK        -0.5000 
    115 CA         2.0206  -22.2617  -52.2008 C.3       21 UNK         0.1400 
    116 CB         2.6670  -22.1919  -50.8090 C.3       21 UNK        -0.1800 
    117 C          3.0413  -21.8463  -53.2787 C.2       21 UNK         0.5000 
    118 O          3.7925  -22.6880  -53.7720 O.2       21 UNK        -0.5000 
    119 N          3.0271  -20.5572  -53.6280 N.am      22 UNK        -0.5000 
    120 CA         3.7840  -19.9485  -54.7291 C.3       22 UNK         0.1400 
    121 C          3.1529  -20.1594  -56.1400 C.2       22 UNK         0.5000 
    122 N          1.9959  -20.7981  -56.2788 N.am      22 UNK        -0.7600 
    123 O          3.7384  -19.7503  -57.1390 O.2       22 UNK        -0.5000 
    124 C124        4.0905  -18.4545  -54.4338 C.3       23 UNK        -0.0398 
    125 S125        2.6129  -17.4975  -53.9361 S.3       23 UNK        -0.2404 
    126 C126        2.8778  -17.3226  -52.1373 C.3       23 UNK        -0.0205 
    127 H127       -1.5105  -11.1967  -45.9987 H         1 UNK         0.0600 
    128 H128       -1.7739  -11.7937  -44.3566 H         1 UNK         0.0600 
    129 H129       -3.1523  -11.5070  -45.4183 H         1 UNK         0.0600 
    130 H130       -3.0811  -12.7857  -47.5594 H         1 UNK         0.3000 
    131 H131       -1.7006  -15.2631  -47.7580 H         1 UNK         0.0600 
    132 H132       -3.5333  -15.7012  -49.5750 H         1 UNK         0.0800 
    133 H133       -4.1725  -14.1419  -49.1770 H         1 UNK         0.0800 
    134 H134       -1.4165  -14.7833  -52.4305 H         1 UNK         0.0800 
    135 H135       -2.6228  -15.8101  -51.7148 H         1 UNK         0.0800 
    136 H136        0.7706  -15.6392  -52.5670 H         1 UNK         0.1150 
    137 H137        2.0939  -18.7812  -49.9621 H         1 UNK         0.1150 
    138 H138       -1.7638  -17.0375  -49.4086 H         1 UNK         0.1150 
    139 H139       -1.1720  -19.0921  -48.3322 H         1 UNK         0.0800 
    140 H140        0.4195  -19.8019  -48.4089 H         1 UNK         0.0800 
    141 H141       -1.3806  -17.6724  -45.1936 H         1 UNK         0.0800 
    142 H142       -0.2045  -18.8146  -44.6062 H         1 UNK         0.0800 
    143 H143       -2.3876  -19.4400  -46.6348 H         1 UNK         0.0600 
    144 H144       -0.0654  -20.9474  -45.9796 H         1 UNK         0.3000 
    145 H145       -1.3098  -24.1811  -46.7250 H         1 UNK         0.0600 
    146 H146       -1.2450  -23.1678  -49.0286 H         1 UNK         0.0600 
    147 H147        0.2348  -22.3221  -48.6144 H         1 UNK         0.0600 
    148 H148        0.2141  -24.0861  -48.6912 H         1 UNK         0.0600 
    149 H149        1.3525  -23.2445  -46.5985 H         1 UNK         0.3000 
    150 H150        1.8092  -22.8484  -43.1545 H         1 UNK         0.0600 
    151 H151        1.7586  -25.3464  -43.2382 H         1 UNK         0.0600 
    152 H152        3.4053  -24.7417  -43.3124 H         1 UNK         0.0600 
    153 H153        2.6123  -25.3250  -44.7766 H         1 UNK         0.0600 
    154 H154        3.6922  -23.1405  -45.2553 H         1 UNK         0.3000 
    155 H155        4.8250  -21.3712  -46.0022 H         1 UNK         0.0600 
    156 H156        3.1951  -21.6257  -47.8900 H         1 UNK         0.0600 
    157 H157        4.2887  -20.2776  -48.1625 H         1 UNK         0.0600 
    158 H158        2.6370  -19.9753  -47.6362 H         1 UNK         0.0600 
    159 H159        3.7070  -18.6299  -45.9301 H         1 UNK         0.3000 
    160 H160        4.9103  -17.4840  -43.3820 H         1 UNK         0.0600 
    161 H161        7.0098  -16.1782  -43.8040 H         1 UNK         0.0600 
    162 H162        7.5295  -17.3999  -44.9650 H         1 UNK         0.0600 
    163 H163        7.3367  -17.8175  -43.2695 H         1 UNK         0.0600 
    164 H164        4.0551  -16.1113  -44.8487 H         1 UNK         0.3000 
    165 H165        4.8373  -14.7108  -47.7893 H         1 UNK         0.0600 
    166 H166        2.8579  -17.0282  -48.0673 H         1 UNK         0.0600 
    167 H167        2.8059  -15.5438  -49.0172 H         1 UNK         0.0600 
    168 H168        4.1687  -16.6407  -49.1709 H         1 UNK         0.0600 
    169 H169        2.2983  -15.2674  -46.4028 H         1 UNK         0.3000 
    170 H170        2.7510  -12.7161  -44.0069 H         1 UNK         0.0600 
    171 H171        0.8414  -12.6684  -46.3950 H         1 UNK         0.0600 
    172 H172        0.6639  -11.7755  -44.8770 H         1 UNK         0.0600 
    173 H173        1.9734  -11.3897  -45.9766 H         1 UNK         0.0600 
    174 H174        0.4837  -14.3427  -44.5717 H         1 UNK         0.3000 
    175 H175        0.8444  -17.0451  -43.6688 H         1 UNK         0.0600 
    176 H176        2.4669  -17.4707  -41.8213 H         1 UNK         0.0600 
    177 H177        1.6553  -16.2775  -40.8120 H         1 UNK         0.0600 
    178 H178        0.8334  -17.7672  -41.2712 H         1 UNK         0.0600 
    179 H179       -0.3607  -14.6729  -42.6093 H         1 UNK         0.3000 
    180 H180       -3.3283  -16.0139  -41.4552 H         1 UNK         0.0600 
    181 H181       -1.9958  -13.5066  -42.6316 H         1 UNK         0.0600 
    182 H182       -1.9385  -14.0027  -40.9407 H         1 UNK         0.0600 
    183 H183       -3.4675  -13.5555  -41.6745 H         1 UNK         0.0600 
    184 H184       -3.0316  -15.1777  -44.3128 H         1 UNK         0.3000 
    185 H185       -5.3094  -17.2239  -45.4811 H         1 UNK         0.0600 
    186 H186       -7.1264  -15.6411  -46.1359 H         1 UNK         0.0600 
    187 H187       -7.3521  -16.2313  -44.4989 H         1 UNK         0.0600 
    188 H188       -6.7299  -14.6064  -44.7634 H         1 UNK         0.0600 
    189 H189       -4.5590  -14.3878  -45.9927 H         1 UNK         0.3000 
    190 H190       -1.5911  -21.3101  -43.7532 H         1 UNK         0.3000 
    191 H191       -3.7277  -20.3170  -42.1096 H         1 UNK         0.0600 
    192 H192       -2.1706  -22.9558  -41.9914 H         1 UNK         0.0600 
    193 H193       -1.7060  -21.4522  -41.1939 H         1 UNK         0.0600 
    194 H194       -3.1695  -22.2919  -40.7052 H         1 UNK         0.0600 
    195 H195       -3.7158  -22.4329  -44.8440 H         1 UNK         0.3000 
    196 H196       -6.4092  -23.5636  -44.2308 H         1 UNK         0.0600 
    197 H197       -4.6043  -25.2278  -44.7237 H         1 UNK         0.0600 
    198 H198       -4.2958  -24.4443  -46.2705 H         1 UNK         0.0600 
    199 H199       -5.8414  -25.2300  -45.9683 H         1 UNK         0.0600 
    200 H200       -5.8221  -20.7659  -45.0085 H         1 UNK         0.3000 
    201 H201       -6.5496  -19.1188  -46.3006 H         1 UNK         0.0600 
    202 H202       -8.7308  -19.3375  -47.4395 H         1 UNK         0.0600 
    203 H203       -8.7985  -20.1201  -45.8688 H         1 UNK         0.0600 
    204 H204       -8.6594  -21.0903  -47.3342 H         1 UNK         0.0600 
    205 H205       -4.3269  -20.2098  -47.1661 H         1 UNK         0.3000 
    206 H206       -2.8453  -20.4226  -48.8061 H         1 UNK         0.0600 
    207 H207       -4.8428  -19.0396  -50.6679 H         1 UNK         0.0600 
    208 H208       -3.1049  -19.1480  -50.8878 H         1 UNK         0.0600 
    209 H209       -3.7654  -18.1985  -49.5682 H         1 UNK         0.0600 
    210 H210       -4.2363  -22.6219  -48.1773 H         1 UNK         0.3000 
    211 H211       -4.9729  -24.6553  -48.7220 H         1 UNK         0.0600 
    212 H212       -2.6961  -24.9497  -49.5854 H         1 UNK         0.0600 
    213 H213       -3.8089  -25.8210  -50.6202 H         1 UNK         0.0600 
    214 H214       -3.1445  -24.2824  -51.1538 H         1 UNK         0.0600 
    215 H215       -6.8866  -22.9783  -49.0522 H         1 UNK         0.3000 
    216 H216       -8.8113  -22.3853  -49.9576 H         1 UNK         0.0600 
    217 H217      -10.1037  -24.0354  -51.2661 H         1 UNK         0.0600 
    218 H218       -8.6561  -24.9803  -51.5826 H         1 UNK         0.0600 
    219 H219       -9.2757  -24.8334  -49.9386 H         1 UNK         0.0600 
    220 H220       -7.0086  -20.8471  -50.8488 H         1 UNK         0.3000 
    221 H221       -6.4089  -19.3207  -52.3102 H         1 UNK         0.0600 
    222 H222       -8.9669  -20.0101  -53.8352 H         1 UNK         0.0600 
    223 H223       -8.8792  -18.9724  -52.4120 H         1 UNK         0.0600 
    224 H224       -8.0826  -18.4922  -53.8996 H         1 UNK         0.0600 
    225 H225       -5.2357  -21.9072  -52.7782 H         1 UNK         0.3000 
    226 H226       -4.7700  -22.0304  -55.7107 H         1 UNK         0.0600 
    227 H227       -5.1250  -24.1671  -54.5010 H         1 UNK         0.0600 
    228 H228       -3.4846  -24.0767  -55.1292 H         1 UNK         0.0600 
    229 H229       -3.7861  -23.8039  -53.4169 H         1 UNK         0.0600 
    230 H230       -3.1640  -21.3429  -52.6423 H         1 UNK         0.3000 
    231 H231       -1.3919  -20.2907  -51.9460 H         1 UNK         0.0600 
    232 H232       -0.1848  -18.6124  -53.2852 H         1 UNK         0.0600 
    233 H233       -1.9158  -18.4271  -53.5058 H         1 UNK         0.0600 
    234 H234       -0.9340  -19.1827  -54.7636 H         1 UNK         0.0600 
    235 H235        0.6136  -20.9114  -51.3724 H         1 UNK         0.3000 
    236 H236        1.7405  -23.2985  -52.3985 H         1 UNK         0.0600 
    237 H237        2.0173  -22.6241  -50.0508 H         1 UNK         0.0600 
    238 H238        3.6024  -22.7526  -50.7824 H         1 UNK         0.0600 
    239 H239        2.8933  -21.1650  -50.5200 H         1 UNK         0.0600 
    240 H240        2.3588  -19.9471  -53.1816 H         1 UNK         0.3000 
    241 H241        4.7481  -20.4579  -54.7807 H         1 UNK         0.0600 
    242 H242        1.6159  -20.9242  -57.2032 H         1 UNK         0.3800 
    243 H243        1.4899  -21.1695  -55.4829 H         1 UNK         0.3800 
    244 H244        4.8421  -18.3892  -53.6464 H         1 UNK         0.0800 
    245 H245        4.5456  -17.9680  -55.2982 H         1 UNK         0.0800 
    246 H246        3.4701  -16.4266  -51.9473 H         1 UNK         0.0800 
    247 H247        3.4652  -18.1655  -51.7702 H         1 UNK         0.0800 
@<TRIPOS>BOND
     1    1    2 1    
     2    1  127 1    
     3    1  128 1    
     4    1  129 1    
     5    2    3 2    
     6    2    4 am   BACKBONE|DICT|INTERRES
     7    4    5 1    
     8    4  130 1    
     9    5    6 1    
    10    5   65 1    
    11    5  131 1    
    12    6    7 1    
    13    6  132 1    
    14    6  133 1    
    15    7    8 1    
    16    8    9 1    
    17    8  134 1    
    18    8  135 1    
    19    9   10 ar   
    20    9   14 ar   
    21   10   11 ar   
    22   10  136 1    
    23   11   12 ar   
    24   11  126 1    
    25   12   13 ar   
    26   12  137 1    
    27   13   14 ar   
    28   13   15 1    
    29   14  138 1    
    30   15   16 1    
    31   15  139 1    
    32   15  140 1    
    33   16   17 1    
    34   17   18 1    
    35   17  141 1    
    36   17  142 1    
    37   18   19 1    
    38   18   67 1    
    39   18  143 1    
    40   19   20 am   BACKBONE|DICT|INTERRES
    41   19  144 1    
    42   20   21 2    
    43   20   22 1    
    44   22   23 1    
    45   22   24 1    
    46   22  145 1    
    47   23  146 1    
    48   23  147 1    
    49   23  148 1    
    50   24   25 am   BACKBONE|DICT|INTERRES
    51   24  149 1    
    52   25   26 2    
    53   25   27 1    
    54   27   28 1    
    55   27   29 1    
    56   27  150 1    
    57   28  151 1    
    58   28  152 1    
    59   28  153 1    
    60   29   30 am   BACKBONE|DICT|INTERRES
    61   29  154 1    
    62   30   31 2    
    63   30   32 1    
    64   32   33 1    
    65   32   34 1    
    66   32  155 1    
    67   33  156 1    
    68   33  157 1    
    69   33  158 1    
    70   34   35 am   BACKBONE|DICT|INTERRES
    71   34  159 1    
    72   35   36 2    
    73   35   37 1    
    74   37   38 1    
    75   37   39 1    
    76   37  160 1    
    77   38  161 1    
    78   38  162 1    
    79   38  163 1    
    80   39   40 am   BACKBONE|DICT|INTERRES
    81   39  164 1    
    82   40   41 2    
    83   40   42 1    
    84   42   43 1    
    85   42   44 1    
    86   42  165 1    
    87   43  166 1    
    88   43  167 1    
    89   43  168 1    
    90   44   45 am   BACKBONE|DICT|INTERRES
    91   44  169 1    
    92   45   46 2    
    93   45   47 1    
    94   47   48 1    
    95   47   49 1    
    96   47  170 1    
    97   48  171 1    
    98   48  172 1    
    99   48  173 1    
   100   49   50 am   BACKBONE|DICT|INTERRES
   101   49  174 1    
   102   50   51 2    
   103   50   52 1    
   104   52   53 1    
   105   52   54 1    
   106   52  175 1    
   107   53  176 1    
   108   53  177 1    
   109   53  178 1    
   110   54   55 am   BACKBONE|DICT|INTERRES
   111   54  179 1    
   112   55   56 2    
   113   55   57 1    
   114   57   58 1    
   115   57   59 1    
   116   57  180 1    
   117   58  181 1    
   118   58  182 1    
   119   58  183 1    
   120   59   60 am   BACKBONE|DICT|INTERRES
   121   59  184 1    
   122   60   61 2    
   123   60   62 1    
   124   62   63 1    
   125   62   64 1    
   126   62  185 1    
   127   63  186 1    
   128   63  187 1    
   129   63  188 1    
   130   64   65 am   BACKBONE|DICT|INTERRES
   131   64  189 1    
   132   65   66 2    
   133   67   68 2    
   134   67   69 am   BACKBONE|DICT|INTERRES
   135   69   70 1    
   136   69  190 1    
   137   70   71 1    
   138   70   72 1    
   139   70  191 1    
   140   71  192 1    
   141   71  193 1    
   142   71  194 1    
   143   72   73 2    
   144   72   74 am   BACKBONE|DICT|INTERRES
   145   74   75 1    
   146   74  195 1    
   147   75   76 1    
   148   75   77 1    
   149   75  196 1    
   150   76  197 1    
   151   76  198 1    
   152   76  199 1    
   153   77   78 2    
   154   77   79 am   BACKBONE|DICT|INTERRES
   155   79   80 1    
   156   79  200 1    
   157   80   81 1    
   158   80   82 1    
   159   80  201 1    
   160   81  202 1    
   161   81  203 1    
   162   81  204 1    
   163   82   83 2    
   164   82   84 am   BACKBONE|DICT|INTERRES
   165   84   85 1    
   166   84  205 1    
   167   85   86 1    
   168   85   87 1    
   169   85  206 1    
   170   86  207 1    
   171   86  208 1    
   172   86  209 1    
   173   87   88 2    
   174   87   89 am   BACKBONE|DICT|INTERRES
   175   89   90 1    
   176   89  210 1    
   177   90   91 1    
   178   90   92 1    
   179   90  211 1    
   180   91  212 1    
   181   91  213 1    
   182   91  214 1    
   183   92   93 2    
   184   92   94 am   BACKBONE|DICT|INTERRES
   185   94   95 1    
   186   94  215 1    
   187   95   96 1    
   188   95   97 1    
   189   95  216 1    
   190   96  217 1    
   191   96  218 1    
   192   96  219 1    
   193   97   98 2    
   194   97   99 am   BACKBONE|DICT|INTERRES
   195   99  100 1    
   196   99  220 1    
   197  100  101 1    
   198  100  102 1    
   199  100  221 1    
   200  101  222 1    
   201  101  223 1    
   202  101  224 1    
   203  102  103 2    
   204  102  104 am   BACKBONE|DICT|INTERRES
   205  104  105 1    
   206  104  225 1    
   207  105  106 1    
   208  105  107 1    
   209  105  226 1    
   210  106  227 1    
   211  106  228 1    
   212  106  229 1    
   213  107  108 2    
   214  107  109 am   BACKBONE|DICT|INTERRES
   215  109  110 1    
   216  109  230 1    
   217  110  111 1    
   218  110  112 1    
   219  110  231 1    
   220  111  232 1    
   221  111  233 1    
   222  111  234 1    
   223  112  113 2    
   224  112  114 am   BACKBONE|DICT|INTERRES
   225  114  115 1    
   226  114  235 1    
   227  115  116 1    
   228  115  117 1    
   229  115  236 1    
   230  116  237 1    
   231  116  238 1    
   232  116  239 1    
   233  117  118 2    
   234  117  119 am   BACKBONE|DICT|INTERRES
   235  119  120 1    
   236  119  240 1    
   237  120  121 1    
   238  120  124 1    
   239  120  241 1    
   240  121  122 am   BACKBONE|DICT|INTERRES
   241  121  123 2    
   242  122  242 1    
   243  122  243 1    
   244  124  125 1    
   245  124  244 1    
   246  124  245 1    
   247  125  126 1    
   248  126  246 1    
   249  126  247 1    
@<TRIPOS>SUBSTRUCTURE
     1 UNK         1 GROUP             0       ****    0 ROOT    
