@<TRIPOS>MOLECULE
3R540
247   249    1
SMALL
USER_CHARGES


@<TRIPOS>ATOM
      1 CA          4.9537  -11.0681  -46.7661 C.3       0 UNK        -0.1800 
      2 C           4.1540  -12.2731  -47.2404 C.2       0 UNK         0.5000 
      3 O           4.6771  -13.3870  -47.2567 O.2       0 UNK        -0.5000 
      4 N           2.8913  -12.0545  -47.6225 N.am      1 UNK        -0.5000 
      5 CA          1.9654  -13.0905  -48.0876 C.3       1 UNK         0.1400 
      6 C6          2.1022  -13.3742  -49.6067 C.3       23 UNK        -0.0398 
      7 S7          1.6174  -15.0792  -50.0484 S.3       23 UNK        -0.2404 
      8 C8          3.2407  -15.8536  -50.3245 C.3       23 UNK        -0.0205 
      9 C9          3.0917  -17.2351  -50.9430 C.ar      23 UNK        -0.0193 
     10 C10         2.7423  -17.3545  -52.2899 C.ar      23 UNK        -0.1150 
     11 C11         2.6027  -18.6120  -52.8800 C.ar      23 UNK        -0.0193 
     12 C12         2.8265  -19.7590  -52.1127 C.ar      23 UNK        -0.1150 
     13 C13         3.1868  -19.6604  -50.7646 C.ar      23 UNK        -0.0193 
     14 C14         3.3183  -18.3893  -50.1867 C.ar      23 UNK        -0.1150 
     15 C15         3.4928  -20.9417  -49.9887 C.3       23 UNK        -0.0205 
     16 S16         3.1355  -20.8650  -48.2023 S.3       23 UNK        -0.2404 
     17 C17         1.3229  -21.0647  -48.1524 C.3       23 UNK        -0.0398 
     18 CA          0.8960  -22.4127  -47.5177 C.3       11 UNK         0.1400 
     19 N           1.4352  -22.5814  -46.1707 N.am      11 UNK        -0.5000 
     20 C           1.6992  -23.7490  -45.5758 C.2       10 UNK         0.5000 
     21 O           1.5636  -24.8400  -46.1333 O.2       10 UNK        -0.5000 
     22 CA          2.1797  -23.6771  -44.1095 C.3       10 UNK         0.1400 
     23 CB          2.8883  -24.9630  -43.6349 C.3       10 UNK        -0.1800 
     24 N           2.9911  -22.4885  -43.8252 N.am      10 UNK        -0.5000 
     25 C           4.1916  -22.1650  -44.3304 C.2       9 UNK         0.5000 
     26 O           4.8344  -22.8931  -45.0879 O.2       9 UNK        -0.5000 
     27 CA          4.7842  -20.7953  -43.9290 C.3       9 UNK         0.1400 
     28 CB          4.8625  -19.8568  -45.1429 C.3       9 UNK        -0.1800 
     29 N           4.0349  -20.1174  -42.8693 N.am      9 UNK        -0.5000 
     30 C           4.0977  -20.4174  -41.5658 C.2       8 UNK         0.5000 
     31 O           4.8539  -21.2675  -41.0949 O.2       8 UNK        -0.5000 
     32 CA          3.1211  -19.6677  -40.6382 C.3       8 UNK         0.1400 
     33 CB          3.7194  -18.3275  -40.1852 C.3       8 UNK        -0.1800 
     34 N           1.8105  -19.4367  -41.2530 N.am      8 UNK        -0.5000 
     35 C           0.9558  -20.4074  -41.6081 C.2       7 UNK         0.5000 
     36 O           1.1676  -21.6056  -41.4224 O.2       7 UNK        -0.5000 
     37 CA         -0.3285  -19.9768  -42.3381 C.3       7 UNK         0.1400 
     38 CB         -1.3817  -19.4826  -41.3356 C.3       7 UNK        -0.1800 
     39 N          -0.0853  -18.9555  -43.3583 N.am      7 UNK        -0.5000 
     40 C           0.6662  -19.1455  -44.4534 C.2       6 UNK         0.5000 
     41 O           1.2186  -20.2092  -44.7228 O.2       6 UNK        -0.5000 
     42 CA          0.8933  -17.9342  -45.3739 C.3       6 UNK         0.1400 
     43 CB         -0.3183  -17.6846  -46.2862 C.3       6 UNK        -0.1800 
     44 N           1.1975  -16.7211  -44.6211 N.am      6 UNK        -0.5000 
     45 C           2.2555  -16.5589  -43.8153 C.2       5 UNK         0.5000 
     46 O           3.1416  -17.3993  -43.6646 O.2       5 UNK        -0.5000 
     47 CA          2.2906  -15.2601  -42.9939 C.3       5 UNK         0.1400 
     48 CB          2.7916  -14.0820  -43.8451 C.3       5 UNK        -0.1800 
     49 N           0.9770  -14.9442  -42.4287 N.am      5 UNK        -0.5000 
     50 C           0.3836  -15.6492  -41.4546 C.2       4 UNK         0.5000 
     51 O           0.8983  -16.6247  -40.9081 O.2       4 UNK        -0.5000 
     52 CA         -1.0335  -15.2081  -41.0417 C.3       4 UNK         0.1400 
     53 CB         -0.9670  -14.0526  -40.0320 C.3       4 UNK        -0.1800 
     54 N          -1.8595  -14.8079  -42.1822 N.am      4 UNK        -0.5000 
     55 C          -2.3083  -15.6518  -43.1222 C.2       3 UNK         0.5000 
     56 O          -2.0948  -16.8624  -43.1109 O.2       3 UNK        -0.5000 
     57 CA         -3.0692  -15.0288  -44.3096 C.3       3 UNK         0.1400 
     58 CB         -4.5574  -14.8586  -43.9727 C.3       3 UNK        -0.1800 
     59 N          -2.5131  -13.7471  -44.7623 N.am      3 UNK        -0.5000 
     60 C          -1.2493  -13.5845  -45.1751 C.2       2 UNK         0.5000 
     61 O          -0.4148  -14.4917  -45.1607 O.2       2 UNK        -0.5000 
     62 CA         -0.8263  -12.1745  -45.6308 C.3       2 UNK         0.1400 
     63 CB         -0.6083  -11.2627  -44.4128 C.3       2 UNK        -0.1800 
     64 N           0.4232  -12.2422  -46.3899 N.am      2 UNK        -0.5000 
     65 C           0.5322  -12.7611  -47.6212 C.2       1 UNK         0.5000 
     66 O          -0.4367  -12.9798  -48.3502 O.2       1 UNK        -0.5000 
     67 C          -0.6379  -22.5083  -47.4370 C.2       11 UNK         0.5000 
     68 O          -1.2451  -21.8338  -46.6006 O.2       11 UNK        -0.5000 
     69 N          -1.2442  -23.3150  -48.3205 N.am      12 UNK        -0.5000 
     70 CA         -2.6930  -23.5543  -48.3769 C.3       12 UNK         0.1400 
     71 CB         -2.9967  -24.6165  -49.4417 C.3       12 UNK        -0.1800 
     72 C          -3.5271  -22.2875  -48.6444 C.2       12 UNK         0.5000 
     73 O          -4.6716  -22.2117  -48.1951 O.2       12 UNK        -0.5000 
     74 N          -2.9185  -21.3007  -49.3187 N.am      13 UNK        -0.5000 
     75 CA         -3.4595  -19.9789  -49.6466 C.3       13 UNK         0.1400 
     76 CB         -2.3517  -19.1542  -50.3180 C.3       13 UNK        -0.1800 
     77 C          -4.0437  -19.1922  -48.4553 C.2       13 UNK         0.5000 
     78 O          -4.8962  -18.3311  -48.6685 O.2       13 UNK        -0.5000 
     79 N          -3.6144  -19.5210  -47.2277 N.am      14 UNK        -0.5000 
     80 CA         -4.1573  -18.9970  -45.9737 C.3       14 UNK         0.1400 
     81 CB         -3.3472  -19.5789  -44.8080 C.3       14 UNK        -0.1800 
     82 C          -5.6553  -19.3002  -45.7632 C.2       14 UNK         0.5000 
     83 O          -6.3348  -18.5158  -45.1001 O.2       14 UNK        -0.5000 
     84 N          -6.1351  -20.4218  -46.3192 N.am      15 UNK        -0.5000 
     85 CA         -7.5236  -20.8732  -46.2215 C.3       15 UNK         0.1400 
     86 CB         -7.5720  -22.1674  -45.3940 C.3       15 UNK        -0.1800 
     87 C          -8.1536  -21.0976  -47.6055 C.2       15 UNK         0.5000 
     88 O          -9.3306  -20.7862  -47.7894 O.2       15 UNK        -0.5000 
     89 N          -7.3750  -21.6365  -48.5530 N.am      16 UNK        -0.5000 
     90 CA         -7.8315  -22.0061  -49.8938 C.3       16 UNK         0.1400 
     91 CB         -6.9345  -23.1386  -50.4156 C.3       16 UNK        -0.1800 
     92 C          -7.8570  -20.8255  -50.8844 C.2       16 UNK         0.5000 
     93 O          -8.4480  -20.9596  -51.9570 O.2       16 UNK        -0.5000 
     94 N          -7.2310  -19.6959  -50.5192 N.am      17 UNK        -0.5000 
     95 CA         -7.0989  -18.4688  -51.3089 C.3       17 UNK         0.1400 
     96 CB         -8.4655  -17.7590  -51.4440 C.3       17 UNK        -0.1800 
     97 C          -6.3852  -18.7323  -52.6515 C.2       17 UNK         0.5000 
     98 O          -5.1782  -18.9714  -52.6492 O.2       17 UNK        -0.5000 
     99 N          -7.1318  -18.6802  -53.7616 N.am      18 UNK        -0.5000 
    100 CA        -6.6340  -18.9332  -55.1136 C.3       18 UNK         0.1400 
    101 CB        -7.5428  -18.2019  -56.1145 C.3       18 UNK        -0.1800 
    102 C         -6.5444  -20.4315  -55.4660 C.2       18 UNK         0.5000 
    103 O         -5.8671  -20.7729  -56.4375 O.2       18 UNK        -0.5000 
    104 N         -7.2271  -21.2998  -54.7074 N.am      19 UNK        -0.5000 
    105 CA        -7.1762  -22.7518  -54.8804 C.3       19 UNK         0.1400 
    106 CB        -8.4963  -23.3622  -54.3805 C.3       19 UNK        -0.1800 
    107 C         -5.9689  -23.3597  -54.1422 C.2       19 UNK         0.5000 
    108 O         -5.3772  -22.7062  -53.2810 O.2       19 UNK        -0.5000 
    109 N         -5.6501  -24.6176  -54.4812 N.am      20 UNK        -0.5000 
    110 CA        -4.5454  -25.4198  -53.9416 C.3       20 UNK         0.1400 
    111 CB        -4.7976  -25.7598  -52.4548 C.3       20 UNK        -0.1800 
    112 C         -3.1713  -24.7712  -54.2244 C.2       20 UNK         0.5000 
    113 O         -2.9690  -24.2526  -55.3261 O.2       20 UNK        -0.5000 
    114 N         -2.2453  -24.8168  -53.2558 N.am      21 UNK        -0.5000 
    115 CA        -0.9395  -24.1588  -53.3243 C.3       21 UNK         0.1400 
    116 CB        -0.0897  -24.5594  -52.1071 C.3       21 UNK        -0.1800 
    117 C         -1.1053  -22.6304  -53.4103 C.2       21 UNK         0.5000 
    118 O         -1.6363  -22.0266  -52.4770 O.2       21 UNK        -0.5000 
    119 N         -0.6653  -22.0587  -54.5375 N.am      22 UNK        -0.5000 
    120 CA        -0.8881  -20.6633  -54.9537 C.3       22 UNK         0.1400 
    121 C         -2.3195  -20.3720  -55.5042 C.2       22 UNK         0.5000 
    122 N         -3.1396  -21.3753  -55.7894 N.am      22 UNK        -0.7600 
    123 O         -2.6846  -19.2194  -55.7180 O.2       22 UNK        -0.5000 
    124 C124       -0.4069  -19.6177  -53.9040 C.3       23 UNK        -0.0398 
    125 S125        0.5050  -18.2309  -54.6613 S.3       23 UNK        -0.2404 
    126 C126        2.2306  -18.7232  -54.3516 C.3       23 UNK        -0.0205 
    127 H127        4.3705  -10.1482  -46.8156 H         1 UNK         0.0600 
    128 H128        5.8424  -10.9408  -47.3842 H         1 UNK         0.0600 
    129 H129        5.2728  -11.2133  -45.7339 H         1 UNK         0.0600 
    130 H130        2.5138  -11.1164  -47.5966 H         1 UNK         0.3000 
    131 H131        2.2151  -14.0106  -47.5535 H         1 UNK         0.0600 
    132 H132        1.5120  -12.6696  -50.1949 H         1 UNK         0.0800 
    133 H133        3.1339  -13.2195  -49.9244 H         1 UNK         0.0800 
    134 H134        3.7813  -15.9056  -49.3779 H         1 UNK         0.0800 
    135 H135        3.8384  -15.2300  -50.9911 H         1 UNK         0.0800 
    136 H136        2.5700  -16.4648  -52.8796 H         1 UNK         0.1150 
    137 H137        2.7344  -20.7334  -52.5719 H         1 UNK         0.1150 
    138 H138        3.6110  -18.2920  -49.1511 H         1 UNK         0.1150 
    139 H139        2.9540  -21.7883  -50.4174 H         1 UNK         0.0800 
    140 H140        4.5539  -21.1610  -50.1121 H         1 UNK         0.0800 
    141 H141        0.9188  -20.9675  -49.1616 H         1 UNK         0.0800 
    142 H142        0.9195  -20.2275  -47.5825 H         1 UNK         0.0800 
    143 H143        1.2708  -23.2185  -48.1526 H         1 UNK         0.0600 
    144 H144        1.4993  -21.7281  -45.6172 H         1 UNK         0.3000 
    145 H145        1.2757  -23.5659  -43.5094 H         1 UNK         0.0600 
    146 H146        3.2063  -24.8764  -42.5958 H         1 UNK         0.0600 
    147 H147        2.2201  -25.8225  -43.6979 H         1 UNK         0.0600 
    148 H148        3.7675  -25.1897  -44.2383 H         1 UNK         0.0600 
    149 H149        2.5449  -21.8044  -43.2277 H         1 UNK         0.3000 
    150 H150        5.8015  -20.9756  -43.5759 H         1 UNK         0.0600 
    151 H151        5.4231  -20.3123  -45.9601 H         1 UNK         0.0600 
    152 H152        5.3615  -18.9221  -44.8871 H         1 UNK         0.0600 
    153 H153        3.8698  -19.6111  -45.5208 H         1 UNK         0.0600 
    154 H154        3.4295  -19.3573  -43.1635 H         1 UNK         0.3000 
    155 H155        2.9676  -20.2866  -39.7519 H         1 UNK         0.0600 
    156 H156        4.6870  -18.4738  -39.7038 H         1 UNK         0.0600 
    157 H157        3.0697  -17.8296  -39.4651 H         1 UNK         0.0600 
    158 H158        3.8690  -17.6484  -41.0249 H         1 UNK         0.0600 
    159 H159        1.5418  -18.4686  -41.4004 H         1 UNK         0.3000 
    160 H160       -0.7321  -20.8566  -42.8440 H         1 UNK         0.0600 
    161 H161       -1.0630  -18.5699  -40.8323 H         1 UNK         0.0600 
    162 H162       -1.5722  -20.2326  -40.5670 H         1 UNK         0.0600 
    163 H163       -2.3313  -19.2779  -41.8287 H         1 UNK         0.0600 
    164 H164       -0.5576  -18.0657  -43.2297 H         1 UNK         0.3000 
    165 H165        1.7540  -18.1585  -46.0075 H         1 UNK         0.0600 
    166 H166       -0.0952  -16.9221  -47.0331 H         1 UNK         0.0600 
    167 H167       -0.6095  -18.5897  -46.8198 H         1 UNK         0.0600 
    168 H168       -1.1851  -17.3471  -45.7189 H         1 UNK         0.0600 
    169 H169        0.5356  -15.9522  -44.7122 H         1 UNK         0.3000 
    170 H170        2.9908  -15.4037  -42.1681 H         1 UNK         0.0600 
    171 H171        3.7956  -14.2772  -44.2242 H         1 UNK         0.0600 
    172 H172        2.1507  -13.9024  -44.7074 H         1 UNK         0.0600 
    173 H173        2.8374  -13.1626  -43.2613 H         1 UNK         0.0600 
    174 H174        0.4582  -14.2021  -42.8730 H         1 UNK         0.3000 
    175 H175       -1.5165  -16.0576  -40.5541 H         1 UNK         0.0600 
    176 H176       -0.3703  -14.3294  -39.1617 H         1 UNK         0.0600 
    177 H177       -0.5174  -13.1597  -40.4681 H         1 UNK         0.0600 
    178 H178       -1.9609  -13.7867  -39.6716 H         1 UNK         0.0600 
    179 H179       -2.0754  -13.8262  -42.2718 H         1 UNK         0.3000 
    180 H180       -2.9923  -15.7278  -45.1446 H         1 UNK         0.0600 
    181 H181       -4.9968  -15.8074  -43.6606 H         1 UNK         0.0600 
    182 H182       -4.7092  -14.1431  -43.1638 H         1 UNK         0.0600 
    183 H183       -5.1211  -14.5125  -44.8392 H         1 UNK         0.0600 
    184 H184       -3.1458  -12.9602  -44.7836 H         1 UNK         0.3000 
    185 H185       -1.6115  -11.7545  -46.2627 H         1 UNK         0.0600 
    186 H186       -1.5252  -11.1529  -43.8327 H         1 UNK         0.0600 
    187 H187        0.1584  -11.6570  -43.7443 H         1 UNK         0.0600 
    188 H188       -0.3010  -10.2629  -44.7206 H         1 UNK         0.0600 
    189 H189        1.2709  -12.1095  -45.8593 H         1 UNK         0.3000 
    190 H190       -0.6787  -23.8462  -48.9659 H         1 UNK         0.3000 
    191 H191       -2.9980  -23.9466  -47.4046 H         1 UNK         0.0600 
    192 H192       -2.7792  -24.2462  -50.4432 H         1 UNK         0.0600 
    193 H193       -4.0513  -24.8944  -49.4187 H         1 UNK         0.0600 
    194 H194       -2.4180  -25.5258  -49.2788 H         1 UNK         0.0600 
    195 H195       -1.9946  -21.4915  -49.6768 H         1 UNK         0.3000 
    196 H196       -4.2648  -20.1340  -50.3663 H         1 UNK         0.0600 
    197 H197       -2.7293  -18.1850  -50.6467 H         1 UNK         0.0600 
    198 H198       -1.9654  -19.6647  -51.1983 H         1 UNK         0.0600 
    199 H199       -1.5158  -18.9726  -49.6409 H         1 UNK         0.0600 
    200 H200       -2.9167  -20.2497  -47.1431 H         1 UNK         0.3000 
    201 H201       -4.0304  -17.9129  -45.9812 H         1 UNK         0.0600 
    202 H202       -2.2877  -19.3628  -44.9196 H         1 UNK         0.0600 
    203 H203       -3.4570  -20.6620  -44.7397 H         1 UNK         0.0600 
    204 H204       -3.6694  -19.1515  -43.8579 H         1 UNK         0.0600 
    205 H205       -5.5037  -21.0022  -46.8615 H         1 UNK         0.3000 
    206 H206       -8.1357  -20.1253  -45.7133 H         1 UNK         0.0600 
    207 H207       -7.1987  -22.0008  -44.3834 H         1 UNK         0.0600 
    208 H208       -8.5938  -22.5388  -45.3063 H         1 UNK         0.0600 
    209 H209       -6.9711  -22.9575  -45.8464 H         1 UNK         0.0600 
    210 H210       -6.4099  -21.8773  -48.3368 H         1 UNK         0.3000 
    211 H211       -8.8502  -22.3933  -49.8237 H         1 UNK         0.0600 
    212 H212       -7.3122  -23.5348  -51.3575 H         1 UNK         0.0600 
    213 H213       -6.8906  -23.9696  -49.7115 H         1 UNK         0.0600 
    214 H214       -5.9150  -22.7938  -50.5915 H         1 UNK         0.0600 
    215 H215       -6.7653  -19.6849  -49.6230 H         1 UNK         0.3000 
    216 H216       -6.4452  -17.8020  -50.7460 H         1 UNK         0.0600 
    217 H217       -8.3690  -16.8247  -51.9985 H         1 UNK         0.0600 
    218 H218       -8.8675  -17.5075  -50.4625 H         1 UNK         0.0600 
    219 H219       -9.2090  -18.3731  -51.9528 H         1 UNK         0.0600 
    220 H220       -8.1214  -18.5034  -53.6681 H         1 UNK         0.3000 
    221 H221       -5.6277  -18.5179  -55.2040 H         1 UNK         0.0600 
    222 H222       -8.5677  -18.5729  -56.0732 H         1 UNK         0.0600 
    223 H223       -7.5643  -17.1298  -55.9179 H         1 UNK         0.0600 
    224 H224       -7.1861  -18.3359  -57.1367 H         1 UNK         0.0600 
    225 H225       -7.6913  -20.9670  -53.8688 H         1 UNK         0.3000 
    226 H226       -7.0780  -22.9844  -55.9430 H         1 UNK         0.0600 
    227 H227       -9.3516  -22.9259  -54.8967 H         1 UNK         0.0600 
    228 H228       -8.5259  -24.4375  -54.5593 H         1 UNK         0.0600 
    229 H229       -8.6381  -23.2069  -53.3118 H         1 UNK         0.0600 
    230 H230       -6.1787  -25.0606  -55.2193 H         1 UNK         0.3000 
    231 H231       -4.5512  -26.3583  -54.4974 H         1 UNK         0.0600 
    232 H232       -5.7801  -26.2125  -52.3211 H         1 UNK         0.0600 
    233 H233       -4.7588  -24.8722  -51.8236 H         1 UNK         0.0600 
    234 H234       -4.0660  -26.4745  -52.0766 H         1 UNK         0.0600 
    235 H235       -2.4901  -25.2441  -52.3761 H         1 UNK         0.3000 
    236 H236       -0.4305  -24.5176  -54.2215 H         1 UNK         0.0600 
    237 H237        0.0302  -25.6412  -52.0462 H         1 UNK         0.0600 
    238 H238        0.9087  -24.1252  -52.1737 H         1 UNK         0.0600 
    239 H239       -0.5303  -24.2160  -51.1722 H         1 UNK         0.0600 
    240 H240       -0.2599  -22.6524  -55.2471 H         1 UNK         0.3000 
    241 H241       -0.2493  -20.5661  -55.8321 H         1 UNK         0.0600 
    242 H242       -2.8879  -22.3425  -55.6128 H         1 UNK         0.3800 
    243 H243       -4.0698  -21.1604  -56.1361 H         1 UNK         0.3800 
    244 H244       -1.2487  -19.2109  -53.3427 H         1 UNK         0.0800 
    245 H245        0.2329  -20.0843  -53.1561 H         1 UNK         0.0800 
    246 H246        2.3900  -19.7376  -54.7207 H         1 UNK         0.0800 
    247 H247        2.8902  -18.0792  -54.9348 H         1 UNK         0.0800 
@<TRIPOS>BOND
     1    1    2 1    
     2    1  127 1    
     3    1  128 1    
     4    1  129 1    
     5    2    3 2    
     6    2    4 am   BACKBONE|DICT|INTERRES
     7    4    5 1    
     8    4  130 1    
     9    5    6 1    
    10    5   65 1    
    11    5  131 1    
    12    6    7 1    
    13    6  132 1    
    14    6  133 1    
    15    7    8 1    
    16    8    9 1    
    17    8  134 1    
    18    8  135 1    
    19    9   10 ar   
    20    9   14 ar   
    21   10   11 ar   
    22   10  136 1    
    23   11   12 ar   
    24   11  126 1    
    25   12   13 ar   
    26   12  137 1    
    27   13   14 ar   
    28   13   15 1    
    29   14  138 1    
    30   15   16 1    
    31   15  139 1    
    32   15  140 1    
    33   16   17 1    
    34   17   18 1    
    35   17  141 1    
    36   17  142 1    
    37   18   19 1    
    38   18   67 1    
    39   18  143 1    
    40   19   20 am   BACKBONE|DICT|INTERRES
    41   19  144 1    
    42   20   21 2    
    43   20   22 1    
    44   22   23 1    
    45   22   24 1    
    46   22  145 1    
    47   23  146 1    
    48   23  147 1    
    49   23  148 1    
    50   24   25 am   BACKBONE|DICT|INTERRES
    51   24  149 1    
    52   25   26 2    
    53   25   27 1    
    54   27   28 1    
    55   27   29 1    
    56   27  150 1    
    57   28  151 1    
    58   28  152 1    
    59   28  153 1    
    60   29   30 am   BACKBONE|DICT|INTERRES
    61   29  154 1    
    62   30   31 2    
    63   30   32 1    
    64   32   33 1    
    65   32   34 1    
    66   32  155 1    
    67   33  156 1    
    68   33  157 1    
    69   33  158 1    
    70   34   35 am   BACKBONE|DICT|INTERRES
    71   34  159 1    
    72   35   36 2    
    73   35   37 1    
    74   37   38 1    
    75   37   39 1    
    76   37  160 1    
    77   38  161 1    
    78   38  162 1    
    79   38  163 1    
    80   39   40 am   BACKBONE|DICT|INTERRES
    81   39  164 1    
    82   40   41 2    
    83   40   42 1    
    84   42   43 1    
    85   42   44 1    
    86   42  165 1    
    87   43  166 1    
    88   43  167 1    
    89   43  168 1    
    90   44   45 am   BACKBONE|DICT|INTERRES
    91   44  169 1    
    92   45   46 2    
    93   45   47 1    
    94   47   48 1    
    95   47   49 1    
    96   47  170 1    
    97   48  171 1    
    98   48  172 1    
    99   48  173 1    
   100   49   50 am   BACKBONE|DICT|INTERRES
   101   49  174 1    
   102   50   51 2    
   103   50   52 1    
   104   52   53 1    
   105   52   54 1    
   106   52  175 1    
   107   53  176 1    
   108   53  177 1    
   109   53  178 1    
   110   54   55 am   BACKBONE|DICT|INTERRES
   111   54  179 1    
   112   55   56 2    
   113   55   57 1    
   114   57   58 1    
   115   57   59 1    
   116   57  180 1    
   117   58  181 1    
   118   58  182 1    
   119   58  183 1    
   120   59   60 am   BACKBONE|DICT|INTERRES
   121   59  184 1    
   122   60   61 2    
   123   60   62 1    
   124   62   63 1    
   125   62   64 1    
   126   62  185 1    
   127   63  186 1    
   128   63  187 1    
   129   63  188 1    
   130   64   65 am   BACKBONE|DICT|INTERRES
   131   64  189 1    
   132   65   66 2    
   133   67   68 2    
   134   67   69 am   BACKBONE|DICT|INTERRES
   135   69   70 1    
   136   69  190 1    
   137   70   71 1    
   138   70   72 1    
   139   70  191 1    
   140   71  192 1    
   141   71  193 1    
   142   71  194 1    
   143   72   73 2    
   144   72   74 am   BACKBONE|DICT|INTERRES
   145   74   75 1    
   146   74  195 1    
   147   75   76 1    
   148   75   77 1    
   149   75  196 1    
   150   76  197 1    
   151   76  198 1    
   152   76  199 1    
   153   77   78 2    
   154   77   79 am   BACKBONE|DICT|INTERRES
   155   79   80 1    
   156   79  200 1    
   157   80   81 1    
   158   80   82 1    
   159   80  201 1    
   160   81  202 1    
   161   81  203 1    
   162   81  204 1    
   163   82   83 2    
   164   82   84 am   BACKBONE|DICT|INTERRES
   165   84   85 1    
   166   84  205 1    
   167   85   86 1    
   168   85   87 1    
   169   85  206 1    
   170   86  207 1    
   171   86  208 1    
   172   86  209 1    
   173   87   88 2    
   174   87   89 am   BACKBONE|DICT|INTERRES
   175   89   90 1    
   176   89  210 1    
   177   90   91 1    
   178   90   92 1    
   179   90  211 1    
   180   91  212 1    
   181   91  213 1    
   182   91  214 1    
   183   92   93 2    
   184   92   94 am   BACKBONE|DICT|INTERRES
   185   94   95 1    
   186   94  215 1    
   187   95   96 1    
   188   95   97 1    
   189   95  216 1    
   190   96  217 1    
   191   96  218 1    
   192   96  219 1    
   193   97   98 2    
   194   97   99 am   BACKBONE|DICT|INTERRES
   195   99  100 1    
   196   99  220 1    
   197  100  101 1    
   198  100  102 1    
   199  100  221 1    
   200  101  222 1    
   201  101  223 1    
   202  101  224 1    
   203  102  103 2    
   204  102  104 am   BACKBONE|DICT|INTERRES
   205  104  105 1    
   206  104  225 1    
   207  105  106 1    
   208  105  107 1    
   209  105  226 1    
   210  106  227 1    
   211  106  228 1    
   212  106  229 1    
   213  107  108 2    
   214  107  109 am   BACKBONE|DICT|INTERRES
   215  109  110 1    
   216  109  230 1    
   217  110  111 1    
   218  110  112 1    
   219  110  231 1    
   220  111  232 1    
   221  111  233 1    
   222  111  234 1    
   223  112  113 2    
   224  112  114 am   BACKBONE|DICT|INTERRES
   225  114  115 1    
   226  114  235 1    
   227  115  116 1    
   228  115  117 1    
   229  115  236 1    
   230  116  237 1    
   231  116  238 1    
   232  116  239 1    
   233  117  118 2    
   234  117  119 am   BACKBONE|DICT|INTERRES
   235  119  120 1    
   236  119  240 1    
   237  120  121 1    
   238  120  124 1    
   239  120  241 1    
   240  121  122 am   BACKBONE|DICT|INTERRES
   241  121  123 2    
   242  122  242 1    
   243  122  243 1    
   244  124  125 1    
   245  124  244 1    
   246  124  245 1    
   247  125  126 1    
   248  126  246 1    
   249  126  247 1    
@<TRIPOS>SUBSTRUCTURE
     1 UNK         1 GROUP             0       ****    0 ROOT    
