@<TRIPOS>MOLECULE
3R540
247   249    1
SMALL
USER_CHARGES


@<TRIPOS>ATOM
      1 CA          6.1521  -10.4628  -47.3524 C.3       0 UNK        -0.1800 
      2 C           4.7524  -11.0062  -47.1091 C.2       0 UNK         0.5000 
      3 O           3.8412  -10.2373  -46.8033 O.2       0 UNK        -0.5000 
      4 N           4.5673  -12.3238  -47.2638 N.am      1 UNK        -0.5000 
      5 CA          3.2945  -13.0294  -47.0599 C.3       1 UNK         0.1400 
      6 C6          3.4555  -14.5686  -47.1149 C.3       23 UNK        -0.0398 
      7 S7          4.2818  -15.2157  -48.6153 S.3       23 UNK        -0.2404 
      8 C8          2.8860  -15.6394  -49.7114 C.3       23 UNK        -0.0205 
      9 C9          2.0214  -16.7642  -49.1633 C.ar      23 UNK        -0.0193 
     10 C10         0.8110  -16.4778  -48.5265 C.ar      23 UNK        -0.1150 
     11 C11         0.0038  -17.5091  -48.0391 C.ar      23 UNK        -0.0193 
     12 C12         0.4050  -18.8382  -48.2099 C.ar      23 UNK        -0.1150 
     13 C13         1.6145  -19.1359  -48.8461 C.ar      23 UNK        -0.0193 
     14 C14         2.4186  -18.0944  -49.3175 C.ar      23 UNK        -0.1150 
     15 C15         2.0423  -20.5781  -49.0667 C.3       23 UNK        -0.0205 
     16 S16         3.1865  -21.1820  -47.7821 S.3       23 UNK        -0.2404 
     17 C17         2.0761  -21.5810  -46.3889 C.3       23 UNK        -0.0398 
     18 CA          1.4950  -23.0191  -46.4809 C.3       11 UNK         0.1400 
     19 N           1.3039  -23.6415  -45.1705 N.am      11 UNK        -0.5000 
     20 C           1.1874  -24.9647  -44.9748 C.2       10 UNK         0.5000 
     21 O           1.3450  -25.8021  -45.8632 O.2       10 UNK        -0.5000 
     22 CA          0.8122  -25.4431  -43.5573 C.3       10 UNK         0.1400 
     23 CB          2.0744  -25.8215  -42.7677 C.3       10 UNK        -0.1800 
     24 N           0.0501  -24.4585  -42.7891 N.am      10 UNK        -0.5000 
     25 C          -1.1706  -24.0058  -43.1085 C.2       9 UNK         0.5000 
     26 O          -1.8219  -24.4126  -44.0686 O.2       9 UNK        -0.5000 
     27 CA         -1.7221  -22.8516  -42.2509 C.3       9 UNK         0.1400 
     28 CB         -2.5467  -23.3990  -41.0768 C.3       9 UNK        -0.1800 
     29 N          -0.6781  -21.9572  -41.7381 N.am      9 UNK        -0.5000 
     30 C           0.1701  -21.2562  -42.5022 C.2       8 UNK         0.5000 
     31 O           0.1870  -21.3113  -43.7362 O.2       8 UNK        -0.5000 
     32 CA          1.2170  -20.4055  -41.7589 C.3       8 UNK         0.1400 
     33 CB          2.5021  -21.2211  -41.5479 C.3       8 UNK        -0.1800 
     34 N           1.5454  -19.1882  -42.4991 N.am      8 UNK        -0.5000 
     35 C           0.6785  -18.1981  -42.7408 C.2       7 UNK         0.5000 
     36 O          -0.4541  -18.1470  -42.2488 O.2       7 UNK        -0.5000 
     37 CA          1.1438  -17.0959  -43.7068 C.3       7 UNK         0.1400 
     38 CB          1.6753  -17.6904  -45.0262 C.3       7 UNK        -0.1800 
     39 N           0.0012  -16.2236  -43.9535 N.am      7 UNK        -0.5000 
     40 C           0.0231  -14.9877  -44.4544 C.2       6 UNK         0.5000 
     41 O           1.0401  -14.4121  -44.8461 O.2       6 UNK        -0.5000 
     42 CA         -1.3281  -14.2638  -44.4809 C.3       6 UNK         0.1400 
     43 CB         -1.6035  -13.5955  -43.1199 C.3       6 UNK        -0.1800 
     44 N          -1.3246  -13.2619  -45.5394 N.am      6 UNK        -0.5000 
     45 C          -2.4102  -12.6570  -46.0375 C.2       5 UNK         0.5000 
     46 O          -3.5616  -12.9349  -45.6965 O.2       5 UNK        -0.5000 
     47 CA         -2.1456  -11.5279  -47.0558 C.3       5 UNK         0.1400 
     48 CB         -3.3873  -10.6628  -47.3560 C.3       5 UNK        -0.1800 
     49 N          -1.0086  -10.6938  -46.6535 N.am      5 UNK        -0.5000 
     50 C          -0.8869   -9.9506  -45.5422 C.2       4 UNK         0.5000 
     51 O          -1.7866   -9.7761  -44.7198 O.2       4 UNK        -0.5000 
     52 CA          0.4904   -9.3049  -45.2965 C.3       4 UNK         0.1400 
     53 CB          1.3500  -10.2207  -44.4110 C.3       4 UNK        -0.1800 
     54 N           1.2195   -9.0198  -46.5330 N.am      4 UNK        -0.5000 
     55 C           0.8780   -8.0761  -47.4219 C.2       3 UNK         0.5000 
     56 O          -0.0564   -7.2895  -47.2645 O.2       3 UNK        -0.5000 
     57 CA          1.7037   -8.0271  -48.7184 C.3       3 UNK         0.1400 
     58 CB          3.0109   -7.2463  -48.5109 C.3       3 UNK        -0.1800 
     59 N           2.0075   -9.3726  -49.2062 N.am      3 UNK        -0.5000 
     60 C           1.1388  -10.1526  -49.8653 C.2       2 UNK         0.5000 
     61 O           0.0056   -9.7953  -50.1867 O.2       2 UNK        -0.5000 
     62 CA          1.6061  -11.5788  -50.2090 C.3       2 UNK         0.1400 
     63 CB          2.2819  -11.6118  -51.5876 C.3       2 UNK        -0.1800 
     64 N           2.5281  -12.1220  -49.2124 N.am      2 UNK        -0.5000 
     65 C           2.1647  -12.5480  -47.9948 C.2       1 UNK         0.5000 
     66 O           1.0009  -12.5496  -47.5940 O.2       1 UNK        -0.5000 
     67 C           0.1681  -23.0433  -47.2586 C.2       11 UNK         0.5000 
     68 O           0.1284  -23.5505  -48.3772 O.2       11 UNK        -0.5000 
     69 N          -0.8992  -22.5196  -46.6364 N.am      12 UNK        -0.5000 
     70 CA         -2.2428  -22.4103  -47.2141 C.3       12 UNK         0.1400 
     71 CB         -3.1508  -21.6696  -46.2221 C.3       12 UNK        -0.1800 
     72 C          -2.8635  -23.7629  -47.6202 C.2       12 UNK         0.5000 
     73 O          -3.5817  -23.8300  -48.6173 O.2       12 UNK        -0.5000 
     74 N          -2.5445  -24.8166  -46.8589 N.am      13 UNK        -0.5000 
     75 CA         -2.9796  -26.1953  -47.0758 C.3       13 UNK         0.1400 
     76 CB         -2.7331  -26.9932  -45.7847 C.3       13 UNK        -0.1800 
     77 C          -2.3296  -26.9082  -48.2821 C.2       13 UNK         0.5000 
     78 O          -2.7267  -28.0385  -48.5679 O.2       13 UNK        -0.5000 
     79 N          -1.3554  -26.2796  -48.9604 N.am      14 UNK        -0.5000 
     80 CA         -0.6503  -26.8359  -50.1208 C.3       14 UNK         0.1400 
     81 CB          0.4240  -25.8472  -50.5932 C.3       14 UNK        -0.1800 
     82 C          -1.5875  -27.2077  -51.2880 C.2       14 UNK         0.5000 
     83 O          -2.5601  -26.4939  -51.5521 O.2       14 UNK        -0.5000 
     84 N          -1.2663  -28.3247  -51.9572 N.am      15 UNK        -0.5000 
     85 CA         -2.0782  -29.0115  -52.9672 C.3       15 UNK         0.1400 
     86 CB         -2.2261  -28.1521  -54.2434 C.3       15 UNK        -0.1800 
     87 C          -3.4112  -29.4854  -52.3490 C.2       15 UNK         0.5000 
     88 O          -3.3827  -30.1789  -51.3314 O.2       15 UNK        -0.5000 
     89 N          -4.5459  -29.0856  -52.9337 N.am      16 UNK        -0.5000 
     90 CA         -5.8932  -29.3092  -52.4035 C.3       16 UNK         0.1400 
     91 CB         -6.8255  -29.6762  -53.5729 C.3       16 UNK        -0.1800 
     92 C          -6.3782  -28.0671  -51.6249 C.2       16 UNK         0.5000 
     93 O          -7.5256  -27.6491  -51.7877 O.2       16 UNK        -0.5000 
     94 N          -5.4734  -27.4721  -50.8312 N.am      17 UNK        -0.5000 
     95 CA         -5.5929  -26.1693  -50.1659 C.3       17 UNK         0.1400 
     96 CB         -6.6572  -26.1982  -49.0508 C.3       17 UNK        -0.1800 
     97 C          -5.7866  -25.0225  -51.1787 C.2       17 UNK         0.5000 
     98 O          -6.6225  -24.1400  -50.9804 O.2       17 UNK        -0.5000 
     99 N          -5.0147  -25.0802  -52.2717 N.am      18 UNK        -0.5000 
    100 CA        -5.0721  -24.1293  -53.3810 C.3       18 UNK         0.1400 
    101 CB        -4.4412  -24.7704  -54.6256 C.3       18 UNK        -0.1800 
    102 C         -4.3700  -22.8042  -53.0448 C.2       18 UNK         0.5000 
    103 O         -4.7780  -21.7535  -53.5409 O.2       18 UNK        -0.5000 
    104 N         -3.3370  -22.8743  -52.1939 N.am      19 UNK        -0.5000 
    105 CA        -2.5512  -21.7251  -51.7454 C.3       19 UNK         0.1400 
    106 CB        -1.2747  -22.2257  -51.0626 C.3       19 UNK        -0.1800 
    107 C         -3.3299  -20.7648  -50.8283 C.2       19 UNK         0.5000 
    108 O         -2.9693  -19.5922  -50.7557 O.2       19 UNK        -0.5000 
    109 N         -4.4083  -21.2530  -50.1940 N.am      20 UNK        -0.5000 
    110 CA        -5.3255  -20.5062  -49.3234 C.3       20 UNK         0.1400 
    111 CB        -6.3646  -21.4787  -48.7452 C.3       20 UNK        -0.1800 
    112 C         -6.0280  -19.3047  -49.9933 C.2       20 UNK         0.5000 
    113 O         -6.5720  -18.4517  -49.2893 O.2       20 UNK        -0.5000 
    114 N         -5.9549  -19.2191  -51.3303 N.am      21 UNK        -0.5000 
    115 CA        -6.3285  -18.0637  -52.1504 C.3       21 UNK         0.1400 
    116 CB        -6.1178  -18.4270  -53.6283 C.3       21 UNK        -0.1800 
    117 C         -5.5744  -16.7592  -51.7992 C.2       21 UNK         0.5000 
    118 O         -6.0196  -15.6851  -52.2061 O.2       21 UNK        -0.5000 
    119 N         -4.4766  -16.8622  -51.0349 N.am      22 UNK        -0.5000 
    120 CA        -3.7876  -15.7456  -50.3695 C.3       22 UNK         0.1400 
    121 C         -4.6623  -14.9114  -49.3836 C.2       22 UNK         0.5000 
    122 N         -5.7558  -15.4453  -48.8486 N.am      22 UNK        -0.7600 
    123 O         -4.3417  -13.7584  -49.1114 O.2       22 UNK        -0.5000 
    124 C124       -2.4819  -16.2215  -49.6814 C.3       23 UNK        -0.0398 
    125 S125       -2.7513  -17.4478  -48.3470 S.3       23 UNK        -0.2404 
    126 C126       -1.2881  -17.1817  -47.3064 C.3       23 UNK        -0.0205 
    127 H127        6.5304   -9.9870  -46.4478 H         1 UNK         0.0600 
    128 H128        6.1311   -9.7175  -48.1475 H         1 UNK         0.0600 
    129 H129        6.8485  -11.2504  -47.6409 H         1 UNK         0.0600 
    130 H130        5.3465  -12.9078  -47.5341 H         1 UNK         0.3000 
    131 H131        2.9676  -12.7830  -46.0478 H         1 UNK         0.0600 
    132 H132        4.0521  -14.8881  -46.2597 H         1 UNK         0.0800 
    133 H133        2.4925  -15.0557  -46.9772 H         1 UNK         0.0800 
    134 H134        2.2782  -14.7568  -49.9074 H         1 UNK         0.0800 
    135 H135        3.2884  -15.9388  -50.6802 H         1 UNK         0.0800 
    136 H136        0.5015  -15.4493  -48.4011 H         1 UNK         0.1150 
    137 H137       -0.2266  -19.6370  -47.8473 H         1 UNK         0.1150 
    138 H138        3.3524  -18.3196  -49.8135 H         1 UNK         0.1150 
    139 H139        1.1707  -21.2251  -49.1389 H         1 UNK         0.0800 
    140 H140        2.5428  -20.6571  -50.0329 H         1 UNK         0.0800 
    141 H141        1.3040  -20.8173  -46.2857 H         1 UNK         0.0800 
    142 H142        2.6840  -21.4905  -45.4876 H         1 UNK         0.0800 
    143 H143        2.2085  -23.6397  -47.0283 H         1 UNK         0.0600 
    144 H144        1.0986  -23.0103  -44.4052 H         1 UNK         0.3000 
    145 H145        0.1925  -26.3358  -43.6652 H         1 UNK         0.0600 
    146 H146        1.8203  -26.2381  -41.7928 H         1 UNK         0.0600 
    147 H147        2.6568  -26.5751  -43.2995 H         1 UNK         0.0600 
    148 H148        2.7222  -24.9587  -42.6070 H         1 UNK         0.0600 
    149 H149        0.5079  -24.0620  -41.9821 H         1 UNK         0.3000 
    150 H150       -2.3827  -22.2584  -42.8862 H         1 UNK         0.0600 
    151 H151       -1.9313  -23.9776  -40.3868 H         1 UNK         0.0600 
    152 H152       -3.3450  -24.0523  -41.4319 H         1 UNK         0.0600 
    153 H153       -3.0161  -22.5920  -40.5139 H         1 UNK         0.0600 
    154 H154       -0.6205  -21.8671  -40.7338 H         1 UNK         0.3000 
    155 H155        0.8159  -20.1178  -40.7848 H         1 UNK         0.0600 
    156 H156        2.9445  -21.5295  -42.4963 H         1 UNK         0.0600 
    157 H157        2.3036  -22.1244  -40.9697 H         1 UNK         0.0600 
    158 H158        3.2491  -20.6458  -41.0007 H         1 UNK         0.0600 
    159 H159        2.4445  -19.1718  -42.9566 H         1 UNK         0.3000 
    160 H160        1.9306  -16.5186  -43.2176 H         1 UNK         0.0600 
    161 H161        1.8697  -16.9194  -45.7687 H         1 UNK         0.0600 
    162 H162        0.9649  -18.3971  -45.4543 H         1 UNK         0.0600 
    163 H163        2.6135  -18.2242  -44.8742 H         1 UNK         0.0600 
    164 H164       -0.8618  -16.6008  -43.5788 H         1 UNK         0.3000 
    165 H165       -2.1095  -14.9967  -44.6937 H         1 UNK         0.0600 
    166 H166       -2.5879  -13.1281  -43.0948 H         1 UNK         0.0600 
    167 H167       -0.8636  -12.8253  -42.8975 H         1 UNK         0.0600 
    168 H168       -1.5739  -14.3249  -42.3095 H         1 UNK         0.0600 
    169 H169       -0.4060  -13.0214  -45.8998 H         1 UNK         0.3000 
    170 H170       -1.8535  -12.0182  -47.9858 H         1 UNK         0.0600 
    171 H171       -4.1892  -11.2688  -47.7790 H         1 UNK         0.0600 
    172 H172       -3.7796  -10.1854  -46.4579 H         1 UNK         0.0600 
    173 H173       -3.1556   -9.8810  -48.0794 H         1 UNK         0.0600 
    174 H174       -0.1735  -10.8290  -47.2097 H         1 UNK         0.3000 
    175 H175        0.3310   -8.3632  -44.7673 H         1 UNK         0.0600 
    176 H176        2.3177   -9.7678  -44.1947 H         1 UNK         0.0600 
    177 H177        0.8590  -10.4145  -43.4565 H         1 UNK         0.0600 
    178 H178        1.5301  -11.1851  -44.8873 H         1 UNK         0.0600 
    179 H179        2.0538   -9.5737  -46.7085 H         1 UNK         0.3000 
    180 H180        1.1147   -7.5023  -49.4738 H         1 UNK         0.0600 
    181 H181        3.6508   -7.7140  -47.7622 H         1 UNK         0.0600 
    182 H182        2.8062   -6.2286  -48.1763 H         1 UNK         0.0600 
    183 H183        3.5783   -7.1750  -49.4390 H         1 UNK         0.0600 
    184 H184        2.8993   -9.7606  -48.9338 H         1 UNK         0.3000 
    185 H185        0.7218  -12.2189  -50.2478 H         1 UNK         0.0600 
    186 H186        2.5588  -12.6288  -51.8662 H         1 UNK         0.0600 
    187 H187        1.6103  -11.2354  -52.3603 H         1 UNK         0.0600 
    188 H188        3.1842  -10.9995  -51.6097 H         1 UNK         0.0600 
    189 H189        3.5058  -12.1594  -49.4619 H         1 UNK         0.3000 
    190 H190       -0.7780  -22.1515  -45.7014 H         1 UNK         0.3000 
    191 H191       -2.1626  -21.8031  -48.1174 H         1 UNK         0.0600 
    192 H192       -3.2207  -22.1986  -45.2712 H         1 UNK         0.0600 
    193 H193       -4.1631  -21.5699  -46.6132 H         1 UNK         0.0600 
    194 H194       -2.7793  -20.6641  -46.0224 H         1 UNK         0.0600 
    195 H195       -2.0057  -24.6485  -46.0146 H         1 UNK         0.3000 
    196 H196       -4.0555  -26.1801  -47.2593 H         1 UNK         0.0600 
    197 H197       -3.0652  -28.0271  -45.8861 H         1 UNK         0.0600 
    198 H198       -3.2798  -26.5629  -44.9456 H         1 UNK         0.0600 
    199 H199       -1.6744  -27.0109  -45.5224 H         1 UNK         0.0600 
    200 H200       -1.0818  -25.3472  -48.6740 H         1 UNK         0.3000 
    201 H201       -0.1493  -27.7444  -49.7809 H         1 UNK         0.0600 
    202 H202        0.9735  -26.2411  -51.4491 H         1 UNK         0.0600 
    203 H203       -0.0141  -24.8963  -50.8941 H         1 UNK         0.0600 
    204 H204        1.1510  -25.6485  -49.8056 H         1 UNK         0.0600 
    205 H205       -0.4536  -28.8401  -51.6496 H         1 UNK         0.3000 
    206 H206       -1.5323  -29.9153  -53.2415 H         1 UNK         0.0600 
    207 H207       -1.2495  -27.8575  -54.6275 H         1 UNK         0.0600 
    208 H208       -2.7253  -28.7091  -55.0372 H         1 UNK         0.0600 
    209 H209       -2.7961  -27.2412  -54.0668 H         1 UNK         0.0600 
    210 H210       -4.4823  -28.4986  -53.7528 H         1 UNK         0.3000 
    211 H211       -5.8931  -30.1471  -51.7034 H         1 UNK         0.0600 
    212 H212       -6.9094  -28.8608  -54.2924 H         1 UNK         0.0600 
    213 H213       -7.8302  -29.9075  -53.2169 H         1 UNK         0.0600 
    214 H214       -6.4619  -30.5559  -54.1042 H         1 UNK         0.0600 
    215 H215       -4.5550  -27.8931  -50.7763 H         1 UNK         0.3000 
    216 H216       -4.6302  -25.9839  -49.6948 H         1 UNK         0.0600 
    217 H217       -6.6443  -25.2681  -48.4811 H         1 UNK         0.0600 
    218 H218       -6.4699  -27.0110  -48.3492 H         1 UNK         0.0600 
    219 H219       -7.6636  -26.3228  -49.4509 H         1 UNK         0.0600 
    220 H220       -4.2876  -25.7878  -52.3018 H         1 UNK         0.3000 
    221 H221       -6.1191  -23.9106  -53.6013 H         1 UNK         0.0600 
    222 H222       -3.3793  -24.9713  -54.4791 H         1 UNK         0.0600 
    223 H223       -4.9321  -25.7101  -54.8796 H         1 UNK         0.0600 
    224 H224       -4.5324  -24.1117  -55.4901 H         1 UNK         0.0600 
    225 H225       -3.0823  -23.7778  -51.8188 H         1 UNK         0.3000 
    226 H226       -2.2567  -21.1514  -52.6267 H         1 UNK         0.0600 
    227 H227       -0.7124  -21.4024  -50.6209 H         1 UNK         0.0600 
    228 H228       -1.5060  -22.9354  -50.2702 H         1 UNK         0.0600 
    229 H229       -0.6175  -22.7219  -51.7763 H         1 UNK         0.0600 
    230 H230       -4.6101  -22.2375  -50.3047 H         1 UNK         0.3000 
    231 H231       -4.7315  -20.1052  -48.5003 H         1 UNK         0.0600 
    232 H232       -7.0132  -21.8787  -49.5252 H         1 UNK         0.0600 
    233 H233       -7.0016  -20.9805  -48.0134 H         1 UNK         0.0600 
    234 H234       -5.8899  -22.3209  -48.2421 H         1 UNK         0.0600 
    235 H235       -5.4906  -19.9725  -51.8189 H         1 UNK         0.3000 
    236 H236       -7.3914  -17.8753  -51.9883 H         1 UNK         0.0600 
    237 H237       -6.4166  -17.6064  -54.2818 H         1 UNK         0.0600 
    238 H238       -5.0716  -18.6527  -53.8393 H         1 UNK         0.0600 
    239 H239       -6.7106  -19.2978  -53.9095 H         1 UNK         0.0600 
    240 H240       -4.1476  -17.7868  -50.7799 H         1 UNK         0.3000 
    241 H241       -3.4976  -15.0552  -51.1634 H         1 UNK         0.0600 
    242 H242       -6.0106  -16.4065  -49.0427 H         1 UNK         0.3800 
    243 H243       -6.3136  -14.8971  -48.2140 H         1 UNK         0.3800 
    244 H244       -1.9390  -15.3642  -49.2797 H         1 UNK         0.0800 
    245 H245       -1.8189  -16.6723  -50.4213 H         1 UNK         0.0800 
    246 H246       -1.2824  -16.1488  -46.9569 H         1 UNK         0.0800 
    247 H247       -1.3689  -17.8064  -46.4157 H         1 UNK         0.0800 
@<TRIPOS>BOND
     1    1    2 1    
     2    1  127 1    
     3    1  128 1    
     4    1  129 1    
     5    2    3 2    
     6    2    4 am   BACKBONE|DICT|INTERRES
     7    4    5 1    
     8    4  130 1    
     9    5    6 1    
    10    5   65 1    
    11    5  131 1    
    12    6    7 1    
    13    6  132 1    
    14    6  133 1    
    15    7    8 1    
    16    8    9 1    
    17    8  134 1    
    18    8  135 1    
    19    9   10 ar   
    20    9   14 ar   
    21   10   11 ar   
    22   10  136 1    
    23   11   12 ar   
    24   11  126 1    
    25   12   13 ar   
    26   12  137 1    
    27   13   14 ar   
    28   13   15 1    
    29   14  138 1    
    30   15   16 1    
    31   15  139 1    
    32   15  140 1    
    33   16   17 1    
    34   17   18 1    
    35   17  141 1    
    36   17  142 1    
    37   18   19 1    
    38   18   67 1    
    39   18  143 1    
    40   19   20 am   BACKBONE|DICT|INTERRES
    41   19  144 1    
    42   20   21 2    
    43   20   22 1    
    44   22   23 1    
    45   22   24 1    
    46   22  145 1    
    47   23  146 1    
    48   23  147 1    
    49   23  148 1    
    50   24   25 am   BACKBONE|DICT|INTERRES
    51   24  149 1    
    52   25   26 2    
    53   25   27 1    
    54   27   28 1    
    55   27   29 1    
    56   27  150 1    
    57   28  151 1    
    58   28  152 1    
    59   28  153 1    
    60   29   30 am   BACKBONE|DICT|INTERRES
    61   29  154 1    
    62   30   31 2    
    63   30   32 1    
    64   32   33 1    
    65   32   34 1    
    66   32  155 1    
    67   33  156 1    
    68   33  157 1    
    69   33  158 1    
    70   34   35 am   BACKBONE|DICT|INTERRES
    71   34  159 1    
    72   35   36 2    
    73   35   37 1    
    74   37   38 1    
    75   37   39 1    
    76   37  160 1    
    77   38  161 1    
    78   38  162 1    
    79   38  163 1    
    80   39   40 am   BACKBONE|DICT|INTERRES
    81   39  164 1    
    82   40   41 2    
    83   40   42 1    
    84   42   43 1    
    85   42   44 1    
    86   42  165 1    
    87   43  166 1    
    88   43  167 1    
    89   43  168 1    
    90   44   45 am   BACKBONE|DICT|INTERRES
    91   44  169 1    
    92   45   46 2    
    93   45   47 1    
    94   47   48 1    
    95   47   49 1    
    96   47  170 1    
    97   48  171 1    
    98   48  172 1    
    99   48  173 1    
   100   49   50 am   BACKBONE|DICT|INTERRES
   101   49  174 1    
   102   50   51 2    
   103   50   52 1    
   104   52   53 1    
   105   52   54 1    
   106   52  175 1    
   107   53  176 1    
   108   53  177 1    
   109   53  178 1    
   110   54   55 am   BACKBONE|DICT|INTERRES
   111   54  179 1    
   112   55   56 2    
   113   55   57 1    
   114   57   58 1    
   115   57   59 1    
   116   57  180 1    
   117   58  181 1    
   118   58  182 1    
   119   58  183 1    
   120   59   60 am   BACKBONE|DICT|INTERRES
   121   59  184 1    
   122   60   61 2    
   123   60   62 1    
   124   62   63 1    
   125   62   64 1    
   126   62  185 1    
   127   63  186 1    
   128   63  187 1    
   129   63  188 1    
   130   64   65 am   BACKBONE|DICT|INTERRES
   131   64  189 1    
   132   65   66 2    
   133   67   68 2    
   134   67   69 am   BACKBONE|DICT|INTERRES
   135   69   70 1    
   136   69  190 1    
   137   70   71 1    
   138   70   72 1    
   139   70  191 1    
   140   71  192 1    
   141   71  193 1    
   142   71  194 1    
   143   72   73 2    
   144   72   74 am   BACKBONE|DICT|INTERRES
   145   74   75 1    
   146   74  195 1    
   147   75   76 1    
   148   75   77 1    
   149   75  196 1    
   150   76  197 1    
   151   76  198 1    
   152   76  199 1    
   153   77   78 2    
   154   77   79 am   BACKBONE|DICT|INTERRES
   155   79   80 1    
   156   79  200 1    
   157   80   81 1    
   158   80   82 1    
   159   80  201 1    
   160   81  202 1    
   161   81  203 1    
   162   81  204 1    
   163   82   83 2    
   164   82   84 am   BACKBONE|DICT|INTERRES
   165   84   85 1    
   166   84  205 1    
   167   85   86 1    
   168   85   87 1    
   169   85  206 1    
   170   86  207 1    
   171   86  208 1    
   172   86  209 1    
   173   87   88 2    
   174   87   89 am   BACKBONE|DICT|INTERRES
   175   89   90 1    
   176   89  210 1    
   177   90   91 1    
   178   90   92 1    
   179   90  211 1    
   180   91  212 1    
   181   91  213 1    
   182   91  214 1    
   183   92   93 2    
   184   92   94 am   BACKBONE|DICT|INTERRES
   185   94   95 1    
   186   94  215 1    
   187   95   96 1    
   188   95   97 1    
   189   95  216 1    
   190   96  217 1    
   191   96  218 1    
   192   96  219 1    
   193   97   98 2    
   194   97   99 am   BACKBONE|DICT|INTERRES
   195   99  100 1    
   196   99  220 1    
   197  100  101 1    
   198  100  102 1    
   199  100  221 1    
   200  101  222 1    
   201  101  223 1    
   202  101  224 1    
   203  102  103 2    
   204  102  104 am   BACKBONE|DICT|INTERRES
   205  104  105 1    
   206  104  225 1    
   207  105  106 1    
   208  105  107 1    
   209  105  226 1    
   210  106  227 1    
   211  106  228 1    
   212  106  229 1    
   213  107  108 2    
   214  107  109 am   BACKBONE|DICT|INTERRES
   215  109  110 1    
   216  109  230 1    
   217  110  111 1    
   218  110  112 1    
   219  110  231 1    
   220  111  232 1    
   221  111  233 1    
   222  111  234 1    
   223  112  113 2    
   224  112  114 am   BACKBONE|DICT|INTERRES
   225  114  115 1    
   226  114  235 1    
   227  115  116 1    
   228  115  117 1    
   229  115  236 1    
   230  116  237 1    
   231  116  238 1    
   232  116  239 1    
   233  117  118 2    
   234  117  119 am   BACKBONE|DICT|INTERRES
   235  119  120 1    
   236  119  240 1    
   237  120  121 1    
   238  120  124 1    
   239  120  241 1    
   240  121  122 am   BACKBONE|DICT|INTERRES
   241  121  123 2    
   242  122  242 1    
   243  122  243 1    
   244  124  125 1    
   245  124  244 1    
   246  124  245 1    
   247  125  126 1    
   248  126  246 1    
   249  126  247 1    
@<TRIPOS>SUBSTRUCTURE
     1 UNK         1 GROUP             0       ****    0 ROOT    
