@<TRIPOS>MOLECULE
3R540
247   249    1
SMALL
USER_CHARGES


@<TRIPOS>ATOM
      1 CA         -0.8715  -14.5977  -42.1562 C.3       0 UNK        -0.1800 
      2 C          -1.5410  -13.6616  -43.1496 C.2       0 UNK         0.5000 
      3 O          -1.9755  -12.5730  -42.7690 O.2       0 UNK        -0.5000 
      4 N          -1.6178  -14.0682  -44.4234 N.am      1 UNK        -0.5000 
      5 CA         -2.1062  -13.2386  -45.5295 C.3       1 UNK         0.1400 
      6 C6         -2.3016  -14.0457  -46.8353 C.3       23 UNK        -0.0398 
      7 S7         -3.8296  -15.0455  -46.7863 S.3       23 UNK        -0.2404 
      8 C8         -3.2202  -16.7479  -47.0137 C.3       23 UNK        -0.0205 
      9 C9         -2.5519  -16.9594  -48.3658 C.ar      23 UNK        -0.0193 
     10 C10        -3.2796  -16.7959  -49.5481 C.ar      23 UNK        -0.1150 
     11 C11        -2.6623  -16.9653  -50.7902 C.ar      23 UNK        -0.0193 
     12 C12        -1.3143  -17.3334  -50.8449 C.ar      23 UNK        -0.1150 
     13 C13        -0.5759  -17.5068  -49.6700 C.ar      23 UNK        -0.0193 
     14 C14        -1.2023  -17.3158  -48.4352 C.ar      23 UNK        -0.1150 
     15 C15         0.9070  -17.8468  -49.7441 C.3       23 UNK        -0.0205 
     16 S16         1.2247  -19.6365  -49.6472 S.3       23 UNK        -0.2404 
     17 C17         1.3211  -19.9215  -47.8457 C.3       23 UNK        -0.0398 
     18 CA          0.9902  -21.3803  -47.4475 C.3       11 UNK         0.1400 
     19 N           1.4473  -21.6751  -46.0893 N.am      11 UNK        -0.5000 
     20 C           2.0992  -22.7866  -45.7232 C.2       10 UNK         0.5000 
     21 O           2.4516  -23.6664  -46.5093 O.2       10 UNK        -0.5000 
     22 CA          2.4067  -22.9564  -44.2202 C.3       10 UNK         0.1400 
     23 CB          3.8100  -22.4193  -43.8991 C.3       10 UNK        -0.1800 
     24 N           1.4373  -22.3009  -43.3396 N.am      10 UNK        -0.5000 
     25 C           0.1329  -22.6013  -43.2694 C.2       9 UNK         0.5000 
     26 O          -0.3932  -23.5087  -43.9100 O.2       9 UNK        -0.5000 
     27 CA         -0.7461  -21.7044  -42.3765 C.3       9 UNK         0.1400 
     28 CB         -0.8847  -22.3190  -40.9760 C.3       9 UNK        -0.1800 
     29 N          -0.2836  -20.3169  -42.2467 N.am      9 UNK        -0.5000 
     30 C          -0.0189  -19.4682  -43.2506 C.2       8 UNK         0.5000 
     31 O          -0.0828  -19.7900  -44.4411 O.2       8 UNK        -0.5000 
     32 CA          0.4011  -18.0360  -42.8597 C.3       8 UNK         0.1400 
     33 CB          1.0787  -17.9472  -41.4789 C.3       8 UNK        -0.1800 
     34 N           1.3067  -17.4813  -43.8627 N.am      8 UNK        -0.5000 
     35 C           0.9196  -16.8176  -44.9590 C.2       7 UNK         0.5000 
     36 O          -0.2457  -16.4805  -45.1687 O.2       7 UNK        -0.5000 
     37 CA          2.0135  -16.4736  -45.9870 C.3       7 UNK         0.1400 
     38 CB          1.6882  -15.1993  -46.7816 C.3       7 UNK        -0.1800 
     39 N           3.3075  -16.3027  -45.3342 N.am      7 UNK        -0.5000 
     40 C           4.3632  -17.1177  -45.4599 C.2       6 UNK         0.5000 
     41 O           4.3667  -18.1269  -46.1646 O.2       6 UNK        -0.5000 
     42 CA          5.6298  -16.7539  -44.6570 C.3       6 UNK         0.1400 
     43 CB          6.6842  -16.1224  -45.5789 C.3       6 UNK        -0.1800 
     44 N           5.3670  -15.8368  -43.5457 N.am      6 UNK        -0.5000 
     45 C           4.6975  -16.1571  -42.4298 C.2       5 UNK         0.5000 
     46 O           4.2946  -17.2930  -42.1810 O.2       5 UNK        -0.5000 
     47 CA          4.3864  -15.0036  -41.4555 C.3       5 UNK         0.1400 
     48 CB          5.4627  -14.9161  -40.3635 C.3       5 UNK        -0.1800 
     49 N           4.2582  -13.6968  -42.1131 N.am      5 UNK        -0.5000 
     50 C           3.3017  -13.3799  -42.9959 C.2       4 UNK         0.5000 
     51 O           2.4373  -14.1702  -43.3767 O.2       4 UNK        -0.5000 
     52 CA          3.3368  -11.9611  -43.5814 C.3       4 UNK         0.1400 
     53 CB          3.6447  -11.9949  -45.0864 C.3       4 UNK        -0.1800 
     54 N           2.0501  -11.3065  -43.3682 N.am      4 UNK        -0.5000 
     55 C           1.7173  -10.6478  -42.2494 C.2       3 UNK         0.5000 
     56 O           2.4902  -10.5093  -41.2994 O.2       3 UNK        -0.5000 
     57 CA          0.2917  -10.0586  -42.1519 C.3       3 UNK         0.1400 
     58 CB          0.2675   -8.6832  -41.4525 C.3       3 UNK        -0.1800 
     59 N          -0.4350  -10.0155  -43.4258 N.am      3 UNK        -0.5000 
     60 C          -0.1507   -9.2916  -44.5214 C.2       2 UNK         0.5000 
     61 O           0.7736   -8.4798  -44.5829 O.2       2 UNK        -0.5000 
     62 CA         -1.0487   -9.5267  -45.7607 C.3       2 UNK         0.1400 
     63 CB         -0.2914   -9.3165  -47.0891 C.3       2 UNK        -0.1800 
     64 N          -1.7357  -10.8272  -45.7522 N.am      2 UNK        -0.5000 
     65 C          -1.1590  -12.0383  -45.7357 C.2       1 UNK         0.5000 
     66 O           0.0578  -12.2200  -45.8062 O.2       1 UNK        -0.5000 
     67 C          -0.5177  -21.6707  -47.5715 C.2       11 UNK         0.5000 
     68 O          -0.9380  -22.2579  -48.5663 O.2       11 UNK        -0.5000 
     69 N          -1.3001  -21.2568  -46.5635 N.am      12 UNK        -0.5000 
     70 CA         -2.7640  -21.2660  -46.5749 C.3       12 UNK         0.1400 
     71 CB         -3.2673  -20.3192  -45.4748 C.3       12 UNK        -0.1800 
     72 C          -3.4211  -22.6547  -46.4338 C.2       12 UNK         0.5000 
     73 O          -4.6297  -22.7544  -46.6561 O.2       12 UNK        -0.5000 
     74 N          -2.6504  -23.6904  -46.0689 N.am      13 UNK        -0.5000 
     75 CA         -3.1018  -25.0774  -45.9013 C.3       13 UNK         0.1400 
     76 CB         -1.8932  -25.9762  -45.5966 C.3       13 UNK        -0.1800 
     77 C          -3.8685  -25.6358  -47.1168 C.2       13 UNK         0.5000 
     78 O          -3.4682  -25.3943  -48.2576 O.2       13 UNK        -0.5000 
     79 N          -4.9524  -26.3757  -46.8393 N.am      14 UNK        -0.5000 
     80 CA         -5.8582  -27.0080  -47.8076 C.3       14 UNK         0.1400 
     81 CB         -5.1484  -28.1752  -48.5261 C.3       14 UNK        -0.1800 
     82 C          -6.4916  -25.9954  -48.7860 C.2       14 UNK         0.5000 
     83 O          -6.5429  -26.2504  -49.9898 O.2       14 UNK        -0.5000 
     84 N          -6.9265  -24.8449  -48.2474 N.am      15 UNK        -0.5000 
     85 CA         -7.4628  -23.6839  -48.9706 C.3       15 UNK         0.1400 
     86 CB         -8.8250  -24.0172  -49.6152 C.3       15 UNK        -0.1800 
     87 C          -6.4396  -23.1189  -49.9768 C.2       15 UNK         0.5000 
     88 O          -6.7527  -22.9371  -51.1544 O.2       15 UNK        -0.5000 
     89 N          -5.2116  -22.9084  -49.4851 N.am      16 UNK        -0.5000 
     90 CA         -4.0152  -22.5007  -50.2248 C.3       16 UNK         0.1400 
     91 CB         -4.1378  -21.0342  -50.6757 C.3       16 UNK        -0.1800 
     92 C          -3.6701  -23.4756  -51.3687 C.2       16 UNK         0.5000 
     93 O          -3.4473  -23.0518  -52.5050 O.2       16 UNK        -0.5000 
     94 N          -3.6814  -24.7757  -51.0382 N.am      17 UNK        -0.5000 
     95 CA         -3.5292  -25.9265  -51.9327 C.3       17 UNK         0.1400 
     96 CB         -2.0797  -26.0074  -52.4558 C.3       17 UNK        -0.1800 
     97 C          -4.5816  -25.9292  -53.0618 C.2       17 UNK         0.5000 
     98 O          -4.2300  -26.0672  -54.2323 O.2       17 UNK        -0.5000 
     99 N          -5.8538  -25.7181  -52.6936 N.am      18 UNK        -0.5000 
    100 CA        -7.0030  -25.4959  -53.5813 C.3       18 UNK         0.1400 
    101 CB        -7.3914  -26.8020  -54.3039 C.3       18 UNK        -0.1800 
    102 C         -6.7721  -24.3102  -54.5463 C.2       18 UNK         0.5000 
    103 O         -7.0190  -24.4201  -55.7485 O.2       18 UNK        -0.5000 
    104 N         -6.2517  -23.2121  -53.9826 N.am      19 UNK        -0.5000 
    105 CA        -5.8099  -21.9690  -54.6201 C.3       19 UNK         0.1400 
    106 CB        -6.9859  -21.2521  -55.3129 C.3       19 UNK        -0.1800 
    107 C         -4.5823  -22.1016  -55.5493 C.2       19 UNK         0.5000 
    108 O         -4.2117  -21.1107  -56.1824 O.2       19 UNK        -0.5000 
    109 N         -3.9284  -23.2725  -55.6058 N.am      20 UNK        -0.5000 
    110 CA        -2.7259  -23.4928  -56.4163 C.3       20 UNK         0.1400 
    111 CB        -2.4309  -24.9941  -56.5389 C.3       20 UNK        -0.1800 
    112 C         -1.4889  -22.7439  -55.8865 C.2       20 UNK         0.5000 
    113 O         -0.6022  -22.4240  -56.6794 O.2       20 UNK        -0.5000 
    114 N         -1.4513  -22.4531  -54.5769 N.am      21 UNK        -0.5000 
    115 CA        -0.4195  -21.6117  -53.9667 C.3       21 UNK         0.1400 
    116 CB        -0.3521  -21.8884  -52.4576 C.3       21 UNK        -0.1800 
    117 C         -0.6531  -20.1126  -54.2442 C.2       21 UNK         0.5000 
    118 O          0.3065  -19.3408  -54.2268 O.2       21 UNK        -0.5000 
    119 N         -1.9098  -19.7311  -54.5089 N.am      22 UNK        -0.5000 
    120 CA        -2.3030  -18.3771  -54.9240 C.3       22 UNK         0.1400 
    121 C         -2.0868  -18.1507  -56.4433 C.2       22 UNK         0.5000 
    122 N         -2.4881  -19.0865  -57.2951 N.am      22 UNK        -0.7600 
    123 O         -1.5521  -17.1235  -56.8512 O.2       22 UNK        -0.5000 
    124 C124       -3.7637  -18.0325  -54.5333 C.3       23 UNK        -0.0398 
    125 S125       -4.0979  -18.2622  -52.7574 S.3       23 UNK        -0.2404 
    126 C126       -3.4379  -16.7143  -52.0729 C.3       23 UNK        -0.0205 
    127 H127       -1.5733  -15.3602  -41.8192 H         1 UNK         0.0600 
    128 H128       -0.5190  -14.0443  -41.2858 H         1 UNK         0.0600 
    129 H129       -0.0095  -15.0861  -42.6082 H         1 UNK         0.0600 
    130 H130       -1.2023  -14.9585  -44.6902 H         1 UNK         0.3000 
    131 H131       -3.0791  -12.8421  -45.2302 H         1 UNK         0.0600 
    132 H132       -2.3907  -13.3806  -47.6962 H         1 UNK         0.0800 
    133 H133       -1.4355  -14.6778  -47.0309 H         1 UNK         0.0800 
    134 H134       -2.5433  -16.9942  -46.1962 H         1 UNK         0.0800 
    135 H135       -4.0626  -17.4355  -46.9287 H         1 UNK         0.0800 
    136 H136       -4.3220  -16.5136  -49.4993 H         1 UNK         0.1150 
    137 H137       -0.8359  -17.4693  -51.8051 H         1 UNK         0.1150 
    138 H138       -0.6382  -17.4317  -47.5237 H         1 UNK         0.1150 
    139 H139        1.3160  -17.4804  -50.6869 H         1 UNK         0.0800 
    140 H140        1.4587  -17.3253  -48.9627 H         1 UNK         0.0800 
    141 H141        0.6782  -19.2229  -47.3115 H         1 UNK         0.0800 
    142 H142        2.3416  -19.6821  -47.5425 H         1 UNK         0.0800 
    143 H143        1.5055  -22.0381  -48.1509 H         1 UNK         0.0600 
    144 H144        1.1566  -21.0229  -45.3688 H         1 UNK         0.3000 
    145 H145        2.3876  -24.0257  -43.9995 H         1 UNK         0.0600 
    146 H146        4.5655  -22.9054  -44.5179 H         1 UNK         0.0600 
    147 H147        3.8806  -21.3455  -44.0782 H         1 UNK         0.0600 
    148 H148        4.0761  -22.6054  -42.8584 H         1 UNK         0.0600 
    149 H149        1.7803  -21.5364  -42.7774 H         1 UNK         0.3000 
    150 H150       -1.7375  -21.6761  -42.8299 H         1 UNK         0.0600 
    151 H151       -1.2499  -23.3454  -41.0333 H         1 UNK         0.0600 
    152 H152       -1.5936  -21.7583  -40.3664 H         1 UNK         0.0600 
    153 H153        0.0703  -22.3391  -40.4495 H         1 UNK         0.0600 
    154 H154       -0.1892  -19.9738  -41.3018 H         1 UNK         0.3000 
    155 H155       -0.5146  -17.4444  -42.8230 H         1 UNK         0.0600 
    156 H156        0.3887  -18.2047  -40.6748 H         1 UNK         0.0600 
    157 H157        1.4258  -16.9326  -41.2815 H         1 UNK         0.0600 
    158 H158        1.9420  -18.6103  -41.4080 H         1 UNK         0.0600 
    159 H159        2.2856  -17.7063  -43.7575 H         1 UNK         0.3000 
    160 H160        2.0545  -17.3056  -46.6890 H         1 UNK         0.0600 
    161 H161        1.5090  -14.3577  -46.1143 H         1 UNK         0.0600 
    162 H162        0.7964  -15.3309  -47.3931 H         1 UNK         0.0600 
    163 H163        2.5030  -14.9299  -47.4535 H         1 UNK         0.0600 
    164 H164        3.3539  -15.5315  -44.6778 H         1 UNK         0.3000 
    165 H165        6.0390  -17.6808  -44.2495 H         1 UNK         0.0600 
    166 H166        7.6099  -15.9198  -45.0398 H         1 UNK         0.0600 
    167 H167        6.9312  -16.7901  -46.4055 H         1 UNK         0.0600 
    168 H168        6.3323  -15.1838  -46.0091 H         1 UNK         0.0600 
    169 H169        5.6678  -14.8808  -43.6651 H         1 UNK         0.3000 
    170 H170        3.4315  -15.2311  -40.9769 H         1 UNK         0.0600 
    171 H171        5.5644  -15.8669  -39.8383 H         1 UNK         0.0600 
    172 H172        6.4392  -14.6647  -40.7793 H         1 UNK         0.0600 
    173 H173        5.2092  -14.1613  -39.6189 H         1 UNK         0.0600 
    174 H174        4.9311  -12.9925  -41.8457 H         1 UNK         0.3000 
    175 H175        4.1266  -11.3869  -43.0921 H         1 UNK         0.0600 
    176 H176        3.7234  -10.9863  -45.4924 H         1 UNK         0.0600 
    177 H177        4.5907  -12.5010  -45.2831 H         1 UNK         0.0600 
    178 H178        2.8693  -12.5166  -45.6469 H         1 UNK         0.0600 
    179 H179        1.3522  -11.4422  -44.0896 H         1 UNK         0.3000 
    180 H180       -0.2662  -10.7509  -41.5201 H         1 UNK         0.0600 
    181 H181        0.8803   -7.9494  -41.9764 H         1 UNK         0.0600 
    182 H182        0.6491   -8.7555  -40.4334 H         1 UNK         0.0600 
    183 H183       -0.7472   -8.2906  -41.3887 H         1 UNK         0.0600 
    184 H184       -1.1979  -10.6804  -43.4869 H         1 UNK         0.3000 
    185 H185       -1.8327   -8.7701  -45.7076 H         1 UNK         0.0600 
    186 H186        0.0806   -8.2946  -47.1704 H         1 UNK         0.0600 
    187 H187        0.5673   -9.9827  -47.1772 H         1 UNK         0.0600 
    188 H188       -0.9417   -9.4917  -47.9461 H         1 UNK         0.0600 
    189 H189       -2.7419  -10.7766  -45.6670 H         1 UNK         0.3000 
    190 H190       -0.8693  -20.7758  -45.7779 H         1 UNK         0.3000 
    191 H191       -3.0865  -20.8584  -47.5353 H         1 UNK         0.0600 
    192 H192       -2.8192  -19.3305  -45.5681 H         1 UNK         0.0600 
    193 H193       -4.3492  -20.1931  -45.5307 H         1 UNK         0.0600 
    194 H194       -3.0324  -20.6970  -44.4806 H         1 UNK         0.0600 
    195 H195       -1.6751  -23.5120  -45.8707 H         1 UNK         0.3000 
    196 H196       -3.7685  -25.0936  -45.0371 H         1 UNK         0.0600 
    197 H197       -2.1820  -27.0275  -45.5586 H         1 UNK         0.0600 
    198 H198       -1.4529  -25.7358  -44.6302 H         1 UNK         0.0600 
    199 H199       -1.1175  -25.8762  -46.3570 H         1 UNK         0.0600 
    200 H200       -5.1993  -26.5129  -45.8688 H         1 UNK         0.3000 
    201 H201       -6.6840  -27.4297  -47.2329 H         1 UNK         0.0600 
    202 H202       -4.7495  -28.8933  -47.8097 H         1 UNK         0.0600 
    203 H203       -4.3219  -27.8285  -49.1463 H         1 UNK         0.0600 
    204 H204       -5.8397  -28.7154  -49.1741 H         1 UNK         0.0600 
    205 H205       -6.8005  -24.7162  -47.2530 H         1 UNK         0.3000 
    206 H206       -7.6297  -22.9021  -48.2281 H         1 UNK         0.0600 
    207 H207       -9.5291  -24.3957  -48.8744 H         1 UNK         0.0600 
    208 H208       -9.2709  -23.1281  -50.0625 H         1 UNK         0.0600 
    209 H209       -8.7330  -24.7654  -50.4029 H         1 UNK         0.0600 
    210 H210       -5.0643  -23.0899  -48.4960 H         1 UNK         0.3000 
    211 H211       -3.1925  -22.5646  -49.5185 H         1 UNK         0.0600 
    212 H212       -4.9327  -20.9029  -51.4096 H         1 UNK         0.0600 
    213 H213       -3.2112  -20.6835  -51.1287 H         1 UNK         0.0600 
    214 H214       -4.3490  -20.3768  -49.8325 H         1 UNK         0.0600 
    215 H215       -3.8219  -25.0064  -50.0567 H         1 UNK         0.3000 
    216 H216       -3.7184  -26.8161  -51.3312 H         1 UNK         0.0600 
    217 H217       -1.9285  -26.9084  -53.0513 H         1 UNK         0.0600 
    218 H218       -1.3667  -26.0388  -51.6321 H         1 UNK         0.0600 
    219 H219       -1.8256  -25.1533  -53.0841 H         1 UNK         0.0600 
    220 H220       -6.0577  -25.6685  -51.6974 H         1 UNK         0.3000 
    221 H221       -7.8365  -25.2112  -52.9376 H         1 UNK         0.0600 
    222 H222       -6.6153  -27.1294  -54.9963 H         1 UNK         0.0600 
    223 H223       -7.5667  -27.6079  -53.5911 H         1 UNK         0.0600 
    224 H224       -8.3090  -26.6717  -54.8786 H         1 UNK         0.0600 
    225 H225       -6.1322  -23.2293  -52.9726 H         1 UNK         0.3000 
    226 H226       -5.4813  -21.3295  -53.7999 H         1 UNK         0.0600 
    227 H227       -7.8309  -21.1354  -54.6343 H         1 UNK         0.0600 
    228 H228       -6.6965  -20.2532  -55.6414 H         1 UNK         0.0600 
    229 H229       -7.3316  -21.7957  -56.1923 H         1 UNK         0.0600 
    230 H230       -4.2484  -24.0507  -55.0410 H         1 UNK         0.3000 
    231 H231       -2.9317  -23.1145  -57.4199 H         1 UNK         0.0600 
    232 H232       -2.1076  -25.4195  -55.5889 H         1 UNK         0.0600 
    233 H233       -1.6334  -25.1739  -57.2607 H         1 UNK         0.0600 
    234 H234       -3.3078  -25.5460  -56.8778 H         1 UNK         0.0600 
    235 H235       -2.2162  -22.7488  -53.9743 H         1 UNK         0.3000 
    236 H236        0.5478  -21.8820  -54.3954 H         1 UNK         0.0600 
    237 H237       -0.2425  -22.9531  -52.2507 H         1 UNK         0.0600 
    238 H238        0.5028  -21.3802  -52.0117 H         1 UNK         0.0600 
    239 H239       -1.2430  -21.5359  -51.9406 H         1 UNK         0.0600 
    240 H240       -2.6329  -20.4340  -54.5398 H         1 UNK         0.3000 
    241 H241       -1.6570  -17.6665  -54.4048 H         1 UNK         0.0600 
    242 H242       -2.3490  -18.9538  -58.2839 H         1 UNK         0.3800 
    243 H243       -3.0004  -19.8993  -56.9616 H         1 UNK         0.3800 
    244 H244       -4.0039  -17.0033  -54.8062 H         1 UNK         0.0800 
    245 H245       -4.4658  -18.6599  -55.0843 H         1 UNK         0.0800 
    246 H246       -4.2633  -16.0239  -51.8935 H         1 UNK         0.0800 
    247 H247       -2.7841  -16.2223  -52.7941 H         1 UNK         0.0800 
@<TRIPOS>BOND
     1    1    2 1    
     2    1  127 1    
     3    1  128 1    
     4    1  129 1    
     5    2    3 2    
     6    2    4 am   BACKBONE|DICT|INTERRES
     7    4    5 1    
     8    4  130 1    
     9    5    6 1    
    10    5   65 1    
    11    5  131 1    
    12    6    7 1    
    13    6  132 1    
    14    6  133 1    
    15    7    8 1    
    16    8    9 1    
    17    8  134 1    
    18    8  135 1    
    19    9   10 ar   
    20    9   14 ar   
    21   10   11 ar   
    22   10  136 1    
    23   11   12 ar   
    24   11  126 1    
    25   12   13 ar   
    26   12  137 1    
    27   13   14 ar   
    28   13   15 1    
    29   14  138 1    
    30   15   16 1    
    31   15  139 1    
    32   15  140 1    
    33   16   17 1    
    34   17   18 1    
    35   17  141 1    
    36   17  142 1    
    37   18   19 1    
    38   18   67 1    
    39   18  143 1    
    40   19   20 am   BACKBONE|DICT|INTERRES
    41   19  144 1    
    42   20   21 2    
    43   20   22 1    
    44   22   23 1    
    45   22   24 1    
    46   22  145 1    
    47   23  146 1    
    48   23  147 1    
    49   23  148 1    
    50   24   25 am   BACKBONE|DICT|INTERRES
    51   24  149 1    
    52   25   26 2    
    53   25   27 1    
    54   27   28 1    
    55   27   29 1    
    56   27  150 1    
    57   28  151 1    
    58   28  152 1    
    59   28  153 1    
    60   29   30 am   BACKBONE|DICT|INTERRES
    61   29  154 1    
    62   30   31 2    
    63   30   32 1    
    64   32   33 1    
    65   32   34 1    
    66   32  155 1    
    67   33  156 1    
    68   33  157 1    
    69   33  158 1    
    70   34   35 am   BACKBONE|DICT|INTERRES
    71   34  159 1    
    72   35   36 2    
    73   35   37 1    
    74   37   38 1    
    75   37   39 1    
    76   37  160 1    
    77   38  161 1    
    78   38  162 1    
    79   38  163 1    
    80   39   40 am   BACKBONE|DICT|INTERRES
    81   39  164 1    
    82   40   41 2    
    83   40   42 1    
    84   42   43 1    
    85   42   44 1    
    86   42  165 1    
    87   43  166 1    
    88   43  167 1    
    89   43  168 1    
    90   44   45 am   BACKBONE|DICT|INTERRES
    91   44  169 1    
    92   45   46 2    
    93   45   47 1    
    94   47   48 1    
    95   47   49 1    
    96   47  170 1    
    97   48  171 1    
    98   48  172 1    
    99   48  173 1    
   100   49   50 am   BACKBONE|DICT|INTERRES
   101   49  174 1    
   102   50   51 2    
   103   50   52 1    
   104   52   53 1    
   105   52   54 1    
   106   52  175 1    
   107   53  176 1    
   108   53  177 1    
   109   53  178 1    
   110   54   55 am   BACKBONE|DICT|INTERRES
   111   54  179 1    
   112   55   56 2    
   113   55   57 1    
   114   57   58 1    
   115   57   59 1    
   116   57  180 1    
   117   58  181 1    
   118   58  182 1    
   119   58  183 1    
   120   59   60 am   BACKBONE|DICT|INTERRES
   121   59  184 1    
   122   60   61 2    
   123   60   62 1    
   124   62   63 1    
   125   62   64 1    
   126   62  185 1    
   127   63  186 1    
   128   63  187 1    
   129   63  188 1    
   130   64   65 am   BACKBONE|DICT|INTERRES
   131   64  189 1    
   132   65   66 2    
   133   67   68 2    
   134   67   69 am   BACKBONE|DICT|INTERRES
   135   69   70 1    
   136   69  190 1    
   137   70   71 1    
   138   70   72 1    
   139   70  191 1    
   140   71  192 1    
   141   71  193 1    
   142   71  194 1    
   143   72   73 2    
   144   72   74 am   BACKBONE|DICT|INTERRES
   145   74   75 1    
   146   74  195 1    
   147   75   76 1    
   148   75   77 1    
   149   75  196 1    
   150   76  197 1    
   151   76  198 1    
   152   76  199 1    
   153   77   78 2    
   154   77   79 am   BACKBONE|DICT|INTERRES
   155   79   80 1    
   156   79  200 1    
   157   80   81 1    
   158   80   82 1    
   159   80  201 1    
   160   81  202 1    
   161   81  203 1    
   162   81  204 1    
   163   82   83 2    
   164   82   84 am   BACKBONE|DICT|INTERRES
   165   84   85 1    
   166   84  205 1    
   167   85   86 1    
   168   85   87 1    
   169   85  206 1    
   170   86  207 1    
   171   86  208 1    
   172   86  209 1    
   173   87   88 2    
   174   87   89 am   BACKBONE|DICT|INTERRES
   175   89   90 1    
   176   89  210 1    
   177   90   91 1    
   178   90   92 1    
   179   90  211 1    
   180   91  212 1    
   181   91  213 1    
   182   91  214 1    
   183   92   93 2    
   184   92   94 am   BACKBONE|DICT|INTERRES
   185   94   95 1    
   186   94  215 1    
   187   95   96 1    
   188   95   97 1    
   189   95  216 1    
   190   96  217 1    
   191   96  218 1    
   192   96  219 1    
   193   97   98 2    
   194   97   99 am   BACKBONE|DICT|INTERRES
   195   99  100 1    
   196   99  220 1    
   197  100  101 1    
   198  100  102 1    
   199  100  221 1    
   200  101  222 1    
   201  101  223 1    
   202  101  224 1    
   203  102  103 2    
   204  102  104 am   BACKBONE|DICT|INTERRES
   205  104  105 1    
   206  104  225 1    
   207  105  106 1    
   208  105  107 1    
   209  105  226 1    
   210  106  227 1    
   211  106  228 1    
   212  106  229 1    
   213  107  108 2    
   214  107  109 am   BACKBONE|DICT|INTERRES
   215  109  110 1    
   216  109  230 1    
   217  110  111 1    
   218  110  112 1    
   219  110  231 1    
   220  111  232 1    
   221  111  233 1    
   222  111  234 1    
   223  112  113 2    
   224  112  114 am   BACKBONE|DICT|INTERRES
   225  114  115 1    
   226  114  235 1    
   227  115  116 1    
   228  115  117 1    
   229  115  236 1    
   230  116  237 1    
   231  116  238 1    
   232  116  239 1    
   233  117  118 2    
   234  117  119 am   BACKBONE|DICT|INTERRES
   235  119  120 1    
   236  119  240 1    
   237  120  121 1    
   238  120  124 1    
   239  120  241 1    
   240  121  122 am   BACKBONE|DICT|INTERRES
   241  121  123 2    
   242  122  242 1    
   243  122  243 1    
   244  124  125 1    
   245  124  244 1    
   246  124  245 1    
   247  125  126 1    
   248  126  246 1    
   249  126  247 1    
@<TRIPOS>SUBSTRUCTURE
     1 UNK         1 GROUP             0       ****    0 ROOT    
