@<TRIPOS>MOLECULE
3R540
247   249    1
SMALL
USER_CHARGES


@<TRIPOS>ATOM
      1 CA          4.1176  -11.5650  -52.6340 C.3       0 UNK        -0.1800 
      2 C           3.1501  -12.2193  -51.6581 C.2       0 UNK         0.5000 
      3 O           2.1364  -12.7738  -52.0840 O.2       0 UNK        -0.5000 
      4 N           3.4566  -12.1460  -50.3552 N.am      1 UNK        -0.5000 
      5 CA          2.7088  -12.6958  -49.2120 C.3       1 UNK         0.1400 
      6 C6          2.4669  -14.2277  -49.2789 C.3       23 UNK        -0.0398 
      7 S7          4.0277  -15.1756  -49.3871 S.3       23 UNK        -0.2404 
      8 C8          3.7192  -16.5773  -48.2626 C.3       23 UNK        -0.0205 
      9 C9          3.0211  -17.7475  -48.9465 C.ar      23 UNK        -0.0193 
     10 C10         1.7524  -17.5901  -49.5100 C.ar      23 UNK        -0.1150 
     11 C11         1.0966  -18.6638  -50.1149 C.ar      23 UNK        -0.0193 
     12 C12         1.7140  -19.9155  -50.1465 C.ar      23 UNK        -0.1150 
     13 C13         2.9728  -20.0969  -49.5662 C.ar      23 UNK        -0.0193 
     14 C14         3.6256  -19.0086  -48.9780 C.ar      23 UNK        -0.1150 
     15 C15         3.6177  -21.4744  -49.5564 C.3       23 UNK        -0.0205 
     16 S16         3.3791  -22.3225  -47.9619 S.3       23 UNK        -0.2404 
     17 C17         1.5653  -22.5171  -47.9229 C.3       23 UNK        -0.0398 
     18 CA          1.1012  -23.4455  -46.7774 C.3       11 UNK         0.1400 
     19 N           1.3127  -22.8554  -45.4501 N.am      11 UNK        -0.5000 
     20 C           1.1872  -23.5194  -44.2910 C.2       10 UNK         0.5000 
     21 O           0.9000  -24.7144  -44.2174 O.2       10 UNK        -0.5000 
     22 CA          1.3561  -22.7007  -42.9975 C.3       10 UNK         0.1400 
     23 CB          2.8363  -22.4099  -42.7064 C.3       10 UNK        -0.1800 
     24 N           0.6003  -21.4493  -43.0493 N.am      10 UNK        -0.5000 
     25 C          -0.7386  -21.3799  -43.0429 C.2       9 UNK         0.5000 
     26 O          -1.4679  -22.3566  -42.8759 O.2       9 UNK        -0.5000 
     27 CA         -1.3740  -20.0013  -43.3024 C.3       9 UNK         0.1400 
     28 CB         -1.6291  -19.2504  -41.9877 C.3       9 UNK        -0.1800 
     29 N          -0.5612  -19.1730  -44.1929 N.am      9 UNK        -0.5000 
     30 C          -0.4301  -19.3834  -45.5102 C.2       8 UNK         0.5000 
     31 O          -1.0203  -20.2687  -46.1260 O.2       8 UNK        -0.5000 
     32 CA          0.5618  -18.4781  -46.2565 C.3       8 UNK         0.1400 
     33 CB         -0.1276  -17.1809  -46.6948 C.3       8 UNK        -0.1800 
     34 N           1.7423  -18.1676  -45.4480 N.am      8 UNK        -0.5000 
     35 C           2.6705  -19.0816  -45.1286 C.2       7 UNK         0.5000 
     36 O           2.6088  -20.2571  -45.4822 O.2       7 UNK        -0.5000 
     37 CA          3.8260  -18.6376  -44.2126 C.3       7 UNK         0.1400 
     38 CB          4.9908  -18.0748  -45.0390 C.3       7 UNK        -0.1800 
     39 N           3.4315  -17.6548  -43.2038 N.am      7 UNK        -0.5000 
     40 C           2.5035  -17.8513  -42.2585 C.2       6 UNK         0.5000 
     41 O           1.8789  -18.9051  -42.1290 O.2       6 UNK        -0.5000 
     42 CA          2.1807  -16.6674  -41.3231 C.3       6 UNK         0.1400 
     43 CB          3.1630  -15.4800  -41.4434 C.3       6 UNK        -0.1800 
     44 N           0.8014  -16.1981  -41.4939 N.am      6 UNK        -0.5000 
     45 C           0.2231  -15.7972  -42.6348 C.2       5 UNK         0.5000 
     46 O           0.7836  -15.7989  -43.7344 O.2       5 UNK        -0.5000 
     47 CA         -1.2237  -15.2999  -42.5146 C.3       5 UNK         0.1400 
     48 CB         -1.2648  -13.8662  -41.9598 C.3       5 UNK        -0.1800 
     49 N          -1.8559  -15.3113  -43.8288 N.am      5 UNK        -0.5000 
     50 C          -3.1075  -15.6974  -44.0924 C.2       4 UNK         0.5000 
     51 O          -3.8846  -16.1176  -43.2338 O.2       4 UNK        -0.5000 
     52 CA         -3.5746  -15.5358  -45.5550 C.3       4 UNK         0.1400 
     53 CB         -5.0251  -16.0058  -45.7711 C.3       4 UNK        -0.1800 
     54 N          -3.4648  -14.1367  -45.9729 N.am      4 UNK        -0.5000 
     55 C          -2.3548  -13.5563  -46.4440 C.2       3 UNK         0.5000 
     56 O          -1.2993  -14.1606  -46.6429 O.2       3 UNK        -0.5000 
     57 CA         -2.4188  -12.0357  -46.6502 C.3       3 UNK         0.1400 
     58 CB         -1.9907  -11.3125  -45.3635 C.3       3 UNK        -0.1800 
     59 N          -1.5395  -11.6160  -47.7367 N.am      3 UNK        -0.5000 
     60 C          -1.8542  -11.6381  -49.0345 C.2       2 UNK         0.5000 
     61 O          -2.9542  -11.9906  -49.4610 O.2       2 UNK        -0.5000 
     62 CA         -0.7739  -11.1672  -50.0288 C.3       2 UNK         0.1400 
     63 CB         -0.5741   -9.6414  -49.9529 C.3       2 UNK        -0.1800 
     64 N           0.5116  -11.8713  -49.9410 N.am      2 UNK        -0.5000 
     65 C           1.4008  -11.9210  -48.9394 C.2       1 UNK         0.5000 
     66 O           1.2462  -11.3650  -47.8508 O.2       1 UNK        -0.5000 
     67 C          -0.3586  -23.8907  -47.0021 C.2       11 UNK         0.5000 
     68 O          -0.5742  -24.8918  -47.6863 O.2       11 UNK        -0.5000 
     69 N          -1.3331  -23.1877  -46.4014 N.am      12 UNK        -0.5000 
     70 CA         -2.7704  -23.4828  -46.4723 C.3       12 UNK         0.1400 
     71 CB         -3.5634  -22.4380  -45.6760 C.3       12 UNK        -0.1800 
     72 C          -3.1661  -24.8981  -46.0108 C.2       12 UNK         0.5000 
     73 O          -4.2000  -25.3967  -46.4517 O.2       12 UNK        -0.5000 
     74 N          -2.3295  -25.5427  -45.1850 N.am      13 UNK        -0.5000 
     75 CA         -2.4766  -26.9427  -44.7805 C.3       13 UNK         0.1400 
     76 CB         -1.4180  -27.2702  -43.7172 C.3       13 UNK        -0.1800 
     77 C          -2.3857  -27.9381  -45.9578 C.2       13 UNK         0.5000 
     78 O          -2.9746  -29.0168  -45.8763 O.2       13 UNK        -0.5000 
     79 N          -1.6698  -27.5570  -47.0250 N.am      14 UNK        -0.5000 
     80 CA         -1.5493  -28.3142  -48.2699 C.3       14 UNK         0.1400 
     81 CB         -0.0600  -28.4744  -48.6140 C.3       14 UNK        -0.1800 
     82 C          -2.2917  -27.6160  -49.4224 C.2       14 UNK         0.5000 
     83 O          -2.9311  -28.2928  -50.2281 O.2       14 UNK        -0.5000 
     84 N          -2.1894  -26.2808  -49.4909 N.am      15 UNK        -0.5000 
     85 CA         -2.7246  -25.4546  -50.5750 C.3       15 UNK         0.1400 
     86 CB         -1.9934  -24.1032  -50.5711 C.3       15 UNK        -0.1800 
     87 C          -4.2508  -25.2473  -50.5179 C.2       15 UNK         0.5000 
     88 O          -4.8401  -24.8831  -51.5360 O.2       15 UNK        -0.5000 
     89 N          -4.8590  -25.4642  -49.3419 N.am      16 UNK        -0.5000 
     90 CA         -6.2884  -25.3983  -49.0064 C.3       16 UNK         0.1400 
     91 CB         -7.1083  -26.4018  -49.8398 C.3       16 UNK        -0.1800 
     92 C          -6.9079  -23.9882  -49.0648 C.2       16 UNK         0.5000 
     93 O          -7.5588  -23.5745  -48.1051 O.2       16 UNK        -0.5000 
     94 N          -6.7058  -23.2769  -50.1794 N.am      17 UNK        -0.5000 
     95 CA         -7.2936  -21.9643  -50.4603 C.3       17 UNK         0.1400 
     96 CB         -7.5050  -21.8353  -51.9775 C.3       17 UNK        -0.1800 
     97 C          -6.4708  -20.7848  -49.9003 C.2       17 UNK         0.5000 
     98 O          -6.9049  -19.6388  -50.0276 O.2       17 UNK        -0.5000 
     99 N          -5.3079  -21.0734  -49.2946 N.am      18 UNK        -0.5000 
    100 CA        -4.3740  -20.1251  -48.6772 C.3       18 UNK         0.1400 
    101 CB        -4.9881  -19.5219  -47.3928 C.3       18 UNK        -0.1800 
    102 C         -3.8914  -19.0723  -49.6954 C.2       18 UNK         0.5000 
    103 O         -3.3386  -19.4536  -50.7268 O.2       18 UNK        -0.5000 
    104 N         -4.1329  -17.7819  -49.4243 N.am      19 UNK        -0.5000 
    105 CA        -3.7801  -16.6505  -50.2881 C.3       19 UNK         0.1400 
    106 CB        -4.1994  -15.3429  -49.6031 C.3       19 UNK        -0.1800 
    107 C         -4.3701  -16.7287  -51.7104 C.2       19 UNK         0.5000 
    108 O         -3.7395  -16.2552  -52.6557 O.2       19 UNK        -0.5000 
    109 N         -5.5453  -17.3570  -51.8521 N.am      20 UNK        -0.5000 
    110 CA        -6.1987  -17.5755  -53.1420 C.3       20 UNK         0.1400 
    111 CB        -7.6978  -17.8230  -52.9174 C.3       20 UNK        -0.1800 
    112 C         -5.5559  -18.7044  -53.9745 C.2       20 UNK         0.5000 
    113 O         -5.8329  -18.7824  -55.1721 O.2       20 UNK        -0.5000 
    114 N         -4.7105  -19.5472  -53.3587 N.am      21 UNK        -0.5000 
    115 CA        -3.9373  -20.5708  -54.0628 C.3       21 UNK         0.1400 
    116 CB        -3.4989  -21.6770  -53.0896 C.3       21 UNK        -0.1800 
    117 C         -2.7121  -19.9575  -54.7609 C.2       21 UNK         0.5000 
    118 O         -2.4714  -20.2537  -55.9321 O.2       21 UNK        -0.5000 
    119 N         -1.9620  -19.1217  -54.0297 N.am      22 UNK        -0.5000 
    120 CA        -0.7689  -18.4262  -54.5385 C.3       22 UNK         0.1400 
    121 C         -1.0806  -17.1390  -55.3545 C.2       22 UNK         0.5000 
    122 N         -2.1813  -16.4403  -55.1046 N.am      22 UNK        -0.7600 
    123 O         -0.3171  -16.7791  -56.2466 O.2       22 UNK        -0.5000 
    124 C124        0.2859  -18.1738  -53.4300 C.3       23 UNK        -0.0398 
    125 S125       -0.3491  -17.2252  -52.0050 S.3       23 UNK        -0.2404 
    126 C126       -0.3003  -18.4746  -50.6813 C.3       23 UNK        -0.0205 
    127 H127        4.9670  -11.1120  -52.1222 H         1 UNK         0.0600 
    128 H128        3.6080  -10.7869  -53.2021 H         1 UNK         0.0600 
    129 H129        4.4997  -12.3064  -53.3357 H         1 UNK         0.0600 
    130 H130        4.2992  -11.6523  -50.0958 H         1 UNK         0.3000 
    131 H131        3.3467  -12.5160  -48.3448 H         1 UNK         0.0600 
    132 H132        1.8455  -14.4892  -50.1361 H         1 UNK         0.0800 
    133 H133        1.9141  -14.5501  -48.3948 H         1 UNK         0.0800 
    134 H134        3.1390  -16.2556  -47.3972 H         1 UNK         0.0800 
    135 H135        4.6860  -16.9001  -47.8751 H         1 UNK         0.0800 
    136 H136        1.2574  -16.6328  -49.4730 H         1 UNK         0.1150 
    137 H137        1.2049  -20.7551  -50.5984 H         1 UNK         0.1150 
    138 H138        4.5960  -19.1539  -48.5248 H         1 UNK         0.1150 
    139 H139        3.2190  -22.0930  -50.3620 H         1 UNK         0.0800 
    140 H140        4.6872  -21.3772  -49.7482 H         1 UNK         0.0800 
    141 H141        1.2568  -22.9139  -48.8923 H         1 UNK         0.0800 
    142 H142        1.1013  -21.5341  -47.8254 H         1 UNK         0.0800 
    143 H143        1.7038  -24.3554  -46.8228 H         1 UNK         0.0600 
    144 H144        1.6215  -21.8863  -45.4333 H         1 UNK         0.3000 
    145 H145        0.9645  -23.2966  -42.1703 H         1 UNK         0.0600 
    146 H146        2.9519  -21.8278  -41.7919 H         1 UNK         0.0600 
    147 H147        3.3937  -23.3381  -42.5755 H         1 UNK         0.0600 
    148 H148        3.3113  -21.8582  -43.5165 H         1 UNK         0.0600 
    149 H149        1.1321  -20.5891  -43.1136 H         1 UNK         0.3000 
    150 H150       -2.3402  -20.1712  -43.7824 H         1 UNK         0.0600 
    151 H151       -2.2316  -19.8525  -41.3065 H         1 UNK         0.0600 
    152 H152       -2.1749  -18.3246  -42.1668 H         1 UNK         0.0600 
    153 H153       -0.7012  -19.0033  -41.4720 H         1 UNK         0.0600 
    154 H154        0.0145  -18.4650  -43.7604 H         1 UNK         0.3000 
    155 H155        0.8925  -19.0115  -47.1496 H         1 UNK         0.0600 
    156 H156       -0.5691  -16.6627  -45.8471 H         1 UNK         0.0600 
    157 H157       -0.9264  -17.3828  -47.4091 H         1 UNK         0.0600 
    158 H158        0.5706  -16.4920  -47.1677 H         1 UNK         0.0600 
    159 H159        1.7997  -17.2357  -45.0541 H         1 UNK         0.3000 
    160 H160        4.1822  -19.5257  -43.6870 H         1 UNK         0.0600 
    161 H161        4.7347  -17.1162  -45.4896 H         1 UNK         0.0600 
    162 H162        5.2692  -18.7571  -45.8436 H         1 UNK         0.0600 
    163 H163        5.8753  -17.9259  -44.4195 H         1 UNK         0.0600 
    164 H164        3.8752  -16.7496  -43.2562 H         1 UNK         0.3000 
    165 H165        2.2558  -17.0568  -40.3067 H         1 UNK         0.0600 
    166 H166        2.9325  -14.7123  -40.7047 H         1 UNK         0.0600 
    167 H167        4.1909  -15.7966  -41.2616 H         1 UNK         0.0600 
    168 H168        3.1247  -15.0082  -42.4260 H         1 UNK         0.0600 
    169 H169        0.2489  -16.1841  -40.6482 H         1 UNK         0.3000 
    170 H170       -1.7545  -15.9656  -41.8315 H         1 UNK         0.0600 
    171 H171       -0.8062  -13.8105  -40.9719 H         1 UNK         0.0600 
    172 H172       -0.7336  -13.1695  -42.6098 H         1 UNK         0.0600 
    173 H173       -2.2913  -13.5126  -41.8607 H         1 UNK         0.0600 
    174 H174       -1.2595  -15.0168  -44.5954 H         1 UNK         0.3000 
    175 H175       -2.9309  -16.1576  -46.1798 H         1 UNK         0.0600 
    176 H176       -5.7311  -15.4163  -45.1849 H         1 UNK         0.0600 
    177 H177       -5.3160  -15.9277  -46.8181 H         1 UNK         0.0600 
    178 H178       -5.1475  -17.0488  -45.4769 H         1 UNK         0.0600 
    179 H179       -4.2743  -13.5600  -45.7931 H         1 UNK         0.3000 
    180 H180       -3.4460  -11.7499  -46.8869 H         1 UNK         0.0600 
    181 H181       -0.9649  -11.5597  -45.0861 H         1 UNK         0.0600 
    182 H182       -2.6322  -11.5877  -44.5253 H         1 UNK         0.0600 
    183 H183       -2.0544  -10.2304  -45.4800 H         1 UNK         0.0600 
    184 H184       -0.5756  -11.4014  -47.4947 H         1 UNK         0.3000 
    185 H185       -1.1555  -11.3910  -51.0263 H         1 UNK         0.0600 
    186 H186       -1.5195   -9.1176  -50.0997 H         1 UNK         0.0600 
    187 H187       -0.1750   -9.3277  -48.9880 H         1 UNK         0.0600 
    188 H188        0.1118   -9.2961  -50.7265 H         1 UNK         0.0600 
    189 H189        0.7961  -12.3402  -50.7977 H         1 UNK         0.3000 
    190 H190       -1.0780  -22.3343  -45.9173 H         1 UNK         0.3000 
    191 H191       -3.0635  -23.3939  -47.5189 H         1 UNK         0.0600 
    192 H192       -3.3786  -22.5206  -44.6061 H         1 UNK         0.0600 
    193 H193       -4.6357  -22.5677  -45.8289 H         1 UNK         0.0600 
    194 H194       -3.3138  -21.4246  -45.9826 H         1 UNK         0.0600 
    195 H195       -1.4953  -25.0647  -44.8707 H         1 UNK         0.3000 
    196 H196       -3.4640  -27.0566  -44.3284 H         1 UNK         0.0600 
    197 H197       -1.5344  -28.2911  -43.3513 H         1 UNK         0.0600 
    198 H198       -1.5011  -26.6047  -42.8577 H         1 UNK         0.0600 
    199 H199       -0.4072  -27.1778  -44.1163 H         1 UNK         0.0600 
    200 H200       -1.2312  -26.6426  -47.0127 H         1 UNK         0.3000 
    201 H201       -1.9782  -29.3121  -48.1579 H         1 UNK         0.0600 
    202 H202        0.4662  -29.0218  -47.8318 H         1 UNK         0.0600 
    203 H203        0.4334  -27.5090  -48.7356 H         1 UNK         0.0600 
    204 H204        0.0693  -29.0304  -49.5435 H         1 UNK         0.0600 
    205 H205       -1.6076  -25.7979  -48.8096 H         1 UNK         0.3000 
    206 H206       -2.5019  -25.9524  -51.5212 H         1 UNK         0.0600 
    207 H207       -0.9123  -24.2377  -50.6130 H         1 UNK         0.0600 
    208 H208       -2.2753  -23.5102  -51.4388 H         1 UNK         0.0600 
    209 H209       -2.2230  -23.5152  -49.6834 H         1 UNK         0.0600 
    210 H210       -4.2722  -25.7165  -48.5555 H         1 UNK         0.3000 
    211 H211       -6.3586  -25.7212  -47.9669 H         1 UNK         0.0600 
    212 H212       -7.1108  -26.1505  -50.9006 H         1 UNK         0.0600 
    213 H213       -8.1475  -26.4226  -49.5094 H         1 UNK         0.0600 
    214 H214       -6.7141  -27.4128  -49.7361 H         1 UNK         0.0600 
    215 H215       -6.1358  -23.7013  -50.9079 H         1 UNK         0.3000 
    216 H216       -8.2770  -21.9141  -49.9882 H         1 UNK         0.0600 
    217 H217       -8.0886  -20.9475  -52.2161 H         1 UNK         0.0600 
    218 H218       -8.0538  -22.6901  -52.3731 H         1 UNK         0.0600 
    219 H219       -6.5634  -21.7644  -52.5188 H         1 UNK         0.0600 
    220 H220       -5.0307  -22.0429  -49.2786 H         1 UNK         0.3000 
    221 H221       -3.4912  -20.6981  -48.3898 H         1 UNK         0.0600 
    222 H222       -5.8416  -18.8761  -47.6024 H         1 UNK         0.0600 
    223 H223       -5.3399  -20.3052  -46.7225 H         1 UNK         0.0600 
    224 H224       -4.2480  -18.9390  -46.8430 H         1 UNK         0.0600 
    225 H225       -4.6317  -17.5604  -48.5762 H         1 UNK         0.3000 
    226 H226       -2.6955  -16.6369  -50.3881 H         1 UNK         0.0600 
    227 H227       -3.6704  -15.2081  -48.6608 H         1 UNK         0.0600 
    228 H228       -3.9627  -14.4812  -50.2287 H         1 UNK         0.0600 
    229 H229       -5.2705  -15.3170  -49.3999 H         1 UNK         0.0600 
    230 H230       -5.9866  -17.7736  -51.0413 H         1 UNK         0.3000 
    231 H231       -6.1063  -16.6610  -53.7320 H         1 UNK         0.0600 
    232 H232       -8.1698  -16.9629  -52.4423 H         1 UNK         0.0600 
    233 H233       -7.8741  -18.6893  -52.2836 H         1 UNK         0.0600 
    234 H234       -8.2149  -17.9954  -53.8621 H         1 UNK         0.0600 
    235 H235       -4.4901  -19.4086  -52.3784 H         1 UNK         0.3000 
    236 H236       -4.5728  -21.0313  -54.8224 H         1 UNK         0.0600 
    237 H237       -3.0540  -22.5102  -53.6347 H         1 UNK         0.0600 
    238 H238       -2.7518  -21.3233  -52.3796 H         1 UNK         0.0600 
    239 H239       -4.3350  -22.0764  -52.5186 H         1 UNK         0.0600 
    240 H240       -2.2343  -18.9115  -53.0797 H         1 UNK         0.3000 
    241 H241       -0.2847  -19.0996  -55.2489 H         1 UNK         0.0600 
    242 H242       -2.3703  -15.6151  -55.6498 H         1 UNK         0.3800 
    243 H243       -2.7600  -16.6408  -54.2949 H         1 UNK         0.3800 
    244 H244        1.1497  -17.6445  -53.8360 H         1 UNK         0.0800 
    245 H245        0.6754  -19.1305  -53.0798 H         1 UNK         0.0800 
    246 H246       -0.9541  -18.1564  -49.8698 H         1 UNK         0.0800 
    247 H247       -0.7065  -19.4169  -51.0516 H         1 UNK         0.0800 
@<TRIPOS>BOND
     1    1    2 1    
     2    1  127 1    
     3    1  128 1    
     4    1  129 1    
     5    2    3 2    
     6    2    4 am   BACKBONE|DICT|INTERRES
     7    4    5 1    
     8    4  130 1    
     9    5    6 1    
    10    5   65 1    
    11    5  131 1    
    12    6    7 1    
    13    6  132 1    
    14    6  133 1    
    15    7    8 1    
    16    8    9 1    
    17    8  134 1    
    18    8  135 1    
    19    9   10 ar   
    20    9   14 ar   
    21   10   11 ar   
    22   10  136 1    
    23   11   12 ar   
    24   11  126 1    
    25   12   13 ar   
    26   12  137 1    
    27   13   14 ar   
    28   13   15 1    
    29   14  138 1    
    30   15   16 1    
    31   15  139 1    
    32   15  140 1    
    33   16   17 1    
    34   17   18 1    
    35   17  141 1    
    36   17  142 1    
    37   18   19 1    
    38   18   67 1    
    39   18  143 1    
    40   19   20 am   BACKBONE|DICT|INTERRES
    41   19  144 1    
    42   20   21 2    
    43   20   22 1    
    44   22   23 1    
    45   22   24 1    
    46   22  145 1    
    47   23  146 1    
    48   23  147 1    
    49   23  148 1    
    50   24   25 am   BACKBONE|DICT|INTERRES
    51   24  149 1    
    52   25   26 2    
    53   25   27 1    
    54   27   28 1    
    55   27   29 1    
    56   27  150 1    
    57   28  151 1    
    58   28  152 1    
    59   28  153 1    
    60   29   30 am   BACKBONE|DICT|INTERRES
    61   29  154 1    
    62   30   31 2    
    63   30   32 1    
    64   32   33 1    
    65   32   34 1    
    66   32  155 1    
    67   33  156 1    
    68   33  157 1    
    69   33  158 1    
    70   34   35 am   BACKBONE|DICT|INTERRES
    71   34  159 1    
    72   35   36 2    
    73   35   37 1    
    74   37   38 1    
    75   37   39 1    
    76   37  160 1    
    77   38  161 1    
    78   38  162 1    
    79   38  163 1    
    80   39   40 am   BACKBONE|DICT|INTERRES
    81   39  164 1    
    82   40   41 2    
    83   40   42 1    
    84   42   43 1    
    85   42   44 1    
    86   42  165 1    
    87   43  166 1    
    88   43  167 1    
    89   43  168 1    
    90   44   45 am   BACKBONE|DICT|INTERRES
    91   44  169 1    
    92   45   46 2    
    93   45   47 1    
    94   47   48 1    
    95   47   49 1    
    96   47  170 1    
    97   48  171 1    
    98   48  172 1    
    99   48  173 1    
   100   49   50 am   BACKBONE|DICT|INTERRES
   101   49  174 1    
   102   50   51 2    
   103   50   52 1    
   104   52   53 1    
   105   52   54 1    
   106   52  175 1    
   107   53  176 1    
   108   53  177 1    
   109   53  178 1    
   110   54   55 am   BACKBONE|DICT|INTERRES
   111   54  179 1    
   112   55   56 2    
   113   55   57 1    
   114   57   58 1    
   115   57   59 1    
   116   57  180 1    
   117   58  181 1    
   118   58  182 1    
   119   58  183 1    
   120   59   60 am   BACKBONE|DICT|INTERRES
   121   59  184 1    
   122   60   61 2    
   123   60   62 1    
   124   62   63 1    
   125   62   64 1    
   126   62  185 1    
   127   63  186 1    
   128   63  187 1    
   129   63  188 1    
   130   64   65 am   BACKBONE|DICT|INTERRES
   131   64  189 1    
   132   65   66 2    
   133   67   68 2    
   134   67   69 am   BACKBONE|DICT|INTERRES
   135   69   70 1    
   136   69  190 1    
   137   70   71 1    
   138   70   72 1    
   139   70  191 1    
   140   71  192 1    
   141   71  193 1    
   142   71  194 1    
   143   72   73 2    
   144   72   74 am   BACKBONE|DICT|INTERRES
   145   74   75 1    
   146   74  195 1    
   147   75   76 1    
   148   75   77 1    
   149   75  196 1    
   150   76  197 1    
   151   76  198 1    
   152   76  199 1    
   153   77   78 2    
   154   77   79 am   BACKBONE|DICT|INTERRES
   155   79   80 1    
   156   79  200 1    
   157   80   81 1    
   158   80   82 1    
   159   80  201 1    
   160   81  202 1    
   161   81  203 1    
   162   81  204 1    
   163   82   83 2    
   164   82   84 am   BACKBONE|DICT|INTERRES
   165   84   85 1    
   166   84  205 1    
   167   85   86 1    
   168   85   87 1    
   169   85  206 1    
   170   86  207 1    
   171   86  208 1    
   172   86  209 1    
   173   87   88 2    
   174   87   89 am   BACKBONE|DICT|INTERRES
   175   89   90 1    
   176   89  210 1    
   177   90   91 1    
   178   90   92 1    
   179   90  211 1    
   180   91  212 1    
   181   91  213 1    
   182   91  214 1    
   183   92   93 2    
   184   92   94 am   BACKBONE|DICT|INTERRES
   185   94   95 1    
   186   94  215 1    
   187   95   96 1    
   188   95   97 1    
   189   95  216 1    
   190   96  217 1    
   191   96  218 1    
   192   96  219 1    
   193   97   98 2    
   194   97   99 am   BACKBONE|DICT|INTERRES
   195   99  100 1    
   196   99  220 1    
   197  100  101 1    
   198  100  102 1    
   199  100  221 1    
   200  101  222 1    
   201  101  223 1    
   202  101  224 1    
   203  102  103 2    
   204  102  104 am   BACKBONE|DICT|INTERRES
   205  104  105 1    
   206  104  225 1    
   207  105  106 1    
   208  105  107 1    
   209  105  226 1    
   210  106  227 1    
   211  106  228 1    
   212  106  229 1    
   213  107  108 2    
   214  107  109 am   BACKBONE|DICT|INTERRES
   215  109  110 1    
   216  109  230 1    
   217  110  111 1    
   218  110  112 1    
   219  110  231 1    
   220  111  232 1    
   221  111  233 1    
   222  111  234 1    
   223  112  113 2    
   224  112  114 am   BACKBONE|DICT|INTERRES
   225  114  115 1    
   226  114  235 1    
   227  115  116 1    
   228  115  117 1    
   229  115  236 1    
   230  116  237 1    
   231  116  238 1    
   232  116  239 1    
   233  117  118 2    
   234  117  119 am   BACKBONE|DICT|INTERRES
   235  119  120 1    
   236  119  240 1    
   237  120  121 1    
   238  120  124 1    
   239  120  241 1    
   240  121  122 am   BACKBONE|DICT|INTERRES
   241  121  123 2    
   242  122  242 1    
   243  122  243 1    
   244  124  125 1    
   245  124  244 1    
   246  124  245 1    
   247  125  126 1    
   248  126  246 1    
   249  126  247 1    
@<TRIPOS>SUBSTRUCTURE
     1 UNK         1 GROUP             0       ****    0 ROOT    
