@<TRIPOS>MOLECULE
3R540
247   249    1
SMALL
USER_CHARGES


@<TRIPOS>ATOM
      1 CA         -1.4679   -9.0654  -47.1200 C.3       0 UNK        -0.1800 
      2 C          -0.9969  -10.5085  -47.0248 C.2       0 UNK         0.5000 
      3 O          -0.6817  -10.9762  -45.9305 O.2       0 UNK        -0.5000 
      4 N          -0.9637  -11.2214  -48.1606 N.am      1 UNK        -0.5000 
      5 CA         -0.5106  -12.6155  -48.2997 C.3       1 UNK         0.1400 
      6 C6         -0.5905  -13.0881  -49.7760 C.3       23 UNK        -0.0398 
      7 S7          0.7200  -14.2738  -50.2144 S.3       23 UNK        -0.2404 
      8 C8         -0.1820  -15.8541  -50.1822 C.3       23 UNK        -0.0205 
      9 C9          0.7661  -17.0154  -50.4343 C.ar      23 UNK        -0.0193 
     10 C10         1.1585  -17.3275  -51.7390 C.ar      23 UNK        -0.1150 
     11 C11         2.0447  -18.3846  -51.9888 C.ar      23 UNK        -0.0193 
     12 C12         2.5570  -19.1047  -50.9047 C.ar      23 UNK        -0.1150 
     13 C13         2.1823  -18.7958  -49.5940 C.ar      23 UNK        -0.0193 
     14 C14         1.2700  -17.7626  -49.3668 C.ar      23 UNK        -0.1150 
     15 C15         2.7981  -19.5538  -48.4272 C.3       23 UNK        -0.0205 
     16 S16         1.9549  -21.1308  -48.1056 S.3       23 UNK        -0.2404 
     17 C17         0.4533  -20.5646  -47.2423 C.3       23 UNK        -0.0398 
     18 CA         -0.4903  -21.7463  -46.9301 C.3       11 UNK         0.1400 
     19 N           0.1154  -22.7300  -46.0320 N.am      11 UNK        -0.5000 
     20 C          -0.3297  -23.9839  -45.8760 C.2       10 UNK         0.5000 
     21 O          -1.2951  -24.4469  -46.4817 O.2       10 UNK        -0.5000 
     22 CA          0.3941  -24.8361  -44.8180 C.3       10 UNK         0.1400 
     23 CB          1.6684  -25.4623  -45.4026 C.3       10 UNK        -0.1800 
     24 N           0.7378  -24.0568  -43.6271 N.am      10 UNK        -0.5000 
     25 C          -0.1522  -23.4715  -42.8170 C.2       9 UNK         0.5000 
     26 O          -1.3704  -23.5822  -42.9584 O.2       9 UNK        -0.5000 
     27 CA          0.3971  -22.5549  -41.7120 C.3       9 UNK         0.1400 
     28 CB          0.8274  -23.3565  -40.4695 C.3       9 UNK        -0.1800 
     29 N           1.4472  -21.6354  -42.1709 N.am      9 UNK        -0.5000 
     30 C           2.7240  -21.8897  -42.5012 C.2       8 UNK         0.5000 
     31 O           3.2010  -23.0245  -42.5372 O.2       8 UNK        -0.5000 
     32 CA          3.6203  -20.6890  -42.8878 C.3       8 UNK         0.1400 
     33 CB          3.9231  -20.7214  -44.3948 C.3       8 UNK        -0.1800 
     34 N           3.0484  -19.3805  -42.5567 N.am      8 UNK        -0.5000 
     35 C           2.7926  -18.9273  -41.3187 C.2       7 UNK         0.5000 
     36 O           3.1739  -19.5002  -40.2977 O.2       7 UNK        -0.5000 
     37 CA          1.9225  -17.6548  -41.1858 C.3       7 UNK         0.1400 
     38 CB          2.7864  -16.4559  -40.7672 C.3       7 UNK        -0.1800 
     39 N           1.1719  -17.2902  -42.3922 N.am      7 UNK        -0.5000 
     40 C           0.3101  -18.0666  -43.0665 C.2       6 UNK         0.5000 
     41 O          -0.0246  -19.1912  -42.6957 O.2       6 UNK        -0.5000 
     42 CA         -0.1901  -17.5431  -44.4288 C.3       6 UNK         0.1400 
     43 CB         -1.5991  -16.9606  -44.3003 C.3       6 UNK        -0.1800 
     44 N           0.6850  -16.5414  -45.0461 N.am      6 UNK        -0.5000 
     45 C           1.9809  -16.7128  -45.3481 C.2       5 UNK         0.5000 
     46 O           2.5804  -17.7752  -45.1838 O.2       5 UNK        -0.5000 
     47 CA          2.7461  -15.4792  -45.8525 C.3       5 UNK         0.1400 
     48 CB          2.7344  -15.4074  -47.3813 C.3       5 UNK        -0.1800 
     49 N           2.1889  -14.2392  -45.3091 N.am      5 UNK        -0.5000 
     50 C           2.5929  -13.6872  -44.1587 C.2       4 UNK         0.5000 
     51 O           3.4601  -14.1728  -43.4323 O.2       4 UNK        -0.5000 
     52 CA          1.9177  -12.3682  -43.7529 C.3       4 UNK         0.1400 
     53 CB          2.4236  -11.2076  -44.6245 C.3       4 UNK        -0.1800 
     54 N           0.4576  -12.4171  -43.8143 N.am      4 UNK        -0.5000 
     55 C          -0.3170  -13.1134  -42.9710 C.2       3 UNK         0.5000 
     56 O           0.1193  -13.9092  -42.1391 O.2       3 UNK        -0.5000 
     57 CA         -1.8313  -12.8717  -43.0637 C.3       3 UNK         0.1400 
     58 CB         -2.1965  -11.4614  -42.5716 C.3       3 UNK        -0.1800 
     59 N          -2.2949  -13.0414  -44.4375 N.am      3 UNK        -0.5000 
     60 C          -3.2380  -13.9096  -44.8244 C.2       2 UNK         0.5000 
     61 O          -3.9022  -14.5848  -44.0373 O.2       2 UNK        -0.5000 
     62 CA         -3.4927  -14.0781  -46.3380 C.3       2 UNK         0.1400 
     63 CB         -4.9296  -13.6690  -46.6997 C.3       2 UNK        -0.1800 
     64 N          -2.5710  -13.3437  -47.2052 N.am      2 UNK        -0.5000 
     65 C          -1.2629  -13.5879  -47.3646 C.2       1 UNK         0.5000 
     66 O          -0.6481  -14.4734  -46.7678 O.2       1 UNK        -0.5000 
     67 C          -1.8561  -21.2592  -46.4071 C.2       11 UNK         0.5000 
     68 O          -2.7470  -21.0249  -47.2220 O.2       11 UNK        -0.5000 
     69 N          -2.0280  -21.1588  -45.0781 N.am      12 UNK        -0.5000 
     70 CA         -3.3162  -20.8540  -44.4442 C.3       12 UNK         0.1400 
     71 CB         -3.1375  -20.5624  -42.9465 C.3       12 UNK        -0.1800 
     72 C          -4.3375  -21.9846  -44.6474 C.2       12 UNK         0.5000 
     73 O          -5.4776  -21.7099  -45.0218 O.2       12 UNK        -0.5000 
     74 N          -3.8937  -23.2361  -44.4572 N.am      13 UNK        -0.5000 
     75 CA         -4.6776  -24.4487  -44.7120 C.3       13 UNK         0.1400 
     76 CB         -3.8822  -25.6762  -44.2433 C.3       13 UNK        -0.1800 
     77 C          -5.0957  -24.5957  -46.1892 C.2       13 UNK         0.5000 
     78 O          -6.1892  -25.0870  -46.4685 O.2       13 UNK        -0.5000 
     79 N          -4.2396  -24.1148  -47.0999 N.am      14 UNK        -0.5000 
     80 CA         -4.4835  -24.0198  -48.5383 C.3       14 UNK         0.1400 
     81 CB         -3.1367  -24.1314  -49.2721 C.3       14 UNK        -0.1800 
     82 C          -5.2565  -22.7474  -48.9568 C.2       14 UNK         0.5000 
     83 O          -5.3174  -22.4605  -50.1532 O.2       14 UNK        -0.5000 
     84 N          -5.8285  -22.0098  -47.9917 N.am      15 UNK        -0.5000 
     85 CA         -6.6676  -20.8173  -48.1572 C.3       15 UNK         0.1400 
     86 CB         -7.9805  -21.1723  -48.8872 C.3       15 UNK        -0.1800 
     87 C          -5.9084  -19.6463  -48.8108 C.2       15 UNK         0.5000 
     88 O          -6.3142  -19.1496  -49.8613 O.2       15 UNK        -0.5000 
     89 N          -4.7888  -19.2590  -48.1836 N.am      16 UNK        -0.5000 
     90 CA         -3.8030  -18.2755  -48.6536 C.3       16 UNK         0.1400 
     91 CB         -4.4158  -16.8636  -48.7619 C.3       16 UNK        -0.1800 
     92 C          -3.1076  -18.7447  -49.9481 C.2       16 UNK         0.5000 
     93 O          -2.8687  -17.9470  -50.8550 O.2       16 UNK        -0.5000 
     94 N          -2.8249  -20.0551  -49.9961 N.am      17 UNK        -0.5000 
     95 CA         -2.2230  -20.8080  -51.0995 C.3       17 UNK         0.1400 
     96 CB         -0.7660  -20.3709  -51.3190 C.3       17 UNK        -0.1800 
     97 C          -3.0518  -20.8130  -52.4028 C.2       17 UNK         0.5000 
     98 O          -2.5049  -21.0960  -53.4704 O.2       17 UNK        -0.5000 
     99 N          -4.3641  -20.5608  -52.3009 N.am      18 UNK        -0.5000 
    100 CA        -5.3124  -20.6428  -53.4112 C.3       18 UNK         0.1400 
    101 CB        -6.6497  -20.0134  -52.9982 C.3       18 UNK        -0.1800 
    102 C         -5.5189  -22.0907  -53.8870 C.2       18 UNK         0.5000 
    103 O         -5.5515  -22.3332  -55.0932 O.2       18 UNK        -0.5000 
    104 N         -5.5906  -23.0374  -52.9392 N.am      19 UNK        -0.5000 
    105 CA        -5.6839  -24.4754  -53.2136 C.3       19 UNK         0.1400 
    106 CB        -6.1227  -25.2106  -51.9395 C.3       19 UNK        -0.1800 
    107 C         -4.3636  -25.0635  -53.7507 C.2       19 UNK         0.5000 
    108 O         -4.3869  -26.0818  -54.4417 O.2       19 UNK        -0.5000 
    109 N         -3.2437  -24.3911  -53.4503 N.am      20 UNK        -0.5000 
    110 CA        -1.9135  -24.6749  -53.9928 C.3       20 UNK         0.1400 
    111 CB        -0.8576  -24.2191  -52.9725 C.3       20 UNK        -0.1800 
    112 C         -1.6803  -24.0134  -55.3700 C.2       20 UNK         0.5000 
    113 O         -0.6206  -24.2210  -55.9619 O.2       20 UNK        -0.5000 
    114 N         -2.6660  -23.2405  -55.8528 N.am      21 UNK        -0.5000 
    115 CA        -2.7108  -22.5265  -57.1300 C.3       21 UNK         0.1400 
    116 CB        -2.6835  -23.5144  -58.3159 C.3       21 UNK        -0.1800 
    117 C         -1.6667  -21.3973  -57.2525 C.2       21 UNK         0.5000 
    118 O         -1.1902  -21.1260  -58.3569 O.2       21 UNK        -0.5000 
    119 N         -1.3425  -20.7370  -56.1318 N.am      22 UNK        -0.5000 
    120 CA        -0.5362  -19.5081  -56.1178 C.3       22 UNK         0.1400 
    121 C         -1.3308  -18.2990  -56.6923 C.2       22 UNK         0.5000 
    122 N         -0.7002  -17.4536  -57.4962 N.am      22 UNK        -0.7600 
    123 O         -2.5082  -18.1077  -56.3948 O.2       22 UNK        -0.5000 
    124 C124        0.0190  -19.2061  -54.7027 C.3       23 UNK        -0.0398 
    125 S125        1.4916  -18.1260  -54.7718 S.3       23 UNK        -0.2404 
    126 C126        2.5134  -18.7597  -53.3964 C.3       23 UNK        -0.0205 
    127 H127       -1.7247   -8.7883  -48.1426 H         1 UNK         0.0600 
    128 H128       -2.3484   -8.9179  -46.4948 H         1 UNK         0.0600 
    129 H129       -0.6842   -8.3933  -46.7709 H         1 UNK         0.0600 
    130 H130       -1.2438  -10.7680  -49.0188 H         1 UNK         0.3000 
    131 H131        0.5359  -12.6174  -47.9870 H         1 UNK         0.0600 
    132 H132       -0.4491  -12.2389  -50.4460 H         1 UNK         0.0800 
    133 H133       -1.5732  -13.4918  -50.0287 H         1 UNK         0.0800 
    134 H134       -0.9662  -15.8463  -50.9409 H         1 UNK         0.0800 
    135 H135       -0.6811  -15.9765  -49.2198 H         1 UNK         0.0800 
    136 H136        0.7694  -16.7324  -52.5517 H         1 UNK         0.1150 
    137 H137        3.2602  -19.9071  -51.0793 H         1 UNK         0.1150 
    138 H138        0.9727  -17.5229  -48.3561 H         1 UNK         0.1150 
    139 H139        3.8475  -19.7585  -48.6440 H         1 UNK         0.0800 
    140 H140        2.7937  -18.9435  -47.5244 H         1 UNK         0.0800 
    141 H141        0.7525  -20.0505  -46.3287 H         1 UNK         0.0800 
    142 H142       -0.0506  -19.8303  -47.8731 H         1 UNK         0.0800 
    143 H143       -0.6892  -22.2514  -47.8776 H         1 UNK         0.0600 
    144 H144        0.9275  -22.4361  -45.5112 H         1 UNK         0.3000 
    145 H145       -0.2804  -25.6398  -44.5157 H         1 UNK         0.0600 
    146 H146        2.1495  -26.1222  -44.6804 H         1 UNK         0.0600 
    147 H147        1.4397  -26.0594  -46.2864 H         1 UNK         0.0600 
    148 H148        2.3936  -24.7024  -45.6971 H         1 UNK         0.0600 
    149 H149        1.7227  -23.9113  -43.4251 H         1 UNK         0.3000 
    150 H150       -0.4287  -21.9108  -41.4061 H         1 UNK         0.0600 
    151 H151       -0.0109  -23.9286  -40.0700 H         1 UNK         0.0600 
    152 H152        1.1773  -22.6952  -39.6767 H         1 UNK         0.0600 
    153 H153        1.6249  -24.0655  -40.6923 H         1 UNK         0.0600 
    154 H154        1.1333  -20.6721  -42.2541 H         1 UNK         0.3000 
    155 H155        4.5601  -20.7950  -42.3426 H         1 UNK         0.0600 
    156 H156        4.3912  -21.6631  -44.6840 H         1 UNK         0.0600 
    157 H157        4.6064  -19.9203  -44.6775 H         1 UNK         0.0600 
    158 H158        3.0158  -20.6091  -44.9897 H         1 UNK         0.0600 
    159 H159        2.7396  -18.8221  -43.3449 H         1 UNK         0.3000 
    160 H160        1.1928  -17.8459  -40.3968 H         1 UNK         0.0600 
    161 H161        3.5350  -16.2195  -41.5243 H         1 UNK         0.0600 
    162 H162        2.1778  -15.5651  -40.6085 H         1 UNK         0.0600 
    163 H163        3.3146  -16.6589  -39.8347 H         1 UNK         0.0600 
    164 H164        1.3742  -16.3778  -42.7757 H         1 UNK         0.3000 
    165 H165       -0.2419  -18.3963  -45.1046 H         1 UNK         0.0600 
    166 H166       -1.9824  -16.6511  -45.2719 H         1 UNK         0.0600 
    167 H167       -2.2991  -17.6917  -43.8980 H         1 UNK         0.0600 
    168 H168       -1.6086  -16.0971  -43.6349 H         1 UNK         0.0600 
    169 H169        0.2556  -15.6559  -45.2883 H         1 UNK         0.3000 
    170 H170        3.7864  -15.5843  -45.5368 H         1 UNK         0.0600 
    171 H171        3.2061  -16.2881  -47.8179 H         1 UNK         0.0600 
    172 H172        1.7166  -15.3489  -47.7615 H         1 UNK         0.0600 
    173 H173        3.2782  -14.5348  -47.7431 H         1 UNK         0.0600 
    174 H174        1.4374  -13.8070  -45.8280 H         1 UNK         0.3000 
    175 H175        2.2013  -12.1575  -42.7194 H         1 UNK         0.0600 
    176 H176        2.1459  -11.3363  -45.6714 H         1 UNK         0.0600 
    177 H177        2.0146  -10.2551  -44.2869 H         1 UNK         0.0600 
    178 H178        3.5106  -11.1292  -44.5796 H         1 UNK         0.0600 
    179 H179        0.0207  -11.8001  -44.4964 H         1 UNK         0.3000 
    180 H180       -2.3109  -13.5943  -42.4001 H         1 UNK         0.0600 
    181 H181       -1.8331  -11.2946  -41.5568 H         1 UNK         0.0600 
    182 H182       -1.7689  -10.6853  -43.2076 H         1 UNK         0.0600 
    183 H183       -3.2774  -11.3209  -42.5573 H         1 UNK         0.0600 
    184 H184       -1.7958  -12.5170  -45.1466 H         1 UNK         0.3000 
    185 H185       -3.3756  -15.1402  -46.5576 H         1 UNK         0.0600 
    186 H186       -5.6585  -14.2374  -46.1206 H         1 UNK         0.0600 
    187 H187       -5.1068  -12.6109  -46.5030 H         1 UNK         0.0600 
    188 H188       -5.1408  -13.8560  -47.7528 H         1 UNK         0.0600 
    189 H189       -2.9663  -12.5607  -47.7054 H         1 UNK         0.3000 
    190 H190       -1.2663  -21.3998  -44.4623 H         1 UNK         0.3000 
    191 H191       -3.7188  -19.9538  -44.9136 H         1 UNK         0.0600 
    192 H192       -4.0991  -20.3552  -42.4751 H         1 UNK         0.0600 
    193 H193       -2.5119  -19.6897  -42.7802 H         1 UNK         0.0600 
    194 H194       -2.6913  -21.4008  -42.4139 H         1 UNK         0.0600 
    195 H195       -2.9509  -23.3710  -44.1029 H         1 UNK         0.3000 
    196 H196       -5.5900  -24.3849  -44.1156 H         1 UNK         0.0600 
    197 H197       -4.4587  -26.5916  -44.3822 H         1 UNK         0.0600 
    198 H198       -3.6343  -25.6044  -43.1841 H         1 UNK         0.0600 
    199 H199       -2.9499  -25.7881  -44.7970 H         1 UNK         0.0600 
    200 H200       -3.3351  -23.7918  -46.7778 H         1 UNK         0.3000 
    201 H201       -5.0976  -24.8694  -48.8411 H         1 UNK         0.0600 
    202 H202       -2.6382  -25.0710  -49.0332 H         1 UNK         0.0600 
    203 H203       -2.4651  -23.3219  -48.9914 H         1 UNK         0.0600 
    204 H204       -3.2626  -24.1021  -50.3546 H         1 UNK         0.0600 
    205 H205       -5.6785  -22.2902  -47.0296 H         1 UNK         0.3000 
    206 H206       -6.9342  -20.4868  -47.1523 H         1 UNK         0.0600 
    207 H207       -8.5141  -21.9697  -48.3701 H         1 UNK         0.0600 
    208 H208       -8.6471  -20.3103  -48.9303 H         1 UNK         0.0600 
    209 H209       -7.8043  -21.4986  -49.9125 H         1 UNK         0.0600 
    210 H210       -4.4870  -19.8119  -47.3904 H         1 UNK         0.3000 
    211 H211       -3.0253  -18.2349  -47.8893 H         1 UNK         0.0600 
    212 H212       -5.1316  -16.7915  -49.5811 H         1 UNK         0.0600 
    213 H213       -3.6415  -16.1167  -48.9418 H         1 UNK         0.0600 
    214 H214       -4.9316  -16.5869  -47.8428 H         1 UNK         0.0600 
    215 H215       -3.0519  -20.5955  -49.1678 H         1 UNK         0.3000 
    216 H216       -2.1966  -21.8462  -50.7736 H         1 UNK         0.0600 
    217 H217       -0.2000  -20.4058  -50.3890 H         1 UNK         0.0600 
    218 H218       -0.7160  -19.3545  -51.7046 H         1 UNK         0.0600 
    219 H219       -0.2531  -21.0175  -52.0298 H         1 UNK         0.0600 
    220 H220       -4.7533  -20.3736  -51.3857 H         1 UNK         0.3000 
    221 H221       -4.9076  -20.0677  -54.2469 H         1 UNK         0.0600 
    222 H222       -7.0997  -20.5418  -52.1568 H         1 UNK         0.0600 
    223 H223       -6.5206  -18.9707  -52.7074 H         1 UNK         0.0600 
    224 H224       -7.3641  -20.0364  -53.8219 H         1 UNK         0.0600 
    225 H225       -5.5430  -22.7593  -51.9600 H         1 UNK         0.3000 
    226 H226       -6.4511  -24.6280  -53.9756 H         1 UNK         0.0600 
    227 H227       -7.0373  -24.7831  -51.5279 H         1 UNK         0.0600 
    228 H228       -6.3179  -26.2635  -52.1463 H         1 UNK         0.0600 
    229 H229       -5.3537  -25.1678  -51.1701 H         1 UNK         0.0600 
    230 H230       -3.3323  -23.5510  -52.8994 H         1 UNK         0.3000 
    231 H231       -1.8067  -25.7530  -54.1286 H         1 UNK         0.0600 
    232 H232       -0.8706  -23.1392  -52.8361 H         1 UNK         0.0600 
    233 H233       -1.0189  -24.6840  -51.9997 H         1 UNK         0.0600 
    234 H234        0.1458  -24.4931  -53.3002 H         1 UNK         0.0600 
    235 H235       -3.4904  -23.1205  -55.2791 H         1 UNK         0.3000 
    236 H236       -3.6802  -22.0271  -57.1527 H         1 UNK         0.0600 
    237 H237       -3.4435  -24.2874  -58.2022 H         1 UNK         0.0600 
    238 H238       -2.8841  -23.0015  -59.2572 H         1 UNK         0.0600 
    239 H239       -1.7153  -24.0061  -58.4130 H         1 UNK         0.0600 
    240 H240       -1.7972  -20.9859  -55.2571 H         1 UNK         0.3000 
    241 H241        0.3179  -19.6934  -56.7730 H         1 UNK         0.0600 
    242 H242       -1.2013  -16.6615  -57.8673 H         1 UNK         0.3800 
    243 H243        0.2716  -17.5807  -57.7339 H         1 UNK         0.3800 
    244 H244        0.3067  -20.1394  -54.2179 H         1 UNK         0.0800 
    245 H245       -0.7406  -18.7532  -54.0630 H         1 UNK         0.0800 
    246 H246        2.5882  -19.8447  -53.4850 H         1 UNK         0.0800 
    247 H247        3.5250  -18.3731  -53.5248 H         1 UNK         0.0800 
@<TRIPOS>BOND
     1    1    2 1    
     2    1  127 1    
     3    1  128 1    
     4    1  129 1    
     5    2    3 2    
     6    2    4 am   BACKBONE|DICT|INTERRES
     7    4    5 1    
     8    4  130 1    
     9    5    6 1    
    10    5   65 1    
    11    5  131 1    
    12    6    7 1    
    13    6  132 1    
    14    6  133 1    
    15    7    8 1    
    16    8    9 1    
    17    8  134 1    
    18    8  135 1    
    19    9   10 ar   
    20    9   14 ar   
    21   10   11 ar   
    22   10  136 1    
    23   11   12 ar   
    24   11  126 1    
    25   12   13 ar   
    26   12  137 1    
    27   13   14 ar   
    28   13   15 1    
    29   14  138 1    
    30   15   16 1    
    31   15  139 1    
    32   15  140 1    
    33   16   17 1    
    34   17   18 1    
    35   17  141 1    
    36   17  142 1    
    37   18   19 1    
    38   18   67 1    
    39   18  143 1    
    40   19   20 am   BACKBONE|DICT|INTERRES
    41   19  144 1    
    42   20   21 2    
    43   20   22 1    
    44   22   23 1    
    45   22   24 1    
    46   22  145 1    
    47   23  146 1    
    48   23  147 1    
    49   23  148 1    
    50   24   25 am   BACKBONE|DICT|INTERRES
    51   24  149 1    
    52   25   26 2    
    53   25   27 1    
    54   27   28 1    
    55   27   29 1    
    56   27  150 1    
    57   28  151 1    
    58   28  152 1    
    59   28  153 1    
    60   29   30 am   BACKBONE|DICT|INTERRES
    61   29  154 1    
    62   30   31 2    
    63   30   32 1    
    64   32   33 1    
    65   32   34 1    
    66   32  155 1    
    67   33  156 1    
    68   33  157 1    
    69   33  158 1    
    70   34   35 am   BACKBONE|DICT|INTERRES
    71   34  159 1    
    72   35   36 2    
    73   35   37 1    
    74   37   38 1    
    75   37   39 1    
    76   37  160 1    
    77   38  161 1    
    78   38  162 1    
    79   38  163 1    
    80   39   40 am   BACKBONE|DICT|INTERRES
    81   39  164 1    
    82   40   41 2    
    83   40   42 1    
    84   42   43 1    
    85   42   44 1    
    86   42  165 1    
    87   43  166 1    
    88   43  167 1    
    89   43  168 1    
    90   44   45 am   BACKBONE|DICT|INTERRES
    91   44  169 1    
    92   45   46 2    
    93   45   47 1    
    94   47   48 1    
    95   47   49 1    
    96   47  170 1    
    97   48  171 1    
    98   48  172 1    
    99   48  173 1    
   100   49   50 am   BACKBONE|DICT|INTERRES
   101   49  174 1    
   102   50   51 2    
   103   50   52 1    
   104   52   53 1    
   105   52   54 1    
   106   52  175 1    
   107   53  176 1    
   108   53  177 1    
   109   53  178 1    
   110   54   55 am   BACKBONE|DICT|INTERRES
   111   54  179 1    
   112   55   56 2    
   113   55   57 1    
   114   57   58 1    
   115   57   59 1    
   116   57  180 1    
   117   58  181 1    
   118   58  182 1    
   119   58  183 1    
   120   59   60 am   BACKBONE|DICT|INTERRES
   121   59  184 1    
   122   60   61 2    
   123   60   62 1    
   124   62   63 1    
   125   62   64 1    
   126   62  185 1    
   127   63  186 1    
   128   63  187 1    
   129   63  188 1    
   130   64   65 am   BACKBONE|DICT|INTERRES
   131   64  189 1    
   132   65   66 2    
   133   67   68 2    
   134   67   69 am   BACKBONE|DICT|INTERRES
   135   69   70 1    
   136   69  190 1    
   137   70   71 1    
   138   70   72 1    
   139   70  191 1    
   140   71  192 1    
   141   71  193 1    
   142   71  194 1    
   143   72   73 2    
   144   72   74 am   BACKBONE|DICT|INTERRES
   145   74   75 1    
   146   74  195 1    
   147   75   76 1    
   148   75   77 1    
   149   75  196 1    
   150   76  197 1    
   151   76  198 1    
   152   76  199 1    
   153   77   78 2    
   154   77   79 am   BACKBONE|DICT|INTERRES
   155   79   80 1    
   156   79  200 1    
   157   80   81 1    
   158   80   82 1    
   159   80  201 1    
   160   81  202 1    
   161   81  203 1    
   162   81  204 1    
   163   82   83 2    
   164   82   84 am   BACKBONE|DICT|INTERRES
   165   84   85 1    
   166   84  205 1    
   167   85   86 1    
   168   85   87 1    
   169   85  206 1    
   170   86  207 1    
   171   86  208 1    
   172   86  209 1    
   173   87   88 2    
   174   87   89 am   BACKBONE|DICT|INTERRES
   175   89   90 1    
   176   89  210 1    
   177   90   91 1    
   178   90   92 1    
   179   90  211 1    
   180   91  212 1    
   181   91  213 1    
   182   91  214 1    
   183   92   93 2    
   184   92   94 am   BACKBONE|DICT|INTERRES
   185   94   95 1    
   186   94  215 1    
   187   95   96 1    
   188   95   97 1    
   189   95  216 1    
   190   96  217 1    
   191   96  218 1    
   192   96  219 1    
   193   97   98 2    
   194   97   99 am   BACKBONE|DICT|INTERRES
   195   99  100 1    
   196   99  220 1    
   197  100  101 1    
   198  100  102 1    
   199  100  221 1    
   200  101  222 1    
   201  101  223 1    
   202  101  224 1    
   203  102  103 2    
   204  102  104 am   BACKBONE|DICT|INTERRES
   205  104  105 1    
   206  104  225 1    
   207  105  106 1    
   208  105  107 1    
   209  105  226 1    
   210  106  227 1    
   211  106  228 1    
   212  106  229 1    
   213  107  108 2    
   214  107  109 am   BACKBONE|DICT|INTERRES
   215  109  110 1    
   216  109  230 1    
   217  110  111 1    
   218  110  112 1    
   219  110  231 1    
   220  111  232 1    
   221  111  233 1    
   222  111  234 1    
   223  112  113 2    
   224  112  114 am   BACKBONE|DICT|INTERRES
   225  114  115 1    
   226  114  235 1    
   227  115  116 1    
   228  115  117 1    
   229  115  236 1    
   230  116  237 1    
   231  116  238 1    
   232  116  239 1    
   233  117  118 2    
   234  117  119 am   BACKBONE|DICT|INTERRES
   235  119  120 1    
   236  119  240 1    
   237  120  121 1    
   238  120  124 1    
   239  120  241 1    
   240  121  122 am   BACKBONE|DICT|INTERRES
   241  121  123 2    
   242  122  242 1    
   243  122  243 1    
   244  124  125 1    
   245  124  244 1    
   246  124  245 1    
   247  125  126 1    
   248  126  246 1    
   249  126  247 1    
@<TRIPOS>SUBSTRUCTURE
     1 UNK         1 GROUP             0       ****    0 ROOT    
