@<TRIPOS>MOLECULE
3R540
247   249    1
SMALL
USER_CHARGES


@<TRIPOS>ATOM
      1 CA          2.6002  -11.7636  -46.7829 C.3       0 UNK        -0.1800 
      2 C           3.7614  -12.6443  -47.2213 C.2       0 UNK         0.5000 
      3 O           4.7915  -12.1235  -47.6489 O.2       0 UNK        -0.5000 
      4 N           3.5894  -13.9713  -47.1336 N.am      1 UNK        -0.5000 
      5 CA          4.5651  -14.9849  -47.5567 C.3       1 UNK         0.1400 
      6 C6          4.0120  -16.4364  -47.5097 C.3       23 UNK        -0.0398 
      7 S7          2.2968  -16.6264  -48.0967 S.3       23 UNK        -0.2404 
      8 C8          2.5025  -16.7147  -49.9064 C.3       23 UNK        -0.0205 
      9 C9          1.1875  -17.0433  -50.6065 C.ar      23 UNK        -0.0193 
     10 C10         1.1265  -18.0573  -51.5685 C.ar      23 UNK        -0.1150 
     11 C11        -0.0891  -18.3924  -52.1773 C.ar      23 UNK        -0.0193 
     12 C12        -1.2535  -17.7147  -51.8040 C.ar      23 UNK        -0.1150 
     13 C13        -1.2030  -16.6935  -50.8519 C.ar      23 UNK        -0.0193 
     14 C14         0.0215  -16.3449  -50.2807 C.ar      23 UNK        -0.1150 
     15 C15        -2.4736  -15.9942  -50.3985 C.3       23 UNK        -0.0205 
     16 S16        -3.4493  -17.0375  -49.2681 S.3       23 UNK        -0.2404 
     17 C17        -2.2639  -17.3950  -47.9158 C.3       23 UNK        -0.0398 
     18 CA         -1.5607  -18.7764  -48.0197 C.3       11 UNK         0.1400 
     19 N          -0.6046  -18.9953  -46.9313 N.am      11 UNK        -0.5000 
     20 C           0.2173  -20.0508  -46.8207 C.2       10 UNK         0.5000 
     21 O           0.3107  -20.9407  -47.6644 O.2       10 UNK        -0.5000 
     22 CA          1.0210  -20.1810  -45.5145 C.3       10 UNK         0.1400 
     23 CB          2.2602  -19.2774  -45.5294 C.3       10 UNK        -0.1800 
     24 N           0.2135  -19.8961  -44.3290 N.am      10 UNK        -0.5000 
     25 C          -0.8599  -20.6061  -43.9528 C.2       9 UNK         0.5000 
     26 O          -1.2614  -21.6089  -44.5427 O.2       9 UNK        -0.5000 
     27 CA         -1.6440  -20.0782  -42.7404 C.3       9 UNK         0.1400 
     28 CB         -0.9700  -20.4923  -41.4235 C.3       9 UNK        -0.1800 
     29 N          -1.7940  -18.6245  -42.7803 N.am      9 UNK        -0.5000 
     30 C          -2.5471  -17.9649  -43.6714 C.2       8 UNK         0.5000 
     31 O          -3.2264  -18.5150  -44.5394 O.2       8 UNK        -0.5000 
     32 CA         -2.4851  -16.4281  -43.6071 C.3       8 UNK         0.1400 
     33 CB         -3.3536  -15.8909  -42.4599 C.3       8 UNK        -0.1800 
     34 N          -1.1143  -15.9384  -43.4523 N.am      8 UNK        -0.5000 
     35 C          -0.1637  -16.0690  -44.3892 C.2       7 UNK         0.5000 
     36 O          -0.3624  -16.5762  -45.4899 O.2       7 UNK        -0.5000 
     37 CA          1.2537  -15.5843  -44.0386 C.3       7 UNK         0.1400 
     38 CB          1.4200  -14.1219  -44.4628 C.3       7 UNK        -0.1800 
     39 N           1.5918  -15.7263  -42.6238 N.am      7 UNK        -0.5000 
     40 C           1.5953  -16.8845  -41.9454 C.2       6 UNK         0.5000 
     41 O           1.3423  -17.9733  -42.4625 O.2       6 UNK        -0.5000 
     42 CA          1.8843  -16.8258  -40.4320 C.3       6 UNK         0.1400 
     43 CB          3.3129  -17.3030  -40.1501 C.3       6 UNK        -0.1800 
     44 N           1.6960  -15.4953  -39.8482 N.am      6 UNK        -0.5000 
     45 C           0.5189  -14.8555  -39.7739 C.2       5 UNK         0.5000 
     46 O          -0.5467  -15.3526  -40.1423 O.2       5 UNK        -0.5000 
     47 CA          0.5299  -13.4064  -39.2468 C.3       5 UNK         0.1400 
     48 CB          0.0939  -13.3693  -37.7744 C.3       5 UNK        -0.1800 
     49 N           1.8180  -12.7185  -39.3775 N.am      5 UNK        -0.5000 
     50 C           2.4676  -12.4753  -40.5249 C.2       4 UNK         0.5000 
     51 O           2.0576  -12.8377  -41.6270 O.2       4 UNK        -0.5000 
     52 CA          3.8097  -11.7189  -40.4347 C.3       4 UNK         0.1400 
     53 CB          4.0322  -10.9996  -39.0850 C.3       4 UNK        -0.1800 
     54 N           4.9607  -12.5750  -40.7417 N.am      4 UNK        -0.5000 
     55 C           5.2904  -13.7356  -40.1550 C.2       3 UNK         0.5000 
     56 O           4.6009  -14.2935  -39.2978 O.2       3 UNK        -0.5000 
     57 CA          6.6423  -14.3461  -40.5891 C.3       3 UNK         0.1400 
     58 CB          6.8797  -15.7750  -40.0570 C.3       3 UNK        -0.1800 
     59 N           6.9108  -14.2966  -42.0327 N.am      3 UNK        -0.5000 
     60 C           6.1472  -14.7860  -43.0201 C.2       2 UNK         0.5000 
     61 O           5.0085  -15.2360  -42.8687 O.2       2 UNK        -0.5000 
     62 CA          6.7966  -14.8218  -44.4121 C.3       2 UNK         0.1400 
     63 CB          7.7330  -16.0452  -44.5118 C.3       2 UNK        -0.1800 
     64 N           5.7362  -14.8890  -45.4131 N.am      2 UNK        -0.5000 
     65 C           5.8749  -14.8971  -46.7454 C.2       1 UNK         0.5000 
     66 O           6.9555  -14.8262  -47.3326 O.2       1 UNK        -0.5000 
     67 C          -2.5668  -19.9387  -48.1114 C.2       11 UNK         0.5000 
     68 O          -2.6955  -20.5332  -49.1797 O.2       11 UNK        -0.5000 
     69 N          -3.2217  -20.2728  -46.9885 N.am      12 UNK        -0.5000 
     70 CA         -4.1962  -21.3622  -46.8976 C.3       12 UNK         0.1400 
     71 CB         -4.7976  -21.4021  -45.4854 C.3       12 UNK        -0.1800 
     72 C          -3.6163  -22.7348  -47.2857 C.2       12 UNK         0.5000 
     73 O          -4.2784  -23.4896  -47.9989 O.2       12 UNK        -0.5000 
     74 N          -2.3830  -23.0149  -46.8450 N.am      13 UNK        -0.5000 
     75 CA         -1.6327  -24.2170  -47.1975 C.3       13 UNK         0.1400 
     76 CB         -0.3862  -24.3270  -46.3058 C.3       13 UNK        -0.1800 
     77 C          -1.2519  -24.2583  -48.6883 C.2       13 UNK         0.5000 
     78 O          -1.5360  -25.2525  -49.3566 O.2       13 UNK        -0.5000 
     79 N          -0.6329  -23.1802  -49.1892 N.am      14 UNK        -0.5000 
     80 CA         -0.1324  -23.0779  -50.5619 C.3       14 UNK         0.1400 
     81 CB          0.7998  -21.8647  -50.6760 C.3       14 UNK        -0.1800 
     82 C          -1.2484  -23.0176  -51.6209 C.2       14 UNK         0.5000 
     83 O          -1.0826  -23.5742  -52.7063 O.2       14 UNK        -0.5000 
     84 N          -2.3753  -22.3765  -51.2837 N.am      15 UNK        -0.5000 
     85 CA         -3.5838  -22.3279  -52.1073 C.3       15 UNK         0.1400 
     86 CB         -4.3945  -21.0750  -51.7429 C.3       15 UNK        -0.1800 
     87 C          -4.4576  -23.5911  -51.9798 C.2       15 UNK         0.5000 
     88 O          -5.4666  -23.6823  -52.6834 O.2       15 UNK        -0.5000 
     89 N          -4.0772  -24.5230  -51.0920 N.am      16 UNK        -0.5000 
     90 CA         -4.7276  -25.8034  -50.7991 C.3       16 UNK         0.1400 
     91 CB         -4.5871  -26.7613  -52.0006 C.3       16 UNK        -0.1800 
     92 C          -6.1875  -25.6210  -50.3437 C.2       16 UNK         0.5000 
     93 O          -7.0977  -26.2014  -50.9340 O.2       16 UNK        -0.5000 
     94 N          -6.3904  -24.7509  -49.3438 N.am      17 UNK        -0.5000 
     95 CA         -7.6890  -24.3067  -48.8178 C.3       17 UNK         0.1400 
     96 CB         -8.4040  -25.4582  -48.0812 C.3       17 UNK        -0.1800 
     97 C          -8.5714  -23.6380  -49.8971 C.2       17 UNK         0.5000 
     98 O          -9.7948  -23.7798  -49.8799 O.2       17 UNK        -0.5000 
     99 N          -7.9064  -22.9383  -50.8279 N.am      18 UNK        -0.5000 
    100 CA        -8.4357  -22.2726  -52.0207 C.3       18 UNK         0.1400 
    101 CB        -9.4875  -21.2039  -51.6578 C.3       18 UNK        -0.1800 
    102 C         -8.9150  -23.2338  -53.1304 C.2       18 UNK         0.5000 
    103 O         -9.5647  -22.7758  -54.0712 O.2       18 UNK        -0.5000 
    104 N         -8.5664  -24.5281  -53.0485 N.am      19 UNK        -0.5000 
    105 CA        -8.8421  -25.5082  -54.1029 C.3       19 UNK         0.1400 
    106 CB        -8.7524  -26.9339  -53.5392 C.3       19 UNK        -0.1800 
    107 C         -7.8947  -25.3436  -55.3050 C.2       19 UNK         0.5000 
    108 O         -8.3347  -25.4969  -56.4452 O.2       19 UNK        -0.5000 
    109 N         -6.6229  -25.0171  -55.0330 N.am      20 UNK        -0.5000 
    110 CA        -5.6247  -24.6811  -56.0507 C.3       20 UNK         0.1400 
    111 CB        -4.2387  -25.1603  -55.5909 C.3       20 UNK        -0.1800 
    112 C         -5.6079  -23.1692  -56.3356 C.2       20 UNK         0.5000 
    113 O         -5.2445  -22.7644  -57.4408 O.2       20 UNK        -0.5000 
    114 N         -5.9861  -22.3626  -55.3296 N.am      21 UNK        -0.5000 
    115 CA        -6.1649  -20.9030  -55.3694 C.3       21 UNK         0.1400 
    116 CB        -7.3490  -20.5373  -56.2871 C.3       21 UNK        -0.1800 
    117 C         -4.8839  -20.1130  -55.7218 C.2       21 UNK         0.5000 
    118 O         -4.9723  -18.9598  -56.1452 O.2       21 UNK        -0.5000 
    119 N         -3.7189  -20.7513  -55.5456 N.am      22 UNK        -0.5000 
    120 CA        -2.3957  -20.2753  -55.9781 C.3       22 UNK         0.1400 
    121 C         -2.1976  -20.2715  -57.5286 C.2       22 UNK         0.5000 
    122 N         -3.0106  -20.9835  -58.3027 N.am      22 UNK        -0.7600 
    123 O         -1.2820  -19.6381  -58.0461 O.2       22 UNK        -0.5000 
    124 C124       -1.9815  -18.9436  -55.2831 C.3       23 UNK        -0.0398 
    125 S125       -0.1950  -18.8727  -54.9121 S.3       23 UNK        -0.2404 
    126 C126       -0.1451  -19.5104  -53.2086 C.3       23 UNK        -0.0205 
    127 H127        2.6541  -11.5716  -45.7112 H         1 UNK         0.0600 
    128 H128        1.6416  -12.2308  -47.0081 H         1 UNK         0.0600 
    129 H129        2.6314  -10.8056  -47.3022 H         1 UNK         0.0600 
    130 H130        2.7039  -14.3374  -46.8171 H         1 UNK         0.3000 
    131 H131        4.8107  -14.7635  -48.5975 H         1 UNK         0.0600 
    132 H132        4.0208  -16.8188  -46.4873 H         1 UNK         0.0800 
    133 H133        4.6586  -17.1056  -48.0797 H         1 UNK         0.0800 
    134 H134        3.2578  -17.4659  -50.1418 H         1 UNK         0.0800 
    135 H135        2.8765  -15.7593  -50.2764 H         1 UNK         0.0800 
    136 H136        2.0246  -18.5962  -51.8359 H         1 UNK         0.1150 
    137 H137       -2.2036  -17.9897  -52.2376 H         1 UNK         0.1150 
    138 H138        0.0601  -15.5581  -49.5406 H         1 UNK         0.1150 
    139 H139       -2.2418  -15.0486  -49.9058 H         1 UNK         0.0800 
    140 H140       -3.0826  -15.7453  -51.2686 H         1 UNK         0.0800 
    141 H141       -2.8064  -17.3213  -46.9725 H         1 UNK         0.0800 
    142 H142       -1.5172  -16.6016  -47.8833 H         1 UNK         0.0800 
    143 H143       -0.9795  -18.7869  -48.9434 H         1 UNK         0.0600 
    144 H144       -0.5696  -18.2692  -46.2204 H         1 UNK         0.3000 
    145 H145        1.3616  -21.2157  -45.4387 H         1 UNK         0.0600 
    146 H146        2.8645  -19.4169  -44.6330 H         1 UNK         0.0600 
    147 H147        2.8928  -19.4948  -46.3909 H         1 UNK         0.0600 
    148 H148        1.9808  -18.2275  -45.5847 H         1 UNK         0.0600 
    149 H149        0.5046  -19.1102  -43.7536 H         1 UNK         0.3000 
    150 H150       -2.6405  -20.5241  -42.7668 H         1 UNK         0.0600 
    151 H151       -0.8732  -21.5770  -41.3613 H         1 UNK         0.0600 
    152 H152       -1.5552  -20.1687  -40.5627 H         1 UNK         0.0600 
    153 H153        0.0300  -20.0686  -41.3276 H         1 UNK         0.0600 
    154 H154       -1.2257  -18.0913  -42.1386 H         1 UNK         0.3000 
    155 H155       -2.8823  -16.0382  -44.5467 H         1 UNK         0.0600 
    156 H156       -2.9878  -16.2209  -41.4867 H         1 UNK         0.0600 
    157 H157       -4.3846  -16.2331  -42.5577 H         1 UNK         0.0600 
    158 H158       -3.3717  -14.8009  -42.4574 H         1 UNK         0.0600 
    159 H159       -0.8685  -15.5318  -42.5594 H         1 UNK         0.3000 
    160 H160        1.9657  -16.1828  -44.6074 H         1 UNK         0.0600 
    161 H161        2.4456  -13.7818  -44.3172 H         1 UNK         0.0600 
    162 H162        0.7623  -13.4618  -43.8964 H         1 UNK         0.0600 
    163 H163        1.1702  -13.9988  -45.5160 H         1 UNK         0.0600 
    164 H164        1.8220  -14.8701  -42.1310 H         1 UNK         0.3000 
    165 H165        1.1906  -17.5095  -39.9387 H         1 UNK         0.0600 
    166 H166        3.5453  -17.2703  -39.0856 H         1 UNK         0.0600 
    167 H167        3.4580  -18.3298  -40.4881 H         1 UNK         0.0600 
    168 H168        4.0349  -16.6799  -40.6748 H         1 UNK         0.0600 
    169 H169        2.5348  -15.0088  -39.5513 H         1 UNK         0.3000 
    170 H170       -0.2007  -12.8466  -39.8341 H         1 UNK         0.0600 
    171 H171       -0.8777  -13.8474  -37.6416 H         1 UNK         0.0600 
    172 H172        0.8061  -13.8886  -37.1318 H         1 UNK         0.0600 
    173 H173        0.0009  -12.3442  -37.4152 H         1 UNK         0.0600 
    174 H174        2.2512  -12.4155  -38.5174 H         1 UNK         0.3000 
    175 H175        3.7760  -10.9539  -41.2118 H         1 UNK         0.0600 
    176 H176        4.1399  -11.6989  -38.2551 H         1 UNK         0.0600 
    177 H177        4.9350  -10.3897  -39.1165 H         1 UNK         0.0600 
    178 H178        3.2035  -10.3291  -38.8535 H         1 UNK         0.0600 
    179 H179        5.5738  -12.2328  -41.4676 H         1 UNK         0.3000 
    180 H180        7.3962  -13.7102  -40.1228 H         1 UNK         0.0600 
    181 H181        6.2524  -16.5083  -40.5605 H         1 UNK         0.0600 
    182 H182        6.6806  -15.8441  -38.9870 H         1 UNK         0.0600 
    183 H183        7.9162  -16.0761  -40.2083 H         1 UNK         0.0600 
    184 H184        7.8196  -13.9303  -42.2809 H         1 UNK         0.3000 
    185 H185        7.3646  -13.9021  -44.5641 H         1 UNK         0.0600 
    186 H186        8.4699  -16.0449  -43.7076 H         1 UNK         0.0600 
    187 H187        7.1760  -16.9805  -44.4435 H         1 UNK         0.0600 
    188 H188        8.2913  -16.0556  -45.4472 H         1 UNK         0.0600 
    189 H189        4.8104  -14.9376  -45.0059 H         1 UNK         0.3000 
    190 H190       -3.0640  -19.7327  -46.1433 H         1 UNK         0.3000 
    191 H191       -4.9999  -21.1377  -47.6017 H         1 UNK         0.0600 
    192 H192       -4.0354  -21.5877  -44.7282 H         1 UNK         0.0600 
    193 H193       -5.5452  -22.1919  -45.4009 H         1 UNK         0.0600 
    194 H194       -5.2893  -20.4606  -45.2400 H         1 UNK         0.0600 
    195 H195       -1.9245  -22.3564  -46.2215 H         1 UNK         0.3000 
    196 H196       -2.2687  -25.0809  -46.9931 H         1 UNK         0.0600 
    197 H197        0.1898  -25.2213  -46.5465 H         1 UNK         0.0600 
    198 H198       -0.6613  -24.3901  -45.2529 H         1 UNK         0.0600 
    199 H199        0.2740  -23.4673  -46.4252 H         1 UNK         0.0600 
    200 H200       -0.4360  -22.3888  -48.5795 H         1 UNK         0.3000 
    201 H201        0.4604  -23.9725  -50.7634 H         1 UNK         0.0600 
    202 H202        1.6068  -21.9169  -49.9452 H         1 UNK         0.0600 
    203 H203        0.2632  -20.9288  -50.5139 H         1 UNK         0.0600 
    204 H204        1.2634  -21.8250  -51.6612 H         1 UNK         0.0600 
    205 H205       -2.4197  -21.8815  -50.3936 H         1 UNK         0.3000 
    206 H206       -3.2889  -22.2455  -53.1540 H         1 UNK         0.0600 
    207 H207       -3.7884  -20.1729  -51.8313 H         1 UNK         0.0600 
    208 H208       -5.2522  -20.9530  -52.4015 H         1 UNK         0.0600 
    209 H209       -4.7744  -21.1253  -50.7219 H         1 UNK         0.0600 
    210 H210       -3.2421  -24.3393  -50.5508 H         1 UNK         0.3000 
    211 H211       -4.1905  -26.2418  -49.9569 H         1 UNK         0.0600 
    212 H212       -4.9747  -27.7511  -51.7570 H         1 UNK         0.0600 
    213 H213       -3.5423  -26.8824  -52.2866 H         1 UNK         0.0600 
    214 H214       -5.1331  -26.4040  -52.8734 H         1 UNK         0.0600 
    215 H215       -5.5740  -24.3106  -48.9180 H         1 UNK         0.3000 
    216 H216       -7.4694  -23.5312  -48.0825 H         1 UNK         0.0600 
    217 H217       -9.2990  -25.1001  -47.5712 H         1 UNK         0.0600 
    218 H218       -7.7573  -25.9031  -47.3250 H         1 UNK         0.0600 
    219 H219       -8.7128  -26.2484  -48.7661 H         1 UNK         0.0600 
    220 H220       -6.8988  -22.9445  -50.7612 H         1 UNK         0.3000 
    221 H221       -7.5857  -21.7434  -52.4509 H         1 UNK         0.0600 
    222 H222      -10.4190  -21.6507  -51.3100 H         1 UNK         0.0600 
    223 H223       -9.1208  -20.5374  -50.8772 H         1 UNK         0.0600 
    224 H224       -9.7294  -20.5848  -52.5224 H         1 UNK         0.0600 
    225 H225       -8.0351  -24.8563  -52.2494 H         1 UNK         0.3000 
    226 H226       -9.8644  -25.3559  -54.4557 H         1 UNK         0.0600 
    227 H227       -9.3800  -27.0520  -52.6556 H         1 UNK         0.0600 
    228 H228       -9.0872  -27.6632  -54.2777 H         1 UNK         0.0600 
    229 H229       -7.7306  -27.1975  -53.2649 H         1 UNK         0.0600 
    230 H230       -6.3498  -24.8718  -54.0670 H         1 UNK         0.3000 
    231 H231       -5.8613  -25.1933  -56.9856 H         1 UNK         0.0600 
    232 H232       -4.2378  -26.2332  -55.3984 H         1 UNK         0.0600 
    233 H233       -3.9099  -24.6581  -54.6819 H         1 UNK         0.0600 
    234 H234       -3.4876  -24.9682  -56.3581 H         1 UNK         0.0600 
    235 H235       -6.1813  -22.8051  -54.4397 H         1 UNK         0.3000 
    236 H236       -6.4369  -20.5980  -54.3594 H         1 UNK         0.0600 
    237 H237       -7.1294  -20.7482  -57.3341 H         1 UNK         0.0600 
    238 H238       -8.2452  -21.0945  -56.0138 H         1 UNK         0.0600 
    239 H239       -7.5939  -19.4773  -56.2114 H         1 UNK         0.0600 
    240 H240       -3.7573  -21.7083  -55.2310 H         1 UNK         0.3000 
    241 H241       -1.7179  -21.0534  -55.6251 H         1 UNK         0.0600 
    242 H242       -3.7741  -21.5288  -57.9147 H         1 UNK         0.3800 
    243 H243       -2.8660  -20.9785  -59.2998 H         1 UNK         0.3800 
    244 H244       -2.2534  -18.0820  -55.8950 H         1 UNK         0.0800 
    245 H245       -2.5284  -18.8162  -54.3495 H         1 UNK         0.0800 
    246 H246        0.7399  -20.1399  -53.1216 H         1 UNK         0.0800 
    247 H247       -0.9992  -20.1609  -53.0144 H         1 UNK         0.0800 
@<TRIPOS>BOND
     1    1    2 1    
     2    1  127 1    
     3    1  128 1    
     4    1  129 1    
     5    2    3 2    
     6    2    4 am   BACKBONE|DICT|INTERRES
     7    4    5 1    
     8    4  130 1    
     9    5    6 1    
    10    5   65 1    
    11    5  131 1    
    12    6    7 1    
    13    6  132 1    
    14    6  133 1    
    15    7    8 1    
    16    8    9 1    
    17    8  134 1    
    18    8  135 1    
    19    9   10 ar   
    20    9   14 ar   
    21   10   11 ar   
    22   10  136 1    
    23   11   12 ar   
    24   11  126 1    
    25   12   13 ar   
    26   12  137 1    
    27   13   14 ar   
    28   13   15 1    
    29   14  138 1    
    30   15   16 1    
    31   15  139 1    
    32   15  140 1    
    33   16   17 1    
    34   17   18 1    
    35   17  141 1    
    36   17  142 1    
    37   18   19 1    
    38   18   67 1    
    39   18  143 1    
    40   19   20 am   BACKBONE|DICT|INTERRES
    41   19  144 1    
    42   20   21 2    
    43   20   22 1    
    44   22   23 1    
    45   22   24 1    
    46   22  145 1    
    47   23  146 1    
    48   23  147 1    
    49   23  148 1    
    50   24   25 am   BACKBONE|DICT|INTERRES
    51   24  149 1    
    52   25   26 2    
    53   25   27 1    
    54   27   28 1    
    55   27   29 1    
    56   27  150 1    
    57   28  151 1    
    58   28  152 1    
    59   28  153 1    
    60   29   30 am   BACKBONE|DICT|INTERRES
    61   29  154 1    
    62   30   31 2    
    63   30   32 1    
    64   32   33 1    
    65   32   34 1    
    66   32  155 1    
    67   33  156 1    
    68   33  157 1    
    69   33  158 1    
    70   34   35 am   BACKBONE|DICT|INTERRES
    71   34  159 1    
    72   35   36 2    
    73   35   37 1    
    74   37   38 1    
    75   37   39 1    
    76   37  160 1    
    77   38  161 1    
    78   38  162 1    
    79   38  163 1    
    80   39   40 am   BACKBONE|DICT|INTERRES
    81   39  164 1    
    82   40   41 2    
    83   40   42 1    
    84   42   43 1    
    85   42   44 1    
    86   42  165 1    
    87   43  166 1    
    88   43  167 1    
    89   43  168 1    
    90   44   45 am   BACKBONE|DICT|INTERRES
    91   44  169 1    
    92   45   46 2    
    93   45   47 1    
    94   47   48 1    
    95   47   49 1    
    96   47  170 1    
    97   48  171 1    
    98   48  172 1    
    99   48  173 1    
   100   49   50 am   BACKBONE|DICT|INTERRES
   101   49  174 1    
   102   50   51 2    
   103   50   52 1    
   104   52   53 1    
   105   52   54 1    
   106   52  175 1    
   107   53  176 1    
   108   53  177 1    
   109   53  178 1    
   110   54   55 am   BACKBONE|DICT|INTERRES
   111   54  179 1    
   112   55   56 2    
   113   55   57 1    
   114   57   58 1    
   115   57   59 1    
   116   57  180 1    
   117   58  181 1    
   118   58  182 1    
   119   58  183 1    
   120   59   60 am   BACKBONE|DICT|INTERRES
   121   59  184 1    
   122   60   61 2    
   123   60   62 1    
   124   62   63 1    
   125   62   64 1    
   126   62  185 1    
   127   63  186 1    
   128   63  187 1    
   129   63  188 1    
   130   64   65 am   BACKBONE|DICT|INTERRES
   131   64  189 1    
   132   65   66 2    
   133   67   68 2    
   134   67   69 am   BACKBONE|DICT|INTERRES
   135   69   70 1    
   136   69  190 1    
   137   70   71 1    
   138   70   72 1    
   139   70  191 1    
   140   71  192 1    
   141   71  193 1    
   142   71  194 1    
   143   72   73 2    
   144   72   74 am   BACKBONE|DICT|INTERRES
   145   74   75 1    
   146   74  195 1    
   147   75   76 1    
   148   75   77 1    
   149   75  196 1    
   150   76  197 1    
   151   76  198 1    
   152   76  199 1    
   153   77   78 2    
   154   77   79 am   BACKBONE|DICT|INTERRES
   155   79   80 1    
   156   79  200 1    
   157   80   81 1    
   158   80   82 1    
   159   80  201 1    
   160   81  202 1    
   161   81  203 1    
   162   81  204 1    
   163   82   83 2    
   164   82   84 am   BACKBONE|DICT|INTERRES
   165   84   85 1    
   166   84  205 1    
   167   85   86 1    
   168   85   87 1    
   169   85  206 1    
   170   86  207 1    
   171   86  208 1    
   172   86  209 1    
   173   87   88 2    
   174   87   89 am   BACKBONE|DICT|INTERRES
   175   89   90 1    
   176   89  210 1    
   177   90   91 1    
   178   90   92 1    
   179   90  211 1    
   180   91  212 1    
   181   91  213 1    
   182   91  214 1    
   183   92   93 2    
   184   92   94 am   BACKBONE|DICT|INTERRES
   185   94   95 1    
   186   94  215 1    
   187   95   96 1    
   188   95   97 1    
   189   95  216 1    
   190   96  217 1    
   191   96  218 1    
   192   96  219 1    
   193   97   98 2    
   194   97   99 am   BACKBONE|DICT|INTERRES
   195   99  100 1    
   196   99  220 1    
   197  100  101 1    
   198  100  102 1    
   199  100  221 1    
   200  101  222 1    
   201  101  223 1    
   202  101  224 1    
   203  102  103 2    
   204  102  104 am   BACKBONE|DICT|INTERRES
   205  104  105 1    
   206  104  225 1    
   207  105  106 1    
   208  105  107 1    
   209  105  226 1    
   210  106  227 1    
   211  106  228 1    
   212  106  229 1    
   213  107  108 2    
   214  107  109 am   BACKBONE|DICT|INTERRES
   215  109  110 1    
   216  109  230 1    
   217  110  111 1    
   218  110  112 1    
   219  110  231 1    
   220  111  232 1    
   221  111  233 1    
   222  111  234 1    
   223  112  113 2    
   224  112  114 am   BACKBONE|DICT|INTERRES
   225  114  115 1    
   226  114  235 1    
   227  115  116 1    
   228  115  117 1    
   229  115  236 1    
   230  116  237 1    
   231  116  238 1    
   232  116  239 1    
   233  117  118 2    
   234  117  119 am   BACKBONE|DICT|INTERRES
   235  119  120 1    
   236  119  240 1    
   237  120  121 1    
   238  120  124 1    
   239  120  241 1    
   240  121  122 am   BACKBONE|DICT|INTERRES
   241  121  123 2    
   242  122  242 1    
   243  122  243 1    
   244  124  125 1    
   245  124  244 1    
   246  124  245 1    
   247  125  126 1    
   248  126  246 1    
   249  126  247 1    
@<TRIPOS>SUBSTRUCTURE
     1 UNK         1 GROUP             0       ****    0 ROOT    
