@<TRIPOS>MOLECULE
3R540
247   249    1
SMALL
USER_CHARGES


@<TRIPOS>ATOM
      1 CA         -3.1029  -11.9241  -47.4547 C.3       0 UNK        -0.1800 
      2 C          -1.9448  -11.0885  -46.9285 C.2       0 UNK         0.5000 
      3 O          -2.1665  -10.0891  -46.2439 O.2       0 UNK        -0.5000 
      4 N          -0.7076  -11.4974  -47.2323 N.am      1 UNK        -0.5000 
      5 CA          0.5447  -10.8699  -46.7969 C.3       1 UNK         0.1400 
      6 C6          1.7060  -11.1609  -47.7905 C.3       23 UNK        -0.0398 
      7 S7          1.9829  -12.9348  -48.1458 S.3       23 UNK        -0.2404 
      8 C8          1.1632  -13.1333  -49.7587 C.3       23 UNK        -0.0205 
      9 C9          0.7351  -14.5781  -49.9444 C.ar      23 UNK        -0.0193 
     10 C10         1.5245  -15.4719  -50.6753 C.ar      23 UNK        -0.1150 
     11 C11         1.1599  -16.8185  -50.7761 C.ar      23 UNK        -0.0193 
     12 C12         0.0033  -17.2645  -50.1308 C.ar      23 UNK        -0.1150 
     13 C13        -0.8051  -16.3746  -49.4205 C.ar      23 UNK        -0.0193 
     14 C14        -0.4391  -15.0311  -49.3378 C.ar      23 UNK        -0.1150 
     15 C15        -2.0273  -16.8838  -48.6788 C.3       23 UNK        -0.0205 
     16 S16        -3.3087  -17.5183  -49.7985 S.3       23 UNK        -0.2404 
     17 C17        -4.4418  -18.2842  -48.5925 C.3       23 UNK        -0.0398 
     18 CA         -4.1695  -19.7999  -48.4371 C.3       11 UNK         0.1400 
     19 N          -2.8616  -20.0588  -47.8270 N.am      11 UNK        -0.5000 
     20 C          -2.0780  -21.1093  -48.0977 C.2       10 UNK         0.5000 
     21 O          -2.3334  -21.9343  -48.9704 O.2       10 UNK        -0.5000 
     22 CA         -0.8089  -21.2915  -47.2426 C.3       10 UNK         0.1400 
     23 CB          0.4521  -21.1328  -48.1066 C.3       10 UNK        -0.1800 
     24 N          -0.7294  -20.3949  -46.0822 N.am      10 UNK        -0.5000 
     25 C          -1.5124  -20.4812  -44.9953 C.2       9 UNK         0.5000 
     26 O          -2.4459  -21.2796  -44.9037 O.2       9 UNK        -0.5000 
     27 CA         -1.2419  -19.5124  -43.8267 C.3       9 UNK         0.1400 
     28 CB         -0.3620  -20.1966  -42.7704 C.3       9 UNK        -0.1800 
     29 N          -0.6164  -18.2511  -44.2252 N.am      9 UNK        -0.5000 
     30 C          -1.1852  -17.3242  -45.0080 C.2       8 UNK         0.5000 
     31 O          -2.3349  -17.4130  -45.4408 O.2       8 UNK        -0.5000 
     32 CA         -0.3073  -16.1231  -45.4186 C.3       8 UNK         0.1400 
     33 CB         -0.4482  -14.9751  -44.4108 C.3       8 UNK        -0.1800 
     34 N           1.1118  -16.4495  -45.5884 N.am      8 UNK        -0.5000 
     35 C           1.5939  -17.3738  -46.4331 C.2       7 UNK         0.5000 
     36 O           0.8877  -18.1065  -47.1208 O.2       7 UNK        -0.5000 
     37 CA          3.1169  -17.5570  -46.4646 C.3       7 UNK         0.1400 
     38 CB          3.7969  -16.4155  -47.2379 C.3       7 UNK        -0.1800 
     39 N           3.6455  -17.6376  -45.1044 N.am      7 UNK        -0.5000 
     40 C           3.6178  -18.7498  -44.3556 C.2       6 UNK         0.5000 
     41 O           3.2421  -19.8452  -44.7740 O.2       6 UNK        -0.5000 
     42 CA          4.0680  -18.6231  -42.8864 C.3       6 UNK         0.1400 
     43 CB          5.5706  -18.9151  -42.7572 C.3       6 UNK        -0.1800 
     44 N           3.7840  -17.3127  -42.2997 N.am      6 UNK        -0.5000 
     45 C           2.5558  -16.8274  -42.0702 C.2       5 UNK         0.5000 
     46 O           1.5199  -17.4508  -42.3002 O.2       5 UNK        -0.5000 
     47 CA          2.4719  -15.3810  -41.5427 C.3       5 UNK         0.1400 
     48 CB          2.5191  -15.3632  -40.0081 C.3       5 UNK        -0.1800 
     49 N           3.5035  -14.4787  -42.0670 N.am      5 UNK        -0.5000 
     50 C           3.7550  -14.2554  -43.3641 C.2       4 UNK         0.5000 
     51 O           3.1902  -14.8570  -44.2785 O.2       4 UNK        -0.5000 
     52 CA          4.7768  -13.1505  -43.6714 C.3       4 UNK         0.1400 
     53 CB          5.2173  -13.1491  -45.1466 C.3       4 UNK        -0.1800 
     54 N           4.1378  -11.8774  -43.3680 N.am      4 UNK        -0.5000 
     55 C           4.3821  -11.1045  -42.3030 C.2       3 UNK         0.5000 
     56 O           5.2816  -11.3247  -41.4913 O.2       3 UNK        -0.5000 
     57 CA          3.4428   -9.8976  -42.0880 C.3       3 UNK         0.1400 
     58 CB          4.0399   -8.6325  -42.7226 C.3       3 UNK        -0.1800 
     59 N           2.0962  -10.1107  -42.6261 N.am      3 UNK        -0.5000 
     60 C           1.2276  -11.0268  -42.1749 C.2       2 UNK         0.5000 
     61 O           1.4221  -11.7081  -41.1676 O.2       2 UNK        -0.5000 
     62 CA         -0.0647  -11.2467  -42.9899 C.3       2 UNK         0.1400 
     63 CB         -1.2481  -10.5343  -42.3180 C.3       2 UNK        -0.1800 
     64 N          -0.0231  -10.8529  -44.4052 N.am      2 UNK        -0.5000 
     65 C           0.8636  -11.2469  -45.3307 C.2       1 UNK         0.5000 
     66 O           1.8733  -11.8931  -45.0616 O.2       1 UNK        -0.5000 
     67 C          -5.3072  -20.5025  -47.6616 C.2       11 UNK         0.5000 
     68 O          -6.4591  -20.4120  -48.0862 O.2       11 UNK        -0.5000 
     69 N          -4.9816  -21.1980  -46.5629 N.am      12 UNK        -0.5000 
     70 CA         -5.9083  -22.0097  -45.7789 C.3       12 UNK         0.1400 
     71 CB         -6.1449  -21.3450  -44.4129 C.3       12 UNK        -0.1800 
     72 C          -5.3622  -23.4353  -45.6166 C.2       12 UNK         0.5000 
     73 O          -6.0700  -24.3933  -45.9341 O.2       12 UNK        -0.5000 
     74 N          -4.1120  -23.5513  -45.1451 N.am      13 UNK        -0.5000 
     75 CA         -3.4273  -24.8088  -44.8406 C.3       13 UNK         0.1400 
     76 CB         -2.0301  -24.4949  -44.2845 C.3       13 UNK        -0.1800 
     77 C          -3.3187  -25.7474  -46.0545 C.2       13 UNK         0.5000 
     78 O          -3.0491  -25.2809  -47.1630 O.2       13 UNK        -0.5000 
     79 N          -3.5327  -27.0492  -45.8132 N.am      14 UNK        -0.5000 
     80 CA         -3.5046  -28.1423  -46.7939 C.3       14 UNK         0.1400 
     81 CB         -2.0582  -28.4038  -47.2640 C.3       14 UNK        -0.1800 
     82 C          -4.4908  -27.9283  -47.9630 C.2       14 UNK         0.5000 
     83 O          -4.1381  -28.1654  -49.1190 O.2       14 UNK        -0.5000 
     84 N          -5.6996  -27.4441  -47.6348 N.am      15 UNK        -0.5000 
     85 CA         -6.7710  -27.0518  -48.5594 C.3       15 UNK         0.1400 
     86 CB         -7.3524  -28.2853  -49.2823 C.3       15 UNK        -0.1800 
     87 C          -6.3066  -25.9462  -49.5289 C.2       15 UNK         0.5000 
     88 O          -6.4248  -26.0920  -50.7469 O.2       15 UNK        -0.5000 
     89 N          -5.7300  -24.8820  -48.9525 N.am      16 UNK        -0.5000 
     90 CA         -5.0789  -23.7579  -49.6330 C.3       16 UNK         0.1400 
     91 CB         -6.1207  -22.8956  -50.3755 C.3       16 UNK        -0.1800 
     92 C          -3.9201  -24.2178  -50.5429 C.2       16 UNK         0.5000 
     93 O          -3.8553  -23.8229  -51.7092 O.2       16 UNK        -0.5000 
     94 N          -3.0601  -25.0876  -49.9919 N.am      17 UNK        -0.5000 
     95 CA         -1.9352  -25.7658  -50.6419 C.3       17 UNK         0.1400 
     96 CB         -0.7856  -24.7694  -50.8913 C.3       17 UNK        -0.1800 
     97 C          -2.3658  -26.5447  -51.9037 C.2       17 UNK         0.5000 
     98 O          -1.7489  -26.4082  -52.9610 O.2       17 UNK        -0.5000 
     99 N          -3.4449  -27.3278  -51.7586 N.am      18 UNK        -0.5000 
    100 CA        -4.1682  -28.0556  -52.8049 C.3       18 UNK         0.1400 
    101 CB        -3.3075  -29.2048  -53.3698 C.3       18 UNK        -0.1800 
    102 C         -4.7258  -27.1121  -53.8931 C.2       18 UNK         0.5000 
    103 O         -4.5336  -27.3563  -55.0861 O.2       18 UNK        -0.5000 
    104 N         -5.4053  -26.0473  -53.4417 N.am      19 UNK        -0.5000 
    105 CA        -6.0161  -24.9710  -54.2276 C.3       19 UNK         0.1400 
    106 CB        -7.2454  -25.4986  -54.9958 C.3       19 UNK        -0.1800 
    107 C         -5.0054  -24.2310  -55.1309 C.2       19 UNK         0.5000 
    108 O         -5.2449  -24.0683  -56.3294 O.2       19 UNK        -0.5000 
    109 N         -3.8828  -23.8030  -54.5377 N.am      20 UNK        -0.5000 
    110 CA        -2.8031  -23.0887  -55.2229 C.3       20 UNK         0.1400 
    111 CB        -1.5553  -23.0622  -54.3280 C.3       20 UNK        -0.1800 
    112 C         -3.1873  -21.6541  -55.6255 C.2       20 UNK         0.5000 
    113 O         -2.7475  -21.1869  -56.6767 O.2       20 UNK        -0.5000 
    114 N         -3.9890  -20.9896  -54.7765 N.am      21 UNK        -0.5000 
    115 CA        -4.4777  -19.6105  -54.9169 C.3       21 UNK         0.1400 
    116 CB        -5.4973  -19.5159  -56.0711 C.3       21 UNK        -0.1800 
    117 C         -3.3376  -18.5711  -55.0272 C.2       21 UNK         0.5000 
    118 O         -3.4079  -17.6512  -55.8446 O.2       21 UNK        -0.5000 
    119 N         -2.2945  -18.7607  -54.2081 N.am      22 UNK        -0.5000 
    120 CA        -1.0871  -17.9194  -54.1537 C.3       22 UNK         0.1400 
    121 C         -1.3438  -16.4617  -53.6596 C.2       22 UNK         0.5000 
    122 N         -2.3250  -16.2222  -52.7994 N.am      22 UNK        -0.7600 
    123 O         -0.6763  -15.5292  -54.0990 O.2       22 UNK        -0.5000 
    124 C124        0.0249  -18.6567  -53.3600 C.3       23 UNK        -0.0398 
    125 S125        1.6575  -17.8324  -53.3269 S.3       23 UNK        -0.2404 
    126 C126        2.0357  -17.7997  -51.5427 C.3       23 UNK        -0.0205 
    127 H127       -2.7602  -12.7420  -48.0884 H         1 UNK         0.0600 
    128 H128       -3.7781  -11.3013  -48.0414 H         1 UNK         0.0600 
    129 H129       -3.6653  -12.3497  -46.6237 H         1 UNK         0.0600 
    130 H130       -0.5831  -12.3489  -47.7587 H         1 UNK         0.3000 
    131 H131        0.3999   -9.7874  -46.8026 H         1 UNK         0.0600 
    132 H132        1.5169  -10.6402  -48.7300 H         1 UNK         0.0800 
    133 H133        2.6400  -10.7398  -47.4145 H         1 UNK         0.0800 
    134 H134        0.2897  -12.4835  -49.8272 H         1 UNK         0.0800 
    135 H135        1.8437  -12.8239  -50.5534 H         1 UNK         0.0800 
    136 H136        2.4330  -15.1256  -51.1475 H         1 UNK         0.1150 
    137 H137       -0.2683  -18.3094  -50.1621 H         1 UNK         0.1150 
    138 H138       -1.0458  -14.3455  -48.7655 H         1 UNK         0.1150 
    139 H139       -1.6986  -17.6775  -48.0108 H         1 UNK         0.0800 
    140 H140       -2.4597  -16.1037  -48.0507 H         1 UNK         0.0800 
    141 H141       -5.4550  -18.1079  -48.9581 H         1 UNK         0.0800 
    142 H142       -4.3726  -17.7718  -47.6311 H         1 UNK         0.0800 
    143 H143       -4.1829  -20.2365  -49.4383 H         1 UNK         0.0600 
    144 H144       -2.5728  -19.4231  -47.0962 H         1 UNK         0.3000 
    145 H145       -0.8265  -22.3160  -46.8654 H         1 UNK         0.0600 
    146 H146        1.3594  -21.2166  -47.5080 H         1 UNK         0.0600 
    147 H147        0.4954  -21.9061  -48.8746 H         1 UNK         0.0600 
    148 H148        0.4721  -20.1704  -48.6179 H         1 UNK         0.0600 
    149 H149       -0.0327  -19.6589  -46.1356 H         1 UNK         0.3000 
    150 H150       -2.2054  -19.2784  -43.3696 H         1 UNK         0.0600 
    151 H151       -0.7951  -21.1460  -42.4523 H         1 UNK         0.0600 
    152 H152       -0.2581  -19.5743  -41.8815 H         1 UNK         0.0600 
    153 H153        0.6385  -20.4018  -43.1542 H         1 UNK         0.0600 
    154 H154        0.3095  -18.0665  -43.8537 H         1 UNK         0.3000 
    155 H155       -0.6656  -15.7648  -46.3840 H         1 UNK         0.0600 
    156 H156       -1.4772  -14.6162  -44.3694 H         1 UNK         0.0600 
    157 H157        0.1827  -14.1305  -44.6867 H         1 UNK         0.0600 
    158 H158       -0.1697  -15.2901  -43.4060 H         1 UNK         0.0600 
    159 H159        1.7772  -15.8835  -45.0681 H         1 UNK         0.3000 
    160 H160        3.3351  -18.4892  -46.9904 H         1 UNK         0.0600 
    161 H161        3.5969  -15.4407  -46.7933 H         1 UNK         0.0600 
    162 H162        3.4362  -16.3789  -48.2669 H         1 UNK         0.0600 
    163 H163        4.8775  -16.5519  -47.2748 H         1 UNK         0.0600 
    164 H164        3.8807  -16.7554  -44.6657 H         1 UNK         0.3000 
    165 H165        3.5230  -19.3739  -42.3102 H         1 UNK         0.0600 
    166 H166        5.8858  -18.9092  -41.7137 H         1 UNK         0.0600 
    167 H167        5.8135  -19.8980  -43.1631 H         1 UNK         0.0600 
    168 H168        6.1712  -18.1803  -43.2949 H         1 UNK         0.0600 
    169 H169        4.5773  -16.7258  -42.0879 H         1 UNK         0.3000 
    170 H170        1.5081  -14.9750  -41.8519 H         1 UNK         0.0600 
    171 H171        1.7476  -16.0084  -39.5856 H         1 UNK         0.0600 
    172 H172        3.4817  -15.7101  -39.6305 H         1 UNK         0.0600 
    173 H173        2.3474  -14.3582  -39.6213 H         1 UNK         0.0600 
    174 H174        3.9934  -13.9183  -41.3842 H         1 UNK         0.3000 
    175 H175        5.6582  -13.3120  -43.0477 H         1 UNK         0.0600 
    176 H176        4.3750  -12.9851  -45.8208 H         1 UNK         0.0600 
    177 H177        5.9519  -12.3666  -45.3360 H         1 UNK         0.0600 
    178 H178        5.6751  -14.1009  -45.4186 H         1 UNK         0.0600 
    179 H179        3.3238  -11.6735  -43.9450 H         1 UNK         0.3000 
    180 H180        3.3553   -9.7342  -41.0119 H         1 UNK         0.0600 
    181 H181        4.1329   -8.7311  -43.8049 H         1 UNK         0.0600 
    182 H182        5.0349   -8.4286  -42.3248 H         1 UNK         0.0600 
    183 H183        3.4230   -7.7579  -42.5157 H         1 UNK         0.0600 
    184 H184        1.8529   -9.5973  -43.4600 H         1 UNK         0.3000 
    185 H185       -0.2634  -12.3195  -42.9686 H         1 UNK         0.0600 
    186 H186       -1.3411  -10.8268  -41.2711 H         1 UNK         0.0600 
    187 H187       -1.1314   -9.4503  -42.3478 H         1 UNK         0.0600 
    188 H188       -2.1895  -10.7845  -42.8079 H         1 UNK         0.0600 
    189 H189       -0.8339  -10.3469  -44.7472 H         1 UNK         0.3000 
    190 H190       -4.0117  -21.2215  -46.2706 H         1 UNK         0.3000 
    191 H191       -6.8715  -22.0936  -46.2867 H         1 UNK         0.0600 
    192 H192       -6.6103  -20.3664  -44.5305 H         1 UNK         0.0600 
    193 H193       -6.8090  -21.9491  -43.7935 H         1 UNK         0.0600 
    194 H194       -5.2139  -21.2062  -43.8617 H         1 UNK         0.0600 
    195 H195       -3.5773  -22.7081  -44.9515 H         1 UNK         0.3000 
    196 H196       -4.0045  -25.3094  -44.0608 H         1 UNK         0.0600 
    197 H197       -1.5046  -25.4085  -44.0039 H         1 UNK         0.0600 
    198 H198       -2.0898  -23.8674  -43.3949 H         1 UNK         0.0600 
    199 H199       -1.4146  -23.9744  -45.0193 H         1 UNK         0.0600 
    200 H200       -3.7529  -27.3281  -44.8669 H         1 UNK         0.3000 
    201 H201       -3.8470  -29.0377  -46.2731 H         1 UNK         0.0600 
    202 H202       -1.4040  -28.6165  -46.4187 H         1 UNK         0.0600 
    203 H203       -1.6440  -27.5489  -47.7975 H         1 UNK         0.0600 
    204 H204       -2.0105  -29.2638  -47.9332 H         1 UNK         0.0600 
    205 H205       -5.8748  -27.2458  -46.6594 H         1 UNK         0.3000 
    206 H206       -7.5665  -26.6174  -47.9520 H         1 UNK         0.0600 
    207 H207       -7.6882  -29.0377  -48.5690 H         1 UNK         0.0600 
    208 H208       -8.2134  -28.0081  -49.8915 H         1 UNK         0.0600 
    209 H209       -6.6232  -28.7530  -49.9445 H         1 UNK         0.0600 
    210 H210       -5.6665  -24.8752  -47.9404 H         1 UNK         0.3000 
    211 H211       -4.6350  -23.1483  -48.8475 H         1 UNK         0.0600 
    212 H212       -6.5746  -23.4316  -51.2086 H         1 UNK         0.0600 
    213 H213       -5.6622  -21.9917  -50.7778 H         1 UNK         0.0600 
    214 H214       -6.9220  -22.5839  -49.7062 H         1 UNK         0.0600 
    215 H215       -3.1781  -25.2970  -49.0024 H         1 UNK         0.3000 
    216 H216       -1.5741  -26.5124  -49.9348 H         1 UNK         0.0600 
    217 H217        0.0834  -25.2686  -51.3211 H         1 UNK         0.0600 
    218 H218       -0.4660  -24.3018  -49.9599 H         1 UNK         0.0600 
    219 H219       -1.0820  -23.9745  -51.5739 H         1 UNK         0.0600 
    220 H220       -3.8408  -27.4130  -50.8248 H         1 UNK         0.3000 
    221 H221       -5.0346  -28.5040  -52.3165 H         1 UNK         0.0600 
    222 H222       -2.4367  -28.8340  -53.9111 H         1 UNK         0.0600 
    223 H223       -2.9538  -29.8592  -52.5731 H         1 UNK         0.0600 
    224 H224       -3.8846  -29.8190  -54.0619 H         1 UNK         0.0600 
    225 H225       -5.5344  -25.9667  -52.4358 H         1 UNK         0.3000 
    226 H226       -6.3731  -24.2346  -53.5070 H         1 UNK         0.0600 
    227 H227       -7.9569  -25.9731  -54.3200 H         1 UNK         0.0600 
    228 H228       -7.7699  -24.6857  -55.4994 H         1 UNK         0.0600 
    229 H229       -6.9664  -26.2290  -55.7558 H         1 UNK         0.0600 
    230 H230       -3.7731  -23.9522  -53.5353 H         1 UNK         0.3000 
    231 H231       -2.5564  -23.6372  -56.1343 H         1 UNK         0.0600 
    232 H232       -1.7528  -22.5612  -53.3797 H         1 UNK         0.0600 
    233 H233       -0.7343  -22.5339  -54.8145 H         1 UNK         0.0600 
    234 H234       -1.2055  -24.0707  -54.1112 H         1 UNK         0.0600 
    235 H235       -4.2821  -21.4780  -53.9419 H         1 UNK         0.3000 
    236 H236       -5.0085  -19.3775  -53.9927 H         1 UNK         0.0600 
    237 H237       -6.2983  -20.2450  -55.9495 H         1 UNK         0.0600 
    238 H238       -5.9602  -18.5290  -56.1049 H         1 UNK         0.0600 
    239 H239       -5.0296  -19.6914  -57.0403 H         1 UNK         0.0600 
    240 H240       -2.3253  -19.5434  -53.5727 H         1 UNK         0.3000 
    241 H241       -0.7314  -17.8264  -55.1818 H         1 UNK         0.0600 
    242 H242       -2.4851  -15.2774  -52.4910 H         1 UNK         0.3800 
    243 H243       -2.8678  -16.9731  -52.4047 H         1 UNK         0.3800 
    244 H244        0.1843  -19.6414  -53.8017 H         1 UNK         0.0800 
    245 H245       -0.3158  -18.8519  -52.3452 H         1 UNK         0.0800 
    246 H246        3.0838  -17.5261  -51.4130 H         1 UNK         0.0800 
    247 H247        1.9348  -18.8045  -51.1293 H         1 UNK         0.0800 
@<TRIPOS>BOND
     1    1    2 1    
     2    1  127 1    
     3    1  128 1    
     4    1  129 1    
     5    2    3 2    
     6    2    4 am   BACKBONE|DICT|INTERRES
     7    4    5 1    
     8    4  130 1    
     9    5    6 1    
    10    5   65 1    
    11    5  131 1    
    12    6    7 1    
    13    6  132 1    
    14    6  133 1    
    15    7    8 1    
    16    8    9 1    
    17    8  134 1    
    18    8  135 1    
    19    9   10 ar   
    20    9   14 ar   
    21   10   11 ar   
    22   10  136 1    
    23   11   12 ar   
    24   11  126 1    
    25   12   13 ar   
    26   12  137 1    
    27   13   14 ar   
    28   13   15 1    
    29   14  138 1    
    30   15   16 1    
    31   15  139 1    
    32   15  140 1    
    33   16   17 1    
    34   17   18 1    
    35   17  141 1    
    36   17  142 1    
    37   18   19 1    
    38   18   67 1    
    39   18  143 1    
    40   19   20 am   BACKBONE|DICT|INTERRES
    41   19  144 1    
    42   20   21 2    
    43   20   22 1    
    44   22   23 1    
    45   22   24 1    
    46   22  145 1    
    47   23  146 1    
    48   23  147 1    
    49   23  148 1    
    50   24   25 am   BACKBONE|DICT|INTERRES
    51   24  149 1    
    52   25   26 2    
    53   25   27 1    
    54   27   28 1    
    55   27   29 1    
    56   27  150 1    
    57   28  151 1    
    58   28  152 1    
    59   28  153 1    
    60   29   30 am   BACKBONE|DICT|INTERRES
    61   29  154 1    
    62   30   31 2    
    63   30   32 1    
    64   32   33 1    
    65   32   34 1    
    66   32  155 1    
    67   33  156 1    
    68   33  157 1    
    69   33  158 1    
    70   34   35 am   BACKBONE|DICT|INTERRES
    71   34  159 1    
    72   35   36 2    
    73   35   37 1    
    74   37   38 1    
    75   37   39 1    
    76   37  160 1    
    77   38  161 1    
    78   38  162 1    
    79   38  163 1    
    80   39   40 am   BACKBONE|DICT|INTERRES
    81   39  164 1    
    82   40   41 2    
    83   40   42 1    
    84   42   43 1    
    85   42   44 1    
    86   42  165 1    
    87   43  166 1    
    88   43  167 1    
    89   43  168 1    
    90   44   45 am   BACKBONE|DICT|INTERRES
    91   44  169 1    
    92   45   46 2    
    93   45   47 1    
    94   47   48 1    
    95   47   49 1    
    96   47  170 1    
    97   48  171 1    
    98   48  172 1    
    99   48  173 1    
   100   49   50 am   BACKBONE|DICT|INTERRES
   101   49  174 1    
   102   50   51 2    
   103   50   52 1    
   104   52   53 1    
   105   52   54 1    
   106   52  175 1    
   107   53  176 1    
   108   53  177 1    
   109   53  178 1    
   110   54   55 am   BACKBONE|DICT|INTERRES
   111   54  179 1    
   112   55   56 2    
   113   55   57 1    
   114   57   58 1    
   115   57   59 1    
   116   57  180 1    
   117   58  181 1    
   118   58  182 1    
   119   58  183 1    
   120   59   60 am   BACKBONE|DICT|INTERRES
   121   59  184 1    
   122   60   61 2    
   123   60   62 1    
   124   62   63 1    
   125   62   64 1    
   126   62  185 1    
   127   63  186 1    
   128   63  187 1    
   129   63  188 1    
   130   64   65 am   BACKBONE|DICT|INTERRES
   131   64  189 1    
   132   65   66 2    
   133   67   68 2    
   134   67   69 am   BACKBONE|DICT|INTERRES
   135   69   70 1    
   136   69  190 1    
   137   70   71 1    
   138   70   72 1    
   139   70  191 1    
   140   71  192 1    
   141   71  193 1    
   142   71  194 1    
   143   72   73 2    
   144   72   74 am   BACKBONE|DICT|INTERRES
   145   74   75 1    
   146   74  195 1    
   147   75   76 1    
   148   75   77 1    
   149   75  196 1    
   150   76  197 1    
   151   76  198 1    
   152   76  199 1    
   153   77   78 2    
   154   77   79 am   BACKBONE|DICT|INTERRES
   155   79   80 1    
   156   79  200 1    
   157   80   81 1    
   158   80   82 1    
   159   80  201 1    
   160   81  202 1    
   161   81  203 1    
   162   81  204 1    
   163   82   83 2    
   164   82   84 am   BACKBONE|DICT|INTERRES
   165   84   85 1    
   166   84  205 1    
   167   85   86 1    
   168   85   87 1    
   169   85  206 1    
   170   86  207 1    
   171   86  208 1    
   172   86  209 1    
   173   87   88 2    
   174   87   89 am   BACKBONE|DICT|INTERRES
   175   89   90 1    
   176   89  210 1    
   177   90   91 1    
   178   90   92 1    
   179   90  211 1    
   180   91  212 1    
   181   91  213 1    
   182   91  214 1    
   183   92   93 2    
   184   92   94 am   BACKBONE|DICT|INTERRES
   185   94   95 1    
   186   94  215 1    
   187   95   96 1    
   188   95   97 1    
   189   95  216 1    
   190   96  217 1    
   191   96  218 1    
   192   96  219 1    
   193   97   98 2    
   194   97   99 am   BACKBONE|DICT|INTERRES
   195   99  100 1    
   196   99  220 1    
   197  100  101 1    
   198  100  102 1    
   199  100  221 1    
   200  101  222 1    
   201  101  223 1    
   202  101  224 1    
   203  102  103 2    
   204  102  104 am   BACKBONE|DICT|INTERRES
   205  104  105 1    
   206  104  225 1    
   207  105  106 1    
   208  105  107 1    
   209  105  226 1    
   210  106  227 1    
   211  106  228 1    
   212  106  229 1    
   213  107  108 2    
   214  107  109 am   BACKBONE|DICT|INTERRES
   215  109  110 1    
   216  109  230 1    
   217  110  111 1    
   218  110  112 1    
   219  110  231 1    
   220  111  232 1    
   221  111  233 1    
   222  111  234 1    
   223  112  113 2    
   224  112  114 am   BACKBONE|DICT|INTERRES
   225  114  115 1    
   226  114  235 1    
   227  115  116 1    
   228  115  117 1    
   229  115  236 1    
   230  116  237 1    
   231  116  238 1    
   232  116  239 1    
   233  117  118 2    
   234  117  119 am   BACKBONE|DICT|INTERRES
   235  119  120 1    
   236  119  240 1    
   237  120  121 1    
   238  120  124 1    
   239  120  241 1    
   240  121  122 am   BACKBONE|DICT|INTERRES
   241  121  123 2    
   242  122  242 1    
   243  122  243 1    
   244  124  125 1    
   245  124  244 1    
   246  124  245 1    
   247  125  126 1    
   248  126  246 1    
   249  126  247 1    
@<TRIPOS>SUBSTRUCTURE
     1 UNK         1 GROUP             0       ****    0 ROOT    
