@<TRIPOS>MOLECULE
3R540
247   249    1
SMALL
USER_CHARGES


@<TRIPOS>ATOM
      1 CA         -2.7949  -14.0335  -50.9257 C.3       0 UNK        -0.1800 
      2 C          -1.3523  -13.5825  -50.7433 C.2       0 UNK         0.5000 
      3 O          -0.8704  -12.7455  -51.5074 O.2       0 UNK        -0.5000 
      4 N          -0.6691  -14.1264  -49.7291 N.am      1 UNK        -0.5000 
      5 CA          0.6854  -13.7572  -49.3183 C.3       1 UNK         0.1400 
      6 C6          1.2232  -14.7513  -48.2578 C.3       23 UNK        -0.0398 
      7 S7          3.0406  -14.7191  -48.0707 S.3       23 UNK        -0.2404 
      8 C8          3.6094  -15.6973  -49.5017 C.3       23 UNK        -0.0205 
      9 C9          3.2016  -17.1606  -49.4153 C.ar      23 UNK        -0.0193 
     10 C10         2.0507  -17.6065  -50.0715 C.ar      23 UNK        -0.1150 
     11 C11         1.6573  -18.9432  -49.9820 C.ar      23 UNK        -0.0193 
     12 C12         2.4457  -19.8484  -49.2711 C.ar      23 UNK        -0.1150 
     13 C13         3.5933  -19.4141  -48.6016 C.ar      23 UNK        -0.0193 
     14 C14         3.9704  -18.0696  -48.6807 C.ar      23 UNK        -0.1150 
     15 C15         4.4028  -20.3989  -47.7712 C.3       23 UNK        -0.0205 
     16 S16         3.9889  -20.3230  -45.9957 S.3       23 UNK        -0.2404 
     17 C17         2.1931  -20.6524  -45.9923 C.3       23 UNK        -0.0398 
     18 CA          1.8367  -22.1511  -46.1052 C.3       11 UNK         0.1400 
     19 N           2.3228  -22.9183  -44.9559 N.am      11 UNK        -0.5000 
     20 C           2.4212  -24.2523  -44.8992 C.2       10 UNK         0.5000 
     21 O           2.1443  -24.9995  -45.8373 O.2       10 UNK        -0.5000 
     22 CA          2.8944  -24.8494  -43.5598 C.3       10 UNK         0.1400 
     23 CB          4.4289  -24.8993  -43.5057 C.3       10 UNK        -0.1800 
     24 N           2.3970  -24.0971  -42.4055 N.am      10 UNK        -0.5000 
     25 C           1.1265  -24.1230  -41.9780 C.2       9 UNK         0.5000 
     26 O           0.2568  -24.8454  -42.4652 O.2       9 UNK        -0.5000 
     27 CA          0.7565  -23.1538  -40.8347 C.3       9 UNK         0.1400 
     28 CB          0.9659  -23.8271  -39.4700 C.3       9 UNK        -0.1800 
     29 N           1.4881  -21.8800  -40.8628 N.am      9 UNK        -0.5000 
     30 C           1.4565  -21.0078  -41.8794 C.2       8 UNK         0.5000 
     31 O           0.8393  -21.2191  -42.9221 O.2       8 UNK        -0.5000 
     32 CA          2.3050  -19.7298  -41.7273 C.3       8 UNK         0.1400 
     33 CB          3.7996  -20.0676  -41.8561 C.3       8 UNK        -0.1800 
     34 N           1.9826  -18.7010  -42.7207 N.am      8 UNK        -0.5000 
     35 C           0.8259  -18.0296  -42.8072 C.2       7 UNK         0.5000 
     36 O          -0.1067  -18.1758  -42.0134 O.2       7 UNK        -0.5000 
     37 CA          0.7052  -16.9629  -43.9201 C.3       7 UNK         0.1400 
     38 CB          1.8518  -16.9605  -44.9559 C.3       7 UNK        -0.1800 
     39 N          -0.5979  -16.9834  -44.5893 N.am      7 UNK        -0.5000 
     40 C          -1.1436  -17.9942  -45.2841 C.2       6 UNK         0.5000 
     41 O          -0.5847  -19.0703  -45.4830 O.2       6 UNK        -0.5000 
     42 CA         -2.5629  -17.7787  -45.8509 C.3       6 UNK         0.1400 
     43 CB         -3.5996  -18.5199  -44.9917 C.3       6 UNK        -0.1800 
     44 N          -2.9479  -16.3686  -45.9331 N.am      6 UNK        -0.5000 
     45 C          -2.5187  -15.5164  -46.8720 C.2       5 UNK         0.5000 
     46 O          -1.8003  -15.8431  -47.8157 O.2       5 UNK        -0.5000 
     47 CA         -2.9325  -14.0364  -46.7306 C.3       5 UNK         0.1400 
     48 CB         -4.2155  -13.8219  -45.8973 C.3       5 UNK        -0.1800 
     49 N          -1.8338  -13.2110  -46.2152 N.am      5 UNK        -0.5000 
     50 C          -1.1917  -13.3642  -45.0498 C.2       4 UNK         0.5000 
     51 O          -1.4436  -14.2534  -44.2329 O.2       4 UNK        -0.5000 
     52 CA         -0.0686  -12.3699  -44.7296 C.3       4 UNK         0.1400 
     53 CB         -0.4856  -11.4509  -43.5663 C.3       4 UNK        -0.1800 
     54 N           1.0978  -13.1674  -44.3641 N.am      4 UNK        -0.5000 
     55 C           2.3993  -12.8590  -44.4264 C.2       3 UNK         0.5000 
     56 O           3.2545  -13.6936  -44.1354 O.2       3 UNK        -0.5000 
     57 CA          2.8416  -11.4572  -44.8930 C.3       3 UNK         0.1400 
     58 CB          4.3077  -11.1425  -44.5362 C.3       3 UNK        -0.1800 
     59 N           2.6649  -11.3386  -46.3364 N.am      3 UNK        -0.5000 
     60 C           2.3080  -10.2147  -46.9723 C.2       2 UNK         0.5000 
     61 O           2.0963   -9.1448  -46.4004 O.2       2 UNK        -0.5000 
     62 CA          2.1511  -10.2900  -48.5044 C.3       2 UNK         0.1400 
     63 CB          3.4136   -9.7564  -49.1985 C.3       2 UNK        -0.1800 
     64 N           1.8758  -11.6409  -48.9968 N.am      2 UNK        -0.5000 
     65 C           0.7325  -12.3068  -48.7933 C.2       1 UNK         0.5000 
     66 O          -0.2333  -11.8396  -48.1822 O.2       1 UNK        -0.5000 
     67 C           0.3169  -22.3240  -46.2895 C.2       11 UNK         0.5000 
     68 O          -0.1465  -22.4748  -47.4200 O.2       11 UNK        -0.5000 
     69 N          -0.4215  -22.3534  -45.1707 N.am      12 UNK        -0.5000 
     70 CA         -1.8792  -22.4563  -45.0934 C.3       12 UNK         0.1400 
     71 CB         -2.3159  -22.3214  -43.6277 C.3       12 UNK        -0.1800 
     72 C          -2.4792  -23.7250  -45.7291 C.2       12 UNK         0.5000 
     73 O          -3.6753  -23.7397  -46.0165 O.2       12 UNK        -0.5000 
     74 N          -1.6504  -24.7417  -46.0020 N.am      13 UNK        -0.5000 
     75 CA         -2.0028  -25.9023  -46.8200 C.3       13 UNK         0.1400 
     76 CB         -0.8253  -26.8872  -46.8309 C.3       13 UNK        -0.1800 
     77 C          -2.4054  -25.5198  -48.2602 C.2       13 UNK         0.5000 
     78 O          -3.3075  -26.1421  -48.8194 O.2       13 UNK        -0.5000 
     79 N          -1.7739  -24.4759  -48.8191 N.am      14 UNK        -0.5000 
     80 CA         -2.1162  -23.9182  -50.1279 C.3       14 UNK         0.1400 
     81 CB         -0.9561  -23.0520  -50.6346 C.3       14 UNK        -0.1800 
     82 C          -3.4259  -23.1106  -50.0896 C.2       14 UNK         0.5000 
     83 O          -4.1738  -23.1243  -51.0664 O.2       14 UNK        -0.5000 
     84 N          -3.7041  -22.4518  -48.9555 N.am      15 UNK        -0.5000 
     85 CA         -4.9636  -21.7491  -48.7040 C.3       15 UNK         0.1400 
     86 CB         -4.8175  -20.8246  -47.4860 C.3       15 UNK        -0.1800 
     87 C          -6.1352  -22.7309  -48.5302 C.2       15 UNK         0.5000 
     88 O          -7.2076  -22.4951  -49.0849 O.2       15 UNK        -0.5000 
     89 N          -5.8925  -23.8457  -47.8254 N.am      16 UNK        -0.5000 
     90 CA         -6.8259  -24.9654  -47.6757 C.3       16 UNK         0.1400 
     91 CB         -6.2707  -25.9578  -46.6434 C.3       16 UNK        -0.1800 
     92 C          -7.1286  -25.6748  -49.0111 C.2       16 UNK         0.5000 
     93 O          -8.2684  -26.0805  -49.2394 O.2       16 UNK        -0.5000 
     94 N          -6.1169  -25.7680  -49.8859 N.am      17 UNK        -0.5000 
     95 CA         -6.2334  -26.2573  -51.2629 C.3       17 UNK         0.1400 
     96 CB         -4.8377  -26.6549  -51.7688 C.3       17 UNK        -0.1800 
     97 C          -6.8886  -25.2438  -52.2278 C.2       17 UNK         0.5000 
     98 O          -7.1779  -25.6081  -53.3683 O.2       17 UNK        -0.5000 
     99 N          -7.1069  -24.0045  -51.7629 N.am      18 UNK        -0.5000 
    100 CA        -7.6959  -22.8662  -52.4711 C.3       18 UNK         0.1400 
    101 CB        -9.1712  -23.1431  -52.8297 C.3       18 UNK        -0.1800 
    102 C         -6.8518  -22.3913  -53.6715 C.2       18 UNK         0.5000 
    103 O         -7.4067  -22.0301  -54.7118 O.2       18 UNK        -0.5000 
    104 N         -5.5212  -22.3833  -53.5068 N.am      19 UNK        -0.5000 
    105 CA        -4.5781  -21.8142  -54.4684 C.3       19 UNK         0.1400 
    106 CB        -3.1478  -22.2164  -54.0780 C.3       19 UNK        -0.1800 
    107 C         -4.7089  -20.2814  -54.5110 C.2       19 UNK         0.5000 
    108 O         -4.7375  -19.6469  -53.4541 O.2       19 UNK        -0.5000 
    109 N         -4.7567  -19.7110  -55.7228 N.am      20 UNK        -0.5000 
    110 CA        -4.9638  -18.2783  -55.9725 C.3       20 UNK         0.1400 
    111 CB        -5.0761  -18.0419  -57.4862 C.3       20 UNK        -0.1800 
    112 C         -3.8799  -17.3670  -55.3638 C.2       20 UNK         0.5000 
    113 O         -4.1820  -16.2418  -54.9657 O.2       20 UNK        -0.5000 
    114 N         -2.6512  -17.8896  -55.2568 N.am      21 UNK        -0.5000 
    115 CA        -1.5069  -17.2391  -54.6154 C.3       21 UNK         0.1400 
    116 CB        -0.2322  -18.0080  -54.9993 C.3       21 UNK        -0.1800 
    117 C         -1.6229  -17.1323  -53.0798 C.2       21 UNK         0.5000 
    118 O         -0.8220  -16.4213  -52.4743 O.2       21 UNK        -0.5000 
    119 N         -2.5834  -17.8468  -52.4803 N.am      22 UNK        -0.5000 
    120 CA        -2.8288  -17.9221  -51.0334 C.3       22 UNK         0.1400 
    121 C         -4.2693  -17.4828  -50.6361 C.2       22 UNK         0.5000 
    122 N         -5.0531  -16.8896  -51.5298 N.am      22 UNK        -0.7600 
    123 O         -4.6790  -17.6534  -49.4918 O.2       22 UNK        -0.5000 
    124 C124       -2.4451  -19.3310  -50.4918 C.3       23 UNK        -0.0398 
    125 S125       -0.9973  -19.2636  -49.3946 S.3       23 UNK        -0.2404 
    126 C126        0.3526  -19.3958  -50.6073 C.3       23 UNK        -0.0205 
    127 H127       -3.4657  -13.1758  -50.8798 H         1 UNK         0.0600 
    128 H128       -3.0970  -14.7404  -50.1534 H         1 UNK         0.0600 
    129 H129       -2.9202  -14.5141  -51.8958 H         1 UNK         0.0600 
    130 H130       -1.1260  -14.8113  -49.1296 H         1 UNK         0.3000 
    131 H131        1.3083  -13.8215  -50.2123 H         1 UNK         0.0600 
    132 H132        0.9189  -15.7691  -48.4985 H         1 UNK         0.0800 
    133 H133        0.7733  -14.5543  -47.2833 H         1 UNK         0.0800 
    134 H134        3.2349  -15.2527  -50.4246 H         1 UNK         0.0800 
    135 H135        4.6968  -15.6296  -49.5579 H         1 UNK         0.0800 
    136 H136        1.4390  -16.9066  -50.6249 H         1 UNK         0.1150 
    137 H137        2.1347  -20.8812  -49.1962 H         1 UNK         0.1150 
    138 H138        4.8527  -17.7277  -48.1579 H         1 UNK         0.1150 
    139 H139        4.2521  -21.4170  -48.1330 H         1 UNK         0.0800 
    140 H140        5.4665  -20.1899  -47.8934 H         1 UNK         0.0800 
    141 H141        1.7071  -20.0695  -46.7735 H         1 UNK         0.0800 
    142 H142        1.7938  -20.2469  -45.0648 H         1 UNK         0.0800 
    143 H143        2.3144  -22.5481  -47.0031 H         1 UNK         0.0600 
    144 H144        2.5173  -22.3843  -44.1225 H         1 UNK         0.3000 
    145 H145        2.5174  -25.8726  -43.4977 H         1 UNK         0.0600 
    146 H146        4.7758  -25.3790  -42.5903 H         1 UNK         0.0600 
    147 H147        4.8299  -25.4715  -44.3435 H         1 UNK         0.0600 
    148 H148        4.8676  -23.9016  -43.5500 H         1 UNK         0.0600 
    149 H149        3.0507  -23.4872  -41.9375 H         1 UNK         0.3000 
    150 H150       -0.3054  -22.9220  -40.9392 H         1 UNK         0.0600 
    151 H151        2.0178  -24.0511  -39.2886 H         1 UNK         0.0600 
    152 H152        0.4149  -24.7666  -39.4091 H         1 UNK         0.0600 
    153 H153        0.6119  -23.1920  -38.6578 H         1 UNK         0.0600 
    154 H154        2.0283  -21.6551  -40.0397 H         1 UNK         0.3000 
    155 H155        2.1185  -19.3141  -40.7352 H         1 UNK         0.0600 
    156 H156        4.0329  -20.4962  -42.8317 H         1 UNK         0.0600 
    157 H157        4.1121  -20.7872  -41.0986 H         1 UNK         0.0600 
    158 H158        4.4173  -19.1787  -41.7259 H         1 UNK         0.0600 
    159 H159        2.6852  -18.5277  -43.4238 H         1 UNK         0.3000 
    160 H160        0.7495  -16.0076  -43.3967 H         1 UNK         0.0600 
    161 H161        1.8832  -17.8778  -45.5413 H         1 UNK         0.0600 
    162 H162        2.8248  -16.8276  -44.4820 H         1 UNK         0.0600 
    163 H163        1.7333  -16.1351  -45.6561 H         1 UNK         0.0600 
    164 H164       -1.1506  -16.1399  -44.4672 H         1 UNK         0.3000 
    165 H165       -2.5828  -18.2046  -46.8565 H         1 UNK         0.0600 
    166 H166       -4.5984  -18.4385  -45.4211 H         1 UNK         0.0600 
    167 H167       -3.3632  -19.5815  -44.9210 H         1 UNK         0.0600 
    168 H168       -3.6351  -18.1255  -43.9755 H         1 UNK         0.0600 
    169 H169       -3.5104  -16.0070  -45.1768 H         1 UNK         0.3000 
    170 H170       -3.1380  -13.6790  -47.7406 H         1 UNK         0.0600 
    171 H171       -5.0403  -14.4192  -46.2881 H         1 UNK         0.0600 
    172 H172       -4.0831  -14.0846  -44.8475 H         1 UNK         0.0600 
    173 H173       -4.5300  -12.7789  -45.9351 H         1 UNK         0.0600 
    174 H174       -1.4824  -12.5100  -46.8631 H         1 UNK         0.3000 
    175 H175        0.1374  -11.7656  -45.6109 H         1 UNK         0.0600 
    176 H176       -0.6935  -12.0215  -42.6601 H         1 UNK         0.0600 
    177 H177        0.2778  -10.7146  -43.3227 H         1 UNK         0.0600 
    178 H178       -1.3918  -10.8982  -43.8178 H         1 UNK         0.0600 
    179 H179        0.8453  -14.0954  -44.0575 H         1 UNK         0.3000 
    180 H180        2.2204  -10.7257  -44.3777 H         1 UNK         0.0600 
    181 H181        5.0005  -11.8074  -45.0536 H         1 UNK         0.0600 
    182 H182        4.4817  -11.2515  -43.4650 H         1 UNK         0.0600 
    183 H183        4.5670  -10.1181  -44.8037 H         1 UNK         0.0600 
    184 H184        2.8125  -12.1821  -46.8736 H         1 UNK         0.3000 
    185 H185        1.3112   -9.6489  -48.7806 H         1 UNK         0.0600 
    186 H186        3.6348   -8.7374  -48.8779 H         1 UNK         0.0600 
    187 H187        4.2873  -10.3687  -48.9715 H         1 UNK         0.0600 
    188 H188        3.2897   -9.7344  -50.2814 H         1 UNK         0.0600 
    189 H189        2.6274  -12.0962  -49.4947 H         1 UNK         0.3000 
    190 H190        0.0512  -22.1379  -44.2953 H         1 UNK         0.3000 
    191 H191       -2.2823  -21.6074  -45.6478 H         1 UNK         0.0600 
    192 H192       -1.9775  -21.3760  -43.2024 H         1 UNK         0.0600 
    193 H193       -3.4026  -22.3469  -43.5376 H         1 UNK         0.0600 
    194 H194       -1.9145  -23.1290  -43.0151 H         1 UNK         0.0600 
    195 H195       -0.6806  -24.6490  -45.7349 H         1 UNK         0.3000 
    196 H196       -2.8587  -26.3935  -46.3533 H         1 UNK         0.0600 
    197 H197       -1.0673  -27.7790  -47.4106 H         1 UNK         0.0600 
    198 H198       -0.5739  -27.2133  -45.8214 H         1 UNK         0.0600 
    199 H199        0.0679  -26.4410  -47.2704 H         1 UNK         0.0600 
    200 H200       -1.0751  -23.9691  -48.2825 H         1 UNK         0.3000 
    201 H201       -2.2505  -24.7420  -50.8314 H         1 UNK         0.0600 
    202 H202       -1.1659  -22.6530  -51.6270 H         1 UNK         0.0600 
    203 H203       -0.0333  -23.6280  -50.7031 H         1 UNK         0.0600 
    204 H204       -0.7739  -22.2076  -49.9715 H         1 UNK         0.0600 
    205 H205       -3.0466  -22.5070  -48.1922 H         1 UNK         0.3000 
    206 H206       -5.1839  -21.1255  -49.5733 H         1 UNK         0.0600 
    207 H207       -3.9747  -20.1441  -47.6053 H         1 UNK         0.0600 
    208 H208       -5.7107  -20.2121  -47.3584 H         1 UNK         0.0600 
    209 H209       -4.6717  -21.3814  -46.5612 H         1 UNK         0.0600 
    210 H210       -5.0048  -23.9249  -47.3356 H         1 UNK         0.3000 
    211 H211       -7.7665  -24.5650  -47.2919 H         1 UNK         0.0600 
    212 H212       -5.3269  -26.3938  -46.9708 H         1 UNK         0.0600 
    213 H213       -6.9700  -26.7776  -46.4749 H         1 UNK         0.0600 
    214 H214       -6.0989  -25.4727  -45.6823 H         1 UNK         0.0600 
    215 H215       -5.1918  -25.4822  -49.5873 H         1 UNK         0.3000 
    216 H216       -6.8590  -27.1520  -51.2583 H         1 UNK         0.0600 
    217 H217       -4.8926  -27.0954  -52.7650 H         1 UNK         0.0600 
    218 H218       -4.3741  -27.3927  -51.1139 H         1 UNK         0.0600 
    219 H219       -4.1733  -25.7933  -51.8296 H         1 UNK         0.0600 
    220 H220       -6.8212  -23.8073  -50.8126 H         1 UNK         0.3000 
    221 H221       -7.6873  -22.0375  -51.7621 H         1 UNK         0.0600 
    222 H222       -9.2670  -23.9215  -53.5871 H         1 UNK         0.0600 
    223 H223       -9.7369  -23.4566  -51.9522 H         1 UNK         0.0600 
    224 H224       -9.6528  -22.2463  -53.2210 H         1 UNK         0.0600 
    225 H225       -5.1318  -22.6762  -52.6133 H         1 UNK         0.3000 
    226 H226       -4.7993  -22.2276  -55.4545 H         1 UNK         0.0600 
    227 H227       -3.0468  -23.2993  -54.0032 H         1 UNK         0.0600 
    228 H228       -2.4276  -21.8704  -54.8202 H         1 UNK         0.0600 
    229 H229       -2.8607  -21.7865  -53.1180 H         1 UNK         0.0600 
    230 H230       -4.7183  -20.3029  -56.5402 H         1 UNK         0.3000 
    231 H231       -5.9146  -18.0005  -55.5128 H         1 UNK         0.0600 
    232 H232       -4.1646  -18.3358  -58.0083 H         1 UNK         0.0600 
    233 H233       -5.2547  -16.9882  -57.7053 H         1 UNK         0.0600 
    234 H234       -5.9057  -18.6054  -57.9136 H         1 UNK         0.0600 
    235 H235       -2.5016  -18.8247  -55.6062 H         1 UNK         0.3000 
    236 H236       -1.4271  -16.2227  -55.0065 H         1 UNK         0.0600 
    237 H237       -0.0970  -18.0346  -56.0807 H         1 UNK         0.0600 
    238 H238        0.6543  -17.5347  -54.5748 H         1 UNK         0.0600 
    239 H239       -0.2593  -19.0366  -54.6372 H         1 UNK         0.0600 
    240 H240       -3.2215  -18.3977  -53.0456 H         1 UNK         0.3000 
    241 H241       -2.2081  -17.1732  -50.5379 H         1 UNK         0.0600 
    242 H242       -5.9810  -16.6066  -51.2590 H         1 UNK         0.3800 
    243 H243       -4.7337  -16.7275  -52.4722 H         1 UNK         0.3800 
    244 H244       -3.2538  -19.7815  -49.9197 H         1 UNK         0.0800 
    245 H245       -2.2500  -20.0382  -51.2996 H         1 UNK         0.0800 
    246 H246        0.1334  -18.7830  -51.4805 H         1 UNK         0.0800 
    247 H247        0.4366  -20.4225  -50.9639 H         1 UNK         0.0800 
@<TRIPOS>BOND
     1    1    2 1    
     2    1  127 1    
     3    1  128 1    
     4    1  129 1    
     5    2    3 2    
     6    2    4 am   BACKBONE|DICT|INTERRES
     7    4    5 1    
     8    4  130 1    
     9    5    6 1    
    10    5   65 1    
    11    5  131 1    
    12    6    7 1    
    13    6  132 1    
    14    6  133 1    
    15    7    8 1    
    16    8    9 1    
    17    8  134 1    
    18    8  135 1    
    19    9   10 ar   
    20    9   14 ar   
    21   10   11 ar   
    22   10  136 1    
    23   11   12 ar   
    24   11  126 1    
    25   12   13 ar   
    26   12  137 1    
    27   13   14 ar   
    28   13   15 1    
    29   14  138 1    
    30   15   16 1    
    31   15  139 1    
    32   15  140 1    
    33   16   17 1    
    34   17   18 1    
    35   17  141 1    
    36   17  142 1    
    37   18   19 1    
    38   18   67 1    
    39   18  143 1    
    40   19   20 am   BACKBONE|DICT|INTERRES
    41   19  144 1    
    42   20   21 2    
    43   20   22 1    
    44   22   23 1    
    45   22   24 1    
    46   22  145 1    
    47   23  146 1    
    48   23  147 1    
    49   23  148 1    
    50   24   25 am   BACKBONE|DICT|INTERRES
    51   24  149 1    
    52   25   26 2    
    53   25   27 1    
    54   27   28 1    
    55   27   29 1    
    56   27  150 1    
    57   28  151 1    
    58   28  152 1    
    59   28  153 1    
    60   29   30 am   BACKBONE|DICT|INTERRES
    61   29  154 1    
    62   30   31 2    
    63   30   32 1    
    64   32   33 1    
    65   32   34 1    
    66   32  155 1    
    67   33  156 1    
    68   33  157 1    
    69   33  158 1    
    70   34   35 am   BACKBONE|DICT|INTERRES
    71   34  159 1    
    72   35   36 2    
    73   35   37 1    
    74   37   38 1    
    75   37   39 1    
    76   37  160 1    
    77   38  161 1    
    78   38  162 1    
    79   38  163 1    
    80   39   40 am   BACKBONE|DICT|INTERRES
    81   39  164 1    
    82   40   41 2    
    83   40   42 1    
    84   42   43 1    
    85   42   44 1    
    86   42  165 1    
    87   43  166 1    
    88   43  167 1    
    89   43  168 1    
    90   44   45 am   BACKBONE|DICT|INTERRES
    91   44  169 1    
    92   45   46 2    
    93   45   47 1    
    94   47   48 1    
    95   47   49 1    
    96   47  170 1    
    97   48  171 1    
    98   48  172 1    
    99   48  173 1    
   100   49   50 am   BACKBONE|DICT|INTERRES
   101   49  174 1    
   102   50   51 2    
   103   50   52 1    
   104   52   53 1    
   105   52   54 1    
   106   52  175 1    
   107   53  176 1    
   108   53  177 1    
   109   53  178 1    
   110   54   55 am   BACKBONE|DICT|INTERRES
   111   54  179 1    
   112   55   56 2    
   113   55   57 1    
   114   57   58 1    
   115   57   59 1    
   116   57  180 1    
   117   58  181 1    
   118   58  182 1    
   119   58  183 1    
   120   59   60 am   BACKBONE|DICT|INTERRES
   121   59  184 1    
   122   60   61 2    
   123   60   62 1    
   124   62   63 1    
   125   62   64 1    
   126   62  185 1    
   127   63  186 1    
   128   63  187 1    
   129   63  188 1    
   130   64   65 am   BACKBONE|DICT|INTERRES
   131   64  189 1    
   132   65   66 2    
   133   67   68 2    
   134   67   69 am   BACKBONE|DICT|INTERRES
   135   69   70 1    
   136   69  190 1    
   137   70   71 1    
   138   70   72 1    
   139   70  191 1    
   140   71  192 1    
   141   71  193 1    
   142   71  194 1    
   143   72   73 2    
   144   72   74 am   BACKBONE|DICT|INTERRES
   145   74   75 1    
   146   74  195 1    
   147   75   76 1    
   148   75   77 1    
   149   75  196 1    
   150   76  197 1    
   151   76  198 1    
   152   76  199 1    
   153   77   78 2    
   154   77   79 am   BACKBONE|DICT|INTERRES
   155   79   80 1    
   156   79  200 1    
   157   80   81 1    
   158   80   82 1    
   159   80  201 1    
   160   81  202 1    
   161   81  203 1    
   162   81  204 1    
   163   82   83 2    
   164   82   84 am   BACKBONE|DICT|INTERRES
   165   84   85 1    
   166   84  205 1    
   167   85   86 1    
   168   85   87 1    
   169   85  206 1    
   170   86  207 1    
   171   86  208 1    
   172   86  209 1    
   173   87   88 2    
   174   87   89 am   BACKBONE|DICT|INTERRES
   175   89   90 1    
   176   89  210 1    
   177   90   91 1    
   178   90   92 1    
   179   90  211 1    
   180   91  212 1    
   181   91  213 1    
   182   91  214 1    
   183   92   93 2    
   184   92   94 am   BACKBONE|DICT|INTERRES
   185   94   95 1    
   186   94  215 1    
   187   95   96 1    
   188   95   97 1    
   189   95  216 1    
   190   96  217 1    
   191   96  218 1    
   192   96  219 1    
   193   97   98 2    
   194   97   99 am   BACKBONE|DICT|INTERRES
   195   99  100 1    
   196   99  220 1    
   197  100  101 1    
   198  100  102 1    
   199  100  221 1    
   200  101  222 1    
   201  101  223 1    
   202  101  224 1    
   203  102  103 2    
   204  102  104 am   BACKBONE|DICT|INTERRES
   205  104  105 1    
   206  104  225 1    
   207  105  106 1    
   208  105  107 1    
   209  105  226 1    
   210  106  227 1    
   211  106  228 1    
   212  106  229 1    
   213  107  108 2    
   214  107  109 am   BACKBONE|DICT|INTERRES
   215  109  110 1    
   216  109  230 1    
   217  110  111 1    
   218  110  112 1    
   219  110  231 1    
   220  111  232 1    
   221  111  233 1    
   222  111  234 1    
   223  112  113 2    
   224  112  114 am   BACKBONE|DICT|INTERRES
   225  114  115 1    
   226  114  235 1    
   227  115  116 1    
   228  115  117 1    
   229  115  236 1    
   230  116  237 1    
   231  116  238 1    
   232  116  239 1    
   233  117  118 2    
   234  117  119 am   BACKBONE|DICT|INTERRES
   235  119  120 1    
   236  119  240 1    
   237  120  121 1    
   238  120  124 1    
   239  120  241 1    
   240  121  122 am   BACKBONE|DICT|INTERRES
   241  121  123 2    
   242  122  242 1    
   243  122  243 1    
   244  124  125 1    
   245  124  244 1    
   246  124  245 1    
   247  125  126 1    
   248  126  246 1    
   249  126  247 1    
@<TRIPOS>SUBSTRUCTURE
     1 UNK         1 GROUP             0       ****    0 ROOT    
