@<TRIPOS>MOLECULE
3R540
247   249    1
SMALL
USER_CHARGES


@<TRIPOS>ATOM
      1 CA          6.0232  -15.1686  -45.7538 C.3       0 UNK        -0.1800 
      2 C           4.9396  -14.2967  -46.3708 C.2       0 UNK         0.5000 
      3 O           5.2278  -13.5135  -47.2756 O.2       0 UNK        -0.5000 
      4 N           3.7045  -14.4088  -45.8632 N.am      1 UNK        -0.5000 
      5 CA          2.4765  -13.7069  -46.2753 C.3       1 UNK         0.1400 
      6 C6          2.0831  -13.9111  -47.7625 C.3       23 UNK        -0.0398 
      7 S7          1.8094  -15.6692  -48.1572 S.3       23 UNK        -0.2404 
      8 C8          0.6941  -15.5492  -49.5941 C.3       23 UNK        -0.0205 
      9 C9          0.0251  -16.8810  -49.9112 C.ar      23 UNK        -0.0193 
     10 C10        -1.3688  -16.9699  -49.9862 C.ar      23 UNK        -0.1150 
     11 C11        -1.9893  -18.1889  -50.2756 C.ar      23 UNK        -0.0193 
     12 C12        -1.2076  -19.3325  -50.4554 C.ar      23 UNK        -0.1150 
     13 C13         0.1862  -19.2600  -50.3847 C.ar      23 UNK        -0.0193 
     14 C14         0.7957  -18.0253  -50.1399 C.ar      23 UNK        -0.1150 
     15 C15         1.0199  -20.5231  -50.5666 C.3       23 UNK        -0.0205 
     16 S16         2.2986  -20.7687  -49.2827 S.3       23 UNK        -0.2404 
     17 C17         1.4025  -20.4709  -47.7174 C.3       23 UNK        -0.0398 
     18 CA          0.8206  -21.7509  -47.0760 C.3       11 UNK         0.1400 
     19 N           0.5964  -21.5816  -45.6391 N.am      11 UNK        -0.5000 
     20 C           0.2445  -22.5631  -44.7969 C.2       10 UNK         0.5000 
     21 O           0.1237  -23.7421  -45.1314 O.2       10 UNK        -0.5000 
     22 CA         -0.0737  -22.1470  -43.3490 C.3       10 UNK         0.1400 
     23 CB          1.2167  -21.9447  -42.5411 C.3       10 UNK        -0.1800 
     24 N          -0.8938  -20.9356  -43.2812 N.am      10 UNK        -0.5000 
     25 C          -2.1450  -20.8428  -43.7548 C.2       9 UNK         0.5000 
     26 O          -2.7571  -21.7878  -44.2521 O.2       9 UNK        -0.5000 
     27 CA         -2.8086  -19.4536  -43.7107 C.3       9 UNK         0.1400 
     28 CB         -3.3543  -19.1481  -42.3081 C.3       9 UNK        -0.1800 
     29 N          -1.9084  -18.3804  -44.1344 N.am      9 UNK        -0.5000 
     30 C          -1.3662  -18.2800  -45.3563 C.2       8 UNK         0.5000 
     31 O          -1.5928  -19.0669  -46.2720 O.2       8 UNK        -0.5000 
     32 CA         -0.3564  -17.1436  -45.5788 C.3       8 UNK         0.1400 
     33 CB         -1.0824  -15.8155  -45.8471 C.3       8 UNK        -0.1800 
     34 N           0.5765  -17.0086  -44.4567 N.am      8 UNK        -0.5000 
     35 C           1.4642  -17.9537  -44.1082 C.2       7 UNK         0.5000 
     36 O           1.6332  -18.9978  -44.7364 O.2       7 UNK        -0.5000 
     37 CA          2.2505  -17.7296  -42.8054 C.3       7 UNK         0.1400 
     38 CB          3.4933  -16.8606  -43.0456 C.3       7 UNK        -0.1800 
     39 N           1.4162  -17.1332  -41.7636 N.am      7 UNK        -0.5000 
     40 C           0.4280  -17.7872  -41.1343 C.2       6 UNK         0.5000 
     41 O           0.1565  -18.9703  -41.3374 O.2       6 UNK        -0.5000 
     42 CA         -0.4312  -16.9713  -40.1499 C.3       6 UNK         0.1400 
     43 CB          0.2010  -16.9776  -38.7504 C.3       6 UNK        -0.1800 
     44 N          -0.6286  -15.5876  -40.5837 N.am      6 UNK        -0.5000 
     45 C          -1.2660  -15.2195  -41.7047 C.2       5 UNK         0.5000 
     46 O          -1.8240  -16.0152  -42.4589 O.2       5 UNK        -0.5000 
     47 CA         -1.2286  -13.7223  -42.0700 C.3       5 UNK         0.1400 
     48 CB         -2.5106  -13.0212  -41.5984 C.3       5 UNK        -0.1800 
     49 N          -0.0630  -13.0297  -41.5114 N.am      5 UNK        -0.5000 
     50 C           1.2017  -13.2513  -41.8914 C.2       4 UNK         0.5000 
     51 O           1.5237  -14.0321  -42.7916 O.2       4 UNK        -0.5000 
     52 CA          2.2885  -12.5555  -41.0649 C.3       4 UNK         0.1400 
     53 CB          2.6889  -13.4555  -39.8778 C.3       4 UNK        -0.1800 
     54 N           3.4381  -12.2913  -41.9223 N.am      4 UNK        -0.5000 
     55 C           4.4924  -11.5292  -41.6052 C.2       3 UNK         0.5000 
     56 O           4.6212  -10.9453  -40.5285 O.2       3 UNK        -0.5000 
     57 CA          5.5835  -11.3816  -42.6808 C.3       3 UNK         0.1400 
     58 CB          6.5009  -12.6149  -42.6932 C.3       3 UNK        -0.1800 
     59 N           5.0287  -11.1856  -44.0188 N.am      3 UNK        -0.5000 
     60 C           4.3840  -10.0859  -44.4369 C.2       2 UNK         0.5000 
     61 O           4.2210   -9.0802  -43.7455 O.2       2 UNK        -0.5000 
     62 CA          3.8229  -10.1226  -45.8719 C.3       2 UNK         0.1400 
     63 CB          4.8146   -9.4856  -46.8569 C.3       2 UNK        -0.1800 
     64 N           3.5313  -11.4891  -46.3061 N.am      2 UNK        -0.5000 
     65 C           2.4852  -12.2133  -45.8931 C.2       1 UNK         0.5000 
     66 O           1.5752  -11.7560  -45.2018 O.2       1 UNK        -0.5000 
     67 C          -0.4602  -22.2191  -47.7950 C.2       11 UNK         0.5000 
     68 O          -0.4036  -23.1762  -48.5648 O.2       11 UNK        -0.5000 
     69 N          -1.5993  -21.5778  -47.4975 N.am      12 UNK        -0.5000 
     70 CA         -2.9170  -21.9305  -48.0221 C.3       12 UNK         0.1400 
     71 CB         -3.9572  -20.8981  -47.5638 C.3       12 UNK        -0.1800 
     72 C          -3.3568  -23.3516  -47.6340 C.2       12 UNK         0.5000 
     73 O          -3.8919  -24.0625  -48.4828 O.2       12 UNK        -0.5000 
     74 N          -3.0961  -23.7581  -46.3852 N.am      13 UNK        -0.5000 
     75 CA         -3.3545  -25.1127  -45.8968 C.3       13 UNK         0.1400 
     76 CB         -3.1378  -25.1631  -44.3768 C.3       13 UNK        -0.1800 
     77 C          -2.4982  -26.1762  -46.6111 C.2       13 UNK         0.5000 
     78 O          -3.0139  -27.2423  -46.9488 O.2       13 UNK        -0.5000 
     79 N          -1.2169  -25.8618  -46.8436 N.am      14 UNK        -0.5000 
     80 CA         -0.2613  -26.7351  -47.5231 C.3       14 UNK         0.1400 
     81 CB          1.1649  -26.2293  -47.2545 C.3       14 UNK        -0.1800 
     82 C          -0.5188  -26.8536  -49.0371 C.2       14 UNK         0.5000 
     83 O          -0.4896  -27.9617  -49.5736 O.2       14 UNK        -0.5000 
     84 N          -0.7502  -25.7133  -49.6994 N.am      15 UNK        -0.5000 
     85 CA         -0.8440  -25.5949  -51.1566 C.3       15 UNK         0.1400 
     86 CB         -0.2041  -24.2614  -51.5789 C.3       15 UNK        -0.1800 
     87 C          -2.2817  -25.7022  -51.7004 C.2       15 UNK         0.5000 
     88 O          -2.4789  -25.4787  -52.8956 O.2       15 UNK        -0.5000 
     89 N          -3.2615  -25.9998  -50.8337 N.am      16 UNK        -0.5000 
     90 CA         -4.6972  -26.1069  -51.1286 C.3       16 UNK         0.1400 
     91 CB         -4.9811  -27.3273  -52.0290 C.3       16 UNK        -0.1800 
     92 C          -5.2612  -24.7910  -51.7027 C.2       16 UNK         0.5000 
     93 O          -5.7927  -24.7623  -52.8147 O.2       16 UNK        -0.5000 
     94 N          -5.0626  -23.7082  -50.9390 N.am      17 UNK        -0.5000 
     95 CA         -5.3860  -22.3159  -51.2638 C.3       17 UNK         0.1400 
     96 CB         -6.9152  -22.1129  -51.3103 C.3       17 UNK        -0.1800 
     97 C          -4.6550  -21.8235  -52.5299 C.2       17 UNK         0.5000 
     98 O          -5.2416  -21.1004  -53.3337 O.2       17 UNK        -0.5000 
     99 N          -3.3943  -22.2598  -52.6864 N.am      18 UNK        -0.5000 
    100 CA        -2.5237  -22.0590  -53.8516 C.3       18 UNK         0.1400 
    101 CB        -2.1191  -20.5767  -53.9893 C.3       18 UNK        -0.1800 
    102 C         -3.1487  -22.6391  -55.1363 C.2       18 UNK         0.5000 
    103 O         -3.2780  -21.9341  -56.1365 O.2       18 UNK        -0.5000 
    104 N         -3.5787  -23.9073  -55.0593 N.am      19 UNK        -0.5000 
    105 CA        -4.3618  -24.6311  -56.0682 C.3       19 UNK         0.1400 
    106 CB        -3.4975  -24.9483  -57.3059 C.3       19 UNK        -0.1800 
    107 C         -5.6777  -23.8976  -56.4129 C.2       19 UNK         0.5000 
    108 O         -6.0040  -23.7104  -57.5863 O.2       19 UNK        -0.5000 
    109 N         -6.3806  -23.4646  -55.3576 N.am      20 UNK        -0.5000 
    110 CA        -7.6223  -22.6850  -55.3422 C.3       20 UNK         0.1400 
    111 CB        -8.7664  -23.4531  -56.0354 C.3       20 UNK        -0.1800 
    112 C         -7.5075  -21.2306  -55.8527 C.2       20 UNK         0.5000 
    113 O         -8.5316  -20.5468  -55.9118 O.2       20 UNK        -0.5000 
    114 N         -6.2977  -20.7453  -56.1738 N.am      21 UNK        -0.5000 
    115 CA        -6.0548  -19.3775  -56.6482 C.3       21 UNK         0.1400 
    116 CB        -4.6079  -19.2407  -57.1410 C.3       21 UNK        -0.1800 
    117 C         -6.3716  -18.2886  -55.6038 C.2       21 UNK         0.5000 
    118 O         -6.7638  -17.1859  -55.9890 O.2       21 UNK        -0.5000 
    119 N         -6.2308  -18.6164  -54.3130 N.am      22 UNK        -0.5000 
    120 CA        -6.6487  -17.7651  -53.1866 C.3       22 UNK         0.1400 
    121 C         -8.1838  -17.7915  -52.9108 C.2       22 UNK         0.5000 
    122 N         -8.9885  -18.5833  -53.6120 N.am      22 UNK        -0.7600 
    123 O         -8.6618  -17.0656  -52.0433 O.2       22 UNK        -0.5000 
    124 C124       -5.8498  -18.0677  -51.8912 C.3       23 UNK        -0.0398 
    125 S125       -4.0505  -17.8441  -52.0782 S.3       23 UNK        -0.2404 
    126 C126       -3.5023  -18.2708  -50.3975 C.3       23 UNK        -0.0205 
    127 H127        5.6708  -15.6867  -44.8625 H         1 UNK         0.0600 
    128 H128        6.8808  -14.5579  -45.4710 H         1 UNK         0.0600 
    129 H129        6.3577  -15.9150  -46.4741 H         1 UNK         0.0600 
    130 H130        3.5609  -15.0676  -45.1128 H         1 UNK         0.3000 
    131 H131        1.6911  -14.1563  -45.6670 H         1 UNK         0.0600 
    132 H132        1.1659  -13.3616  -47.9812 H         1 UNK         0.0800 
    133 H133        2.8443  -13.5145  -48.4356 H         1 UNK         0.0800 
    134 H134       -0.0625  -14.7877  -49.3994 H         1 UNK         0.0800 
    135 H135        1.2605  -15.2139  -50.4639 H         1 UNK         0.0800 
    136 H136       -1.9750  -16.0882  -49.8325 H         1 UNK         0.1150 
    137 H137       -1.6873  -20.2788  -50.6603 H         1 UNK         0.1150 
    138 H138        1.8736  -17.9608  -50.0905 H         1 UNK         0.1150 
    139 H139        0.3784  -21.4040  -50.5833 H         1 UNK         0.0800 
    140 H140        1.5059  -20.4834  -51.5420 H         1 UNK         0.0800 
    141 H141        0.6422  -19.6973  -47.8261 H         1 UNK         0.0800 
    142 H142        2.1466  -20.0417  -47.0464 H         1 UNK         0.0800 
    143 H143        1.5609  -22.5472  -47.1795 H         1 UNK         0.0600 
    144 H144        0.7141  -20.6416  -45.2724 H         1 UNK         0.3000 
    145 H145       -0.6391  -22.9592  -42.8875 H         1 UNK         0.0600 
    146 H146        0.9963  -21.7252  -41.4963 H         1 UNK         0.0600 
    147 H147        1.8353  -22.8427  -42.5619 H         1 UNK         0.0600 
    148 H148        1.8154  -21.1234  -42.9354 H         1 UNK         0.0600 
    149 H149       -0.4765  -20.1258  -42.8332 H         1 UNK         0.3000 
    150 H150       -3.6514  -19.4675  -44.4046 H         1 UNK         0.0600 
    151 H151       -3.8694  -18.1875  -42.2859 H         1 UNK         0.0600 
    152 H152       -4.0696  -19.9093  -41.9945 H         1 UNK         0.0600 
    153 H153       -2.5598  -19.1184  -41.5630 H         1 UNK         0.0600 
    154 H154       -1.7127  -17.6508  -43.4547 H         1 UNK         0.3000 
    155 H155        0.2244  -17.3990  -46.4666 H         1 UNK         0.0600 
    156 H156       -1.7133  -15.5156  -45.0115 H         1 UNK         0.0600 
    157 H157       -1.7245  -15.9016  -46.7247 H         1 UNK         0.0600 
    158 H158       -0.3822  -15.0066  -46.0435 H         1 UNK         0.0600 
    159 H159        0.4825  -16.1892  -43.8738 H         1 UNK         0.3000 
    160 H160        2.5905  -18.7054  -42.4517 H         1 UNK         0.0600 
    161 H161        3.2320  -15.8664  -43.4031 H         1 UNK         0.0600 
    162 H162        4.1456  -17.3194  -43.7896 H         1 UNK         0.0600 
    163 H163        4.0753  -16.7443  -42.1313 H         1 UNK         0.0600 
    164 H164        1.5502  -16.1494  -41.5800 H         1 UNK         0.3000 
    165 H165       -1.4112  -17.4484  -40.0872 H         1 UNK         0.0600 
    166 H166       -0.4353  -16.4664  -38.0277 H         1 UNK         0.0600 
    167 H167        0.3433  -17.9979  -38.3916 H         1 UNK         0.0600 
    168 H168        1.1760  -16.4886  -38.7453 H         1 UNK         0.0600 
    169 H169       -0.2143  -14.8682  -40.0110 H         1 UNK         0.3000 
    170 H170       -1.1782  -13.6504  -43.1587 H         1 UNK         0.0600 
    171 H171       -3.3951  -13.5013  -42.0193 H         1 UNK         0.0600 
    172 H172       -2.6086  -13.0467  -40.5123 H         1 UNK         0.0600 
    173 H173       -2.5282  -11.9778  -41.9137 H         1 UNK         0.0600 
    174 H174       -0.2451  -12.3781  -40.7613 H         1 UNK         0.3000 
    175 H175        1.8997  -11.6045  -40.6952 H         1 UNK         0.0600 
    176 H176        3.1232  -14.3968  -40.2177 H         1 UNK         0.0600 
    177 H177        3.4172  -12.9685  -39.2299 H         1 UNK         0.0600 
    178 H178        1.8256  -13.6967  -39.2568 H         1 UNK         0.0600 
    179 H179        3.3805  -12.7194  -42.8365 H         1 UNK         0.3000 
    180 H180        6.1880  -10.5073  -42.4300 H         1 UNK         0.0600 
    181 H181        5.9566  -13.5229  -42.9563 H         1 UNK         0.0600 
    182 H182        6.9506  -12.7754  -41.7124 H         1 UNK         0.0600 
    183 H183        7.3160  -12.4936  -43.4070 H         1 UNK         0.0600 
    184 H184        5.1248  -11.9512  -44.6673 H         1 UNK         0.3000 
    185 H185        2.8990   -9.5406  -45.8876 H         1 UNK         0.0600 
    186 H186        5.0426   -8.4576  -46.5720 H         1 UNK         0.0600 
    187 H187        5.7566  -10.0345  -46.8917 H         1 UNK         0.0600 
    188 H188        4.4044   -9.4593  -47.8666 H         1 UNK         0.0600 
    189 H189        4.2440  -11.9665  -46.8531 H         1 UNK         0.3000 
    190 H190       -1.5620  -20.7605  -46.8905 H         1 UNK         0.3000 
    191 H191       -2.8528  -21.8898  -49.1108 H         1 UNK         0.0600 
    192 H192       -3.6726  -19.8895  -47.8611 H         1 UNK         0.0600 
    193 H193       -4.9356  -21.1052  -47.9987 H         1 UNK         0.0600 
    194 H194       -4.0742  -20.9002  -46.4802 H         1 UNK         0.0600 
    195 H195       -2.7092  -23.0941  -45.7206 H         1 UNK         0.3000 
    196 H196       -4.4030  -25.3442  -46.0956 H         1 UNK         0.0600 
    197 H197       -3.3464  -26.1594  -43.9851 H         1 UNK         0.0600 
    198 H198       -3.7988  -24.4657  -43.8620 H         1 UNK         0.0600 
    199 H199       -2.1122  -24.9114  -44.1062 H         1 UNK         0.0600 
    200 H200       -0.8620  -24.9749  -46.5017 H         1 UNK         0.3000 
    201 H201       -0.3481  -27.7349  -47.0922 H         1 UNK         0.0600 
    202 H202        1.3850  -26.2229  -46.1868 H         1 UNK         0.0600 
    203 H203        1.3114  -25.2158  -47.6299 H         1 UNK         0.0600 
    204 H204        1.9050  -26.8694  -47.7362 H         1 UNK         0.0600 
    205 H205       -0.7304  -24.8345  -49.1829 H         1 UNK         0.3000 
    206 H206       -0.2681  -26.3982  -51.6205 H         1 UNK         0.0600 
    207 H207        0.7934  -24.1477  -51.1536 H         1 UNK         0.0600 
    208 H208       -0.0988  -24.2029  -52.6625 H         1 UNK         0.0600 
    209 H209       -0.8036  -23.4099  -51.2562 H         1 UNK         0.0600 
    210 H210       -3.0041  -26.1042  -49.8616 H         1 UNK         0.3000 
    211 H211       -5.2008  -26.2734  -50.1752 H         1 UNK         0.0600 
    212 H212       -4.5304  -27.2214  -53.0163 H         1 UNK         0.0600 
    213 H213       -6.0536  -27.4614  -52.1740 H         1 UNK         0.0600 
    214 H214       -4.5963  -28.2437  -51.5819 H         1 UNK         0.0600 
    215 H215       -4.6138  -23.8580  -50.0342 H         1 UNK         0.3000 
    216 H216       -5.0023  -21.7059  -50.4461 H         1 UNK         0.0600 
    217 H217       -7.1816  -21.0807  -51.5352 H         1 UNK         0.0600 
    218 H218       -7.3676  -22.3586  -50.3497 H         1 UNK         0.0600 
    219 H219       -7.3862  -22.7410  -52.0644 H         1 UNK         0.0600 
    220 H220       -3.0399  -22.8944  -51.9873 H         1 UNK         0.3000 
    221 H221       -1.6139  -22.6311  -53.6714 H         1 UNK         0.0600 
    222 H222       -2.9818  -19.9317  -54.1551 H         1 UNK         0.0600 
    223 H223       -1.6064  -20.2230  -53.0969 H         1 UNK         0.0600 
    224 H224       -1.4380  -20.4330  -54.8286 H         1 UNK         0.0600 
    225 H225       -3.3946  -24.4226  -54.2015 H         1 UNK         0.3000 
    226 H226       -4.6484  -25.5795  -55.6112 H         1 UNK         0.0600 
    227 H227       -2.5901  -25.4827  -57.0249 H         1 UNK         0.0600 
    228 H228       -4.0414  -25.5797  -58.0093 H         1 UNK         0.0600 
    229 H229       -3.2028  -24.0439  -57.8389 H         1 UNK         0.0600 
    230 H230       -6.0259  -23.7138  -54.4375 H         1 UNK         0.3000 
    231 H231       -7.8913  -22.5963  -54.2905 H         1 UNK         0.0600 
    232 H232       -8.6159  -23.5221  -57.1129 H         1 UNK         0.0600 
    233 H233       -9.7248  -22.9584  -55.8737 H         1 UNK         0.0600 
    234 H234       -8.8569  -24.4657  -55.6421 H         1 UNK         0.0600 
    235 H235       -5.4844  -21.3370  -56.0568 H         1 UNK         0.3000 
    236 H236       -6.7141  -19.2096  -57.5023 H         1 UNK         0.0600 
    237 H237       -4.3728  -19.9909  -57.8961 H         1 UNK         0.0600 
    238 H238       -4.4409  -18.2614  -57.5912 H         1 UNK         0.0600 
    239 H239       -3.8950  -19.3483  -56.3236 H         1 UNK         0.0600 
    240 H240       -5.8846  -19.5431  -54.0701 H         1 UNK         0.3000 
    241 H241       -6.4254  -16.7314  -53.4567 H         1 UNK         0.0600 
    242 H242       -8.6359  -19.1708  -54.3580 H         1 UNK         0.3800 
    243 H243       -9.9768  -18.5741  -53.4162 H         1 UNK         0.3800 
    244 H244       -6.1768  -17.4129  -51.0814 H         1 UNK         0.0800 
    245 H245       -6.0405  -19.0861  -51.5559 H         1 UNK         0.0800 
    246 H246       -3.9709  -17.6008  -49.6751 H         1 UNK         0.0800 
    247 H247       -3.8448  -19.2779  -50.1585 H         1 UNK         0.0800 
@<TRIPOS>BOND
     1    1    2 1    
     2    1  127 1    
     3    1  128 1    
     4    1  129 1    
     5    2    3 2    
     6    2    4 am   BACKBONE|DICT|INTERRES
     7    4    5 1    
     8    4  130 1    
     9    5    6 1    
    10    5   65 1    
    11    5  131 1    
    12    6    7 1    
    13    6  132 1    
    14    6  133 1    
    15    7    8 1    
    16    8    9 1    
    17    8  134 1    
    18    8  135 1    
    19    9   10 ar   
    20    9   14 ar   
    21   10   11 ar   
    22   10  136 1    
    23   11   12 ar   
    24   11  126 1    
    25   12   13 ar   
    26   12  137 1    
    27   13   14 ar   
    28   13   15 1    
    29   14  138 1    
    30   15   16 1    
    31   15  139 1    
    32   15  140 1    
    33   16   17 1    
    34   17   18 1    
    35   17  141 1    
    36   17  142 1    
    37   18   19 1    
    38   18   67 1    
    39   18  143 1    
    40   19   20 am   BACKBONE|DICT|INTERRES
    41   19  144 1    
    42   20   21 2    
    43   20   22 1    
    44   22   23 1    
    45   22   24 1    
    46   22  145 1    
    47   23  146 1    
    48   23  147 1    
    49   23  148 1    
    50   24   25 am   BACKBONE|DICT|INTERRES
    51   24  149 1    
    52   25   26 2    
    53   25   27 1    
    54   27   28 1    
    55   27   29 1    
    56   27  150 1    
    57   28  151 1    
    58   28  152 1    
    59   28  153 1    
    60   29   30 am   BACKBONE|DICT|INTERRES
    61   29  154 1    
    62   30   31 2    
    63   30   32 1    
    64   32   33 1    
    65   32   34 1    
    66   32  155 1    
    67   33  156 1    
    68   33  157 1    
    69   33  158 1    
    70   34   35 am   BACKBONE|DICT|INTERRES
    71   34  159 1    
    72   35   36 2    
    73   35   37 1    
    74   37   38 1    
    75   37   39 1    
    76   37  160 1    
    77   38  161 1    
    78   38  162 1    
    79   38  163 1    
    80   39   40 am   BACKBONE|DICT|INTERRES
    81   39  164 1    
    82   40   41 2    
    83   40   42 1    
    84   42   43 1    
    85   42   44 1    
    86   42  165 1    
    87   43  166 1    
    88   43  167 1    
    89   43  168 1    
    90   44   45 am   BACKBONE|DICT|INTERRES
    91   44  169 1    
    92   45   46 2    
    93   45   47 1    
    94   47   48 1    
    95   47   49 1    
    96   47  170 1    
    97   48  171 1    
    98   48  172 1    
    99   48  173 1    
   100   49   50 am   BACKBONE|DICT|INTERRES
   101   49  174 1    
   102   50   51 2    
   103   50   52 1    
   104   52   53 1    
   105   52   54 1    
   106   52  175 1    
   107   53  176 1    
   108   53  177 1    
   109   53  178 1    
   110   54   55 am   BACKBONE|DICT|INTERRES
   111   54  179 1    
   112   55   56 2    
   113   55   57 1    
   114   57   58 1    
   115   57   59 1    
   116   57  180 1    
   117   58  181 1    
   118   58  182 1    
   119   58  183 1    
   120   59   60 am   BACKBONE|DICT|INTERRES
   121   59  184 1    
   122   60   61 2    
   123   60   62 1    
   124   62   63 1    
   125   62   64 1    
   126   62  185 1    
   127   63  186 1    
   128   63  187 1    
   129   63  188 1    
   130   64   65 am   BACKBONE|DICT|INTERRES
   131   64  189 1    
   132   65   66 2    
   133   67   68 2    
   134   67   69 am   BACKBONE|DICT|INTERRES
   135   69   70 1    
   136   69  190 1    
   137   70   71 1    
   138   70   72 1    
   139   70  191 1    
   140   71  192 1    
   141   71  193 1    
   142   71  194 1    
   143   72   73 2    
   144   72   74 am   BACKBONE|DICT|INTERRES
   145   74   75 1    
   146   74  195 1    
   147   75   76 1    
   148   75   77 1    
   149   75  196 1    
   150   76  197 1    
   151   76  198 1    
   152   76  199 1    
   153   77   78 2    
   154   77   79 am   BACKBONE|DICT|INTERRES
   155   79   80 1    
   156   79  200 1    
   157   80   81 1    
   158   80   82 1    
   159   80  201 1    
   160   81  202 1    
   161   81  203 1    
   162   81  204 1    
   163   82   83 2    
   164   82   84 am   BACKBONE|DICT|INTERRES
   165   84   85 1    
   166   84  205 1    
   167   85   86 1    
   168   85   87 1    
   169   85  206 1    
   170   86  207 1    
   171   86  208 1    
   172   86  209 1    
   173   87   88 2    
   174   87   89 am   BACKBONE|DICT|INTERRES
   175   89   90 1    
   176   89  210 1    
   177   90   91 1    
   178   90   92 1    
   179   90  211 1    
   180   91  212 1    
   181   91  213 1    
   182   91  214 1    
   183   92   93 2    
   184   92   94 am   BACKBONE|DICT|INTERRES
   185   94   95 1    
   186   94  215 1    
   187   95   96 1    
   188   95   97 1    
   189   95  216 1    
   190   96  217 1    
   191   96  218 1    
   192   96  219 1    
   193   97   98 2    
   194   97   99 am   BACKBONE|DICT|INTERRES
   195   99  100 1    
   196   99  220 1    
   197  100  101 1    
   198  100  102 1    
   199  100  221 1    
   200  101  222 1    
   201  101  223 1    
   202  101  224 1    
   203  102  103 2    
   204  102  104 am   BACKBONE|DICT|INTERRES
   205  104  105 1    
   206  104  225 1    
   207  105  106 1    
   208  105  107 1    
   209  105  226 1    
   210  106  227 1    
   211  106  228 1    
   212  106  229 1    
   213  107  108 2    
   214  107  109 am   BACKBONE|DICT|INTERRES
   215  109  110 1    
   216  109  230 1    
   217  110  111 1    
   218  110  112 1    
   219  110  231 1    
   220  111  232 1    
   221  111  233 1    
   222  111  234 1    
   223  112  113 2    
   224  112  114 am   BACKBONE|DICT|INTERRES
   225  114  115 1    
   226  114  235 1    
   227  115  116 1    
   228  115  117 1    
   229  115  236 1    
   230  116  237 1    
   231  116  238 1    
   232  116  239 1    
   233  117  118 2    
   234  117  119 am   BACKBONE|DICT|INTERRES
   235  119  120 1    
   236  119  240 1    
   237  120  121 1    
   238  120  124 1    
   239  120  241 1    
   240  121  122 am   BACKBONE|DICT|INTERRES
   241  121  123 2    
   242  122  242 1    
   243  122  243 1    
   244  124  125 1    
   245  124  244 1    
   246  124  245 1    
   247  125  126 1    
   248  126  246 1    
   249  126  247 1    
@<TRIPOS>SUBSTRUCTURE
     1 UNK         1 GROUP             0       ****    0 ROOT    
