@<TRIPOS>MOLECULE
3R540
247   249    1
SMALL
USER_CHARGES


@<TRIPOS>ATOM
      1 CA         -3.7936  -10.6132  -46.4974 C.3       0 UNK        -0.1800 
      2 C          -2.6223  -10.7190  -47.4640 C.2       0 UNK         0.5000 
      3 O          -2.3187   -9.7551  -48.1681 O.2       0 UNK        -0.5000 
      4 N          -1.9716  -11.8869  -47.5063 N.am      1 UNK        -0.5000 
      5 CA         -0.7725  -12.1536  -48.3051 C.3       1 UNK         0.1400 
      6 C6         -0.5601  -13.6737  -48.5277 C.3       23 UNK        -0.0398 
      7 S7         -0.4113  -14.6452  -46.9864 S.3       23 UNK        -0.2404 
      8 C8         -1.8609  -15.7533  -47.0890 C.3       23 UNK        -0.0205 
      9 C9         -1.7923  -16.8162  -48.1853 C.ar      23 UNK        -0.0193 
     10 C10        -2.9843  -17.3512  -48.6816 C.ar      23 UNK        -0.1150 
     11 C11        -2.9721  -18.3511  -49.6584 C.ar      23 UNK        -0.0193 
     12 C12        -1.7482  -18.8120  -50.1531 C.ar      23 UNK        -0.1150 
     13 C13        -0.5469  -18.2856  -49.6707 C.ar      23 UNK        -0.0193 
     14 C14        -0.5763  -17.2979  -48.6833 C.ar      23 UNK        -0.1150 
     15 C15         0.7895  -18.7636  -50.2204 C.3       23 UNK        -0.0205 
     16 S16         1.2197  -20.4542  -49.6989 S.3       23 UNK        -0.2404 
     17 C17         1.1825  -20.3524  -47.8722 C.3       23 UNK        -0.0398 
     18 CA          0.4691  -21.5713  -47.2437 C.3       11 UNK         0.1400 
     19 N           0.7456  -21.7116  -45.8152 N.am      11 UNK        -0.5000 
     20 C           0.4745  -22.8152  -45.1044 C.2       10 UNK         0.5000 
     21 O          -0.0177  -23.8361  -45.5867 O.2       10 UNK        -0.5000 
     22 CA          0.7609  -22.7548  -43.5946 C.3       10 UNK         0.1400 
     23 CB          2.2640  -22.9047  -43.3164 C.3       10 UNK        -0.1800 
     24 N           0.2608  -21.5266  -42.9765 N.am      10 UNK        -0.5000 
     25 C          -1.0337  -21.1789  -42.9284 C.2       9 UNK         0.5000 
     26 O          -1.9467  -21.8710  -43.3795 O.2       9 UNK        -0.5000 
     27 CA         -1.3636  -19.8131  -42.3023 C.3       9 UNK         0.1400 
     28 CB         -1.3244  -19.8932  -40.7691 C.3       9 UNK        -0.1800 
     29 N          -0.4756  -18.7459  -42.7633 N.am      9 UNK        -0.5000 
     30 C          -0.3785  -18.3356  -44.0369 C.2       8 UNK         0.5000 
     31 O          -1.0334  -18.8072  -44.9644 O.2       8 UNK        -0.5000 
     32 CA          0.6663  -17.2494  -44.3324 C.3       8 UNK         0.1400 
     33 CB          0.2186  -15.8933  -43.7633 C.3       8 UNK        -0.1800 
     34 N           1.9776  -17.5899  -43.7901 N.am      8 UNK        -0.5000 
     35 C           2.6928  -18.6831  -44.0841 C.2       7 UNK         0.5000 
     36 O           2.3571  -19.5264  -44.9146 O.2       7 UNK        -0.5000 
     37 CA          3.9792  -18.8910  -43.2684 C.3       7 UNK         0.1400 
     38 CB          5.1348  -18.0544  -43.8387 C.3       7 UNK        -0.1800 
     39 N           3.7911  -18.5657  -41.8541 N.am      7 UNK        -0.5000 
     40 C           3.0296  -19.2695  -41.0050 C.2       6 UNK         0.5000 
     41 O           2.4099  -20.2856  -41.3198 O.2       6 UNK        -0.5000 
     42 CA          2.9199  -18.7238  -39.5697 C.3       6 UNK         0.1400 
     43 CB          4.1674  -19.0886  -38.7508 C.3       6 UNK        -0.1800 
     44 N           2.7192  -17.2741  -39.5333 N.am      6 UNK        -0.5000 
     45 C           1.6004  -16.6634  -39.9464 C.2       5 UNK         0.5000 
     46 O           0.6191  -17.2616  -40.3882 O.2       5 UNK        -0.5000 
     47 CA          1.5874  -15.1225  -39.8933 C.3       5 UNK         0.1400 
     48 CB          1.2336  -14.6372  -38.4793 C.3       5 UNK        -0.1800 
     49 N           2.8264  -14.4680  -40.3352 N.am      5 UNK        -0.5000 
     50 C           3.4413  -14.6853  -41.5053 C.2       4 UNK         0.5000 
     51 O           3.1311  -15.5876  -42.2826 O.2       4 UNK        -0.5000 
     52 CA          4.6171  -13.7606  -41.8686 C.3       4 UNK         0.1400 
     53 CB          5.9256  -14.3084  -41.2789 C.3       4 UNK        -0.1800 
     54 N           4.7616  -13.6538  -43.3231 N.am      4 UNK        -0.5000 
     55 C           3.8785  -13.0533  -44.1317 C.2       3 UNK         0.5000 
     56 O           2.9281  -12.3753  -43.7306 O.2       3 UNK        -0.5000 
     57 CA          4.0831  -13.2730  -45.6376 C.3       3 UNK         0.1400 
     58 CB          3.5863  -14.6672  -46.0646 C.3       3 UNK        -0.1800 
     59 N           3.3533  -12.2512  -46.3809 N.am      3 UNK        -0.5000 
     60 C           3.7102  -11.7424  -47.5631 C.2       2 UNK         0.5000 
     61 O           4.7036  -12.1140  -48.1914 O.2       2 UNK        -0.5000 
     62 CA          2.7800  -10.6591  -48.1478 C.3       2 UNK         0.1400 
     63 CB          3.3896   -9.9504  -49.3712 C.3       2 UNK        -0.1800 
     64 N           1.4887  -11.2299  -48.5331 N.am      2 UNK        -0.5000 
     65 C           0.4760  -11.4766  -47.6930 C.2       1 UNK         0.5000 
     66 O           0.5163  -11.2106  -46.4879 O.2       1 UNK        -0.5000 
     67 C          -1.0439  -21.5995  -47.5370 C.2       11 UNK         0.5000 
     68 O          -1.4514  -22.3202  -48.4436 O.2       11 UNK        -0.5000 
     69 N          -1.8575  -20.8901  -46.7412 N.am      12 UNK        -0.5000 
     70 CA         -3.3175  -20.8822  -46.8665 C.3       12 UNK         0.1400 
     71 CB         -3.9159  -19.8381  -45.9128 C.3       12 UNK        -0.1800 
     72 C          -3.9647  -22.2621  -46.6408 C.2       12 UNK         0.5000 
     73 O          -4.9447  -22.5859  -47.3125 O.2       12 UNK        -0.5000 
     74 N          -3.4008  -23.0541  -45.7183 N.am      13 UNK        -0.5000 
     75 CA         -3.8082  -24.4342  -45.4612 C.3       13 UNK         0.1400 
     76 CB         -3.2094  -24.9062  -44.1275 C.3       13 UNK        -0.1800 
     77 C          -3.4178  -25.3884  -46.6056 C.2       13 UNK         0.5000 
     78 O          -4.2193  -26.2473  -46.9746 O.2       13 UNK        -0.5000 
     79 N          -2.1990  -25.2288  -47.1403 N.am      14 UNK        -0.5000 
     80 CA         -1.6641  -26.0358  -48.2373 C.3       14 UNK         0.1400 
     81 CB         -0.1429  -25.8342  -48.3239 C.3       14 UNK        -0.1800 
     82 C          -2.3372  -25.7201  -49.5850 C.2       14 UNK         0.5000 
     83 O          -2.8091  -26.6304  -50.2674 O.2       14 UNK        -0.5000 
     84 N          -2.3878  -24.4314  -49.9354 N.am      15 UNK        -0.5000 
     85 CA         -2.9624  -23.8897  -51.1638 C.3       15 UNK         0.1400 
     86 CB         -2.1385  -22.6536  -51.5639 C.3       15 UNK        -0.1800 
     87 C          -4.4610  -23.5889  -50.9616 C.2       15 UNK         0.5000 
     88 O          -4.9079  -22.4528  -51.1316 O.2       15 UNK        -0.5000 
     89 N          -5.2048  -24.6260  -50.5580 N.am      16 UNK        -0.5000 
     90 CA         -6.6349  -24.5876  -50.2626 C.3       16 UNK         0.1400 
     91 CB         -7.0381  -25.9315  -49.6361 C.3       16 UNK        -0.1800 
     92 C          -7.4990  -24.2897  -51.5033 C.2       16 UNK         0.5000 
     93 O          -7.0678  -24.5239  -52.6350 O.2       16 UNK        -0.5000 
     94 N          -8.7173  -23.7853  -51.2557 N.am      17 UNK        -0.5000 
     95 CA         -9.7569  -23.4522  -52.2429 C.3       17 UNK         0.1400 
     96 CB        -10.2865  -24.7333  -52.9213 C.3       17 UNK        -0.1800 
     97 C          -9.3321  -22.3742  -53.2663 C.2       17 UNK         0.5000 
     98 O          -9.8800  -22.3237  -54.3686 O.2       17 UNK        -0.5000 
     99 N          -8.3569  -21.5385  -52.8777 N.am      18 UNK        -0.5000 
    100 CA        -7.7067  -20.4889  -53.6692 C.3       18 UNK         0.1400 
    101 CB        -8.7021  -19.3645  -54.0232 C.3       18 UNK        -0.1800 
    102 C         -6.9345  -21.0167  -54.9015 C.2       18 UNK         0.5000 
    103 O         -6.6975  -20.2577  -55.8428 O.2       18 UNK        -0.5000 
    104 N         -6.5391  -22.2957  -54.8740 N.am      19 UNK        -0.5000 
    105 CA        -5.7213  -22.9393  -55.8999 C.3       19 UNK         0.1400 
    106 CB        -6.0779  -24.4355  -55.9271 C.3       19 UNK        -0.1800 
    107 C         -4.2189  -22.7425  -55.6210 C.2       19 UNK         0.5000 
    108 O         -3.8443  -22.2359  -54.5618 O.2       19 UNK        -0.5000 
    109 N         -3.3834  -23.1917  -56.5686 N.am      20 UNK        -0.5000 
    110 CA        -1.9220  -23.2916  -56.4796 C.3       20 UNK         0.1400 
    111 CB        -1.5383  -24.4440  -55.5214 C.3       20 UNK        -0.1800 
    112 C         -1.2444  -21.9432  -56.1460 C.2       20 UNK         0.5000 
    113 O         -1.5022  -20.9516  -56.8326 O.2       20 UNK        -0.5000 
    114 N         -0.4063  -21.9216  -55.0989 N.am      21 UNK        -0.5000 
    115 CA         0.3617  -20.7659  -54.6222 C.3       21 UNK         0.1400 
    116 CB         1.2895  -21.2253  -53.4867 C.3       21 UNK        -0.1800 
    117 C         -0.4910  -19.5646  -54.1649 C.2       21 UNK         0.5000 
    118 O          0.0344  -18.4544  -54.0774 O.2       21 UNK        -0.5000 
    119 N         -1.7819  -19.7974  -53.9004 N.am      22 UNK        -0.5000 
    120 CA        -2.7827  -18.7566  -53.6372 C.3       22 UNK         0.1400 
    121 C         -3.1951  -17.9413  -54.9022 C.2       22 UNK         0.5000 
    122 N         -2.8880  -18.3869  -56.1166 N.am      22 UNK        -0.7600 
    123 O         -3.7912  -16.8750  -54.7823 O.2       22 UNK        -0.5000 
    124 C124       -4.0145  -19.3686  -52.9259 C.3       23 UNK        -0.0398 
    125 S125       -4.8175  -18.2425  -51.7361 S.3       23 UNK        -0.2404 
    126 C126       -4.2847  -18.9487  -50.1442 C.3       23 UNK        -0.0205 
    127 H127       -3.6103   -9.8206  -45.7718 H         1 UNK         0.0600 
    128 H128       -3.9540  -11.5433  -45.9515 H         1 UNK         0.0600 
    129 H129       -4.7084  -10.3756  -47.0402 H         1 UNK         0.0600 
    130 H130       -2.2330  -12.6258  -46.8700 H         1 UNK         0.3000 
    131 H131       -0.9286  -11.7041  -49.2884 H         1 UNK         0.0600 
    132 H132       -1.3871  -14.0669  -49.1202 H         1 UNK         0.0800 
    133 H133        0.3326  -13.8535  -49.1289 H         1 UNK         0.0800 
    134 H134       -2.7557  -15.1422  -47.2164 H         1 UNK         0.0800 
    135 H135       -1.9729  -16.2674  -46.1342 H         1 UNK         0.0800 
    136 H136       -3.9291  -16.9975  -48.2933 H         1 UNK         0.1150 
    137 H137       -1.7260  -19.5822  -50.9097 H         1 UNK         0.1150 
    138 H138        0.3573  -16.9102  -48.3030 H         1 UNK         0.1150 
    139 H139        0.7565  -18.7309  -51.3100 H         1 UNK         0.0800 
    140 H140        1.5934  -18.0889  -49.9223 H         1 UNK         0.0800 
    141 H141        0.7288  -19.4230  -47.5284 H         1 UNK         0.0800 
    142 H142        2.2192  -20.3183  -47.5352 H         1 UNK         0.0800 
    143 H143        0.8933  -22.4607  -47.7156 H         1 UNK         0.0600 
    144 H144        1.1735  -20.9117  -45.3542 H         1 UNK         0.3000 
    145 H145        0.2448  -23.5957  -43.1267 H         1 UNK         0.0600 
    146 H146        2.4621  -22.9590  -42.2458 H         1 UNK         0.0600 
    147 H147        2.6559  -23.8177  -43.7663 H         1 UNK         0.0600 
    148 H148        2.8343  -22.0674  -43.7195 H         1 UNK         0.0600 
    149 H149        0.9525  -20.9168  -42.5514 H         1 UNK         0.3000 
    150 H150       -2.3800  -19.5498  -42.6021 H         1 UNK         0.0600 
    151 H151       -1.9788  -20.6844  -40.4012 H         1 UNK         0.0600 
    152 H152       -1.6588  -18.9588  -40.3181 H         1 UNK         0.0600 
    153 H153       -0.3182  -20.0993  -40.4020 H         1 UNK         0.0600 
    154 H154        0.0891  -18.2895  -42.0539 H         1 UNK         0.3000 
    155 H155        0.7632  -17.1584  -45.4161 H         1 UNK         0.0600 
    156 H156        0.1738  -15.9060  -42.6754 H         1 UNK         0.0600 
    157 H157       -0.7734  -15.6212  -44.1231 H         1 UNK         0.0600 
    158 H158        0.9022  -15.0964  -44.0564 H         1 UNK         0.0600 
    159 H159        2.3698  -16.9275  -43.1215 H         1 UNK         0.3000 
    160 H160        4.2537  -19.9453  -43.3420 H         1 UNK         0.0600 
    161 H161        6.0688  -18.2685  -43.3191 H         1 UNK         0.0600 
    162 H162        4.9421  -16.9850  -43.7519 H         1 UNK         0.0600 
    163 H163        5.2921  -18.2752  -44.8952 H         1 UNK         0.0600 
    164 H164        4.1978  -17.7000  -41.5320 H         1 UNK         0.3000 
    165 H165        2.0558  -19.1991  -39.1000 H         1 UNK         0.0600 
    166 H166        4.0602  -18.7787  -37.7111 H         1 UNK         0.0600 
    167 H167        4.3327  -20.1668  -38.7521 H         1 UNK         0.0600 
    168 H168        5.0664  -18.6179  -39.1505 H         1 UNK         0.0600 
    169 H169        3.4837  -16.7084  -39.1955 H         1 UNK         0.3000 
    170 H170        0.7968  -14.7877  -40.5674 H         1 UNK         0.0600 
    171 H171        0.3064  -15.0934  -38.1294 H         1 UNK         0.0600 
    172 H172        2.0146  -14.8877  -37.7603 H         1 UNK         0.0600 
    173 H173        1.0897  -13.5568  -38.4567 H         1 UNK         0.0600 
    174 H174        3.1668  -13.7238  -39.7437 H         1 UNK         0.3000 
    175 H175        4.4274  -12.7658  -41.4604 H         1 UNK         0.0600 
    176 H176        6.1531  -15.3053  -41.6595 H         1 UNK         0.0600 
    177 H177        6.7678  -13.6583  -41.5166 H         1 UNK         0.0600 
    178 H178        5.8675  -14.3776  -40.1919 H         1 UNK         0.0600 
    179 H179        5.4957  -14.2099  -43.7355 H         1 UNK         0.3000 
    180 H180        5.1515  -13.1867  -45.8471 H         1 UNK         0.0600 
    181 H181        2.5192  -14.7863  -45.8759 H         1 UNK         0.0600 
    182 H182        4.1038  -15.4571  -45.5199 H         1 UNK         0.0600 
    183 H183        3.7574  -14.8401  -47.1271 H         1 UNK         0.0600 
    184 H184        2.5218  -11.8965  -45.9178 H         1 UNK         0.3000 
    185 H185        2.6260   -9.9042  -47.3736 H         1 UNK         0.0600 
    186 H186        4.3516   -9.5004  -49.1225 H         1 UNK         0.0600 
    187 H187        3.5532  -10.6403  -50.2001 H         1 UNK         0.0600 
    188 H188        2.7405   -9.1495  -49.7257 H         1 UNK         0.0600 
    189 H189        1.3988  -11.4978  -49.5026 H         1 UNK         0.3000 
    190 H190       -1.4617  -20.2861  -46.0242 H         1 UNK         0.3000 
    191 H191       -3.5535  -20.5820  -47.8877 H         1 UNK         0.0600 
    192 H192       -3.6760  -20.0620  -44.8728 H         1 UNK         0.0600 
    193 H193       -5.0022  -19.8028  -46.0020 H         1 UNK         0.0600 
    194 H194       -3.5392  -18.8399  -46.1359 H         1 UNK         0.0600 
    195 H195       -2.6373  -22.6889  -45.1589 H         1 UNK         0.3000 
    196 H196       -4.8960  -24.4558  -45.3669 H         1 UNK         0.0600 
    197 H197       -3.5084  -25.9314  -43.9056 H         1 UNK         0.0600 
    198 H198       -3.5493  -24.2817  -43.3011 H         1 UNK         0.0600 
    199 H199       -2.1195  -24.8765  -44.1406 H         1 UNK         0.0600 
    200 H200       -1.5833  -24.5215  -46.7527 H         1 UNK         0.3000 
    201 H201       -1.8505  -27.0875  -48.0097 H         1 UNK         0.0600 
    202 H202        0.3469  -26.1376  -47.3984 H         1 UNK         0.0600 
    203 H203        0.1167  -24.7915  -48.5107 H         1 UNK         0.0600 
    204 H204        0.2858  -26.4303  -49.1304 H         1 UNK         0.0600 
    205 H205       -2.0204  -23.7314  -49.2897 H         1 UNK         0.3000 
    206 H206       -2.8743  -24.6254  -51.9658 H         1 UNK         0.0600 
    207 H207       -2.4114  -22.3029  -52.5542 H         1 UNK         0.0600 
    208 H208       -2.2902  -21.8279  -50.8698 H         1 UNK         0.0600 
    209 H209       -1.0725  -22.8787  -51.5851 H         1 UNK         0.0600 
    210 H210       -4.7434  -25.5199  -50.4497 H         1 UNK         0.3000 
    211 H211       -6.7988  -23.7952  -49.5292 H         1 UNK         0.0600 
    212 H212       -6.8710  -26.7610  -50.3245 H         1 UNK         0.0600 
    213 H213       -8.0938  -25.9393  -49.3624 H         1 UNK         0.0600 
    214 H214       -6.4680  -26.1292  -48.7280 H         1 UNK         0.0600 
    215 H215       -8.9764  -23.6215  -50.2924 H         1 UNK         0.3000 
    216 H216      -10.5821  -23.0163  -51.6781 H         1 UNK         0.0600 
    217 H217      -11.1613  -24.5194  -53.5364 H         1 UNK         0.0600 
    218 H218      -10.5867  -25.4761  -52.1823 H         1 UNK         0.0600 
    219 H219       -9.5362  -25.1882  -53.5688 H         1 UNK         0.0600 
    220 H220       -7.9668  -21.6856  -51.9574 H         1 UNK         0.3000 
    221 H221       -6.9569  -20.0564  -53.0078 H         1 UNK         0.0600 
    222 H222       -9.4483  -19.6953  -54.7459 H         1 UNK         0.0600 
    223 H223       -9.2264  -19.0079  -53.1367 H         1 UNK         0.0600 
    224 H224       -8.1850  -18.5080  -54.4574 H         1 UNK         0.0600 
    225 H225       -6.7303  -22.8502  -54.0478 H         1 UNK         0.3000 
    226 H226       -5.9511  -22.5080  -56.8764 H         1 UNK         0.0600 
    227 H227       -5.5786  -24.9486  -56.7495 H         1 UNK         0.0600 
    228 H228       -5.7838  -24.9350  -55.0031 H         1 UNK         0.0600 
    229 H229       -7.1502  -24.5833  -56.0588 H         1 UNK         0.0600 
    230 H230       -3.7842  -23.5490  -57.4242 H         1 UNK         0.3000 
    231 H231       -1.5712  -23.5626  -57.4763 H         1 UNK         0.0600 
    232 H232       -2.0115  -25.3766  -55.8291 H         1 UNK         0.0600 
    233 H233       -1.8478  -24.2452  -54.4944 H         1 UNK         0.0600 
    234 H234       -0.4623  -24.6221  -55.5220 H         1 UNK         0.0600 
    235 H235       -0.2709  -22.7817  -54.5883 H         1 UNK         0.3000 
    236 H236        0.9814  -20.4202  -55.4519 H         1 UNK         0.0600 
    237 H237        1.9610  -22.0174  -53.8184 H         1 UNK         0.0600 
    238 H238        1.9115  -20.4029  -53.1309 H         1 UNK         0.0600 
    239 H239        0.7239  -21.5981  -52.6325 H         1 UNK         0.0600 
    240 H240       -2.1439  -20.7322  -54.0403 H         1 UNK         0.3000 
    241 H241       -2.3171  -18.0429  -52.9548 H         1 UNK         0.0600 
    242 H242       -2.3965  -19.2649  -56.2494 H         1 UNK         0.3800 
    243 H243       -3.1575  -17.8445  -56.9216 H         1 UNK         0.3800 
    244 H244       -4.7505  -19.6948  -53.6584 H         1 UNK         0.0800 
    245 H245       -3.7366  -20.2784  -52.3951 H         1 UNK         0.0800 
    246 H246       -5.0698  -18.7622  -49.4100 H         1 UNK         0.0800 
    247 H247       -4.2003  -20.0337  -50.2098 H         1 UNK         0.0800 
@<TRIPOS>BOND
     1    1    2 1    
     2    1  127 1    
     3    1  128 1    
     4    1  129 1    
     5    2    3 2    
     6    2    4 am   BACKBONE|DICT|INTERRES
     7    4    5 1    
     8    4  130 1    
     9    5    6 1    
    10    5   65 1    
    11    5  131 1    
    12    6    7 1    
    13    6  132 1    
    14    6  133 1    
    15    7    8 1    
    16    8    9 1    
    17    8  134 1    
    18    8  135 1    
    19    9   10 ar   
    20    9   14 ar   
    21   10   11 ar   
    22   10  136 1    
    23   11   12 ar   
    24   11  126 1    
    25   12   13 ar   
    26   12  137 1    
    27   13   14 ar   
    28   13   15 1    
    29   14  138 1    
    30   15   16 1    
    31   15  139 1    
    32   15  140 1    
    33   16   17 1    
    34   17   18 1    
    35   17  141 1    
    36   17  142 1    
    37   18   19 1    
    38   18   67 1    
    39   18  143 1    
    40   19   20 am   BACKBONE|DICT|INTERRES
    41   19  144 1    
    42   20   21 2    
    43   20   22 1    
    44   22   23 1    
    45   22   24 1    
    46   22  145 1    
    47   23  146 1    
    48   23  147 1    
    49   23  148 1    
    50   24   25 am   BACKBONE|DICT|INTERRES
    51   24  149 1    
    52   25   26 2    
    53   25   27 1    
    54   27   28 1    
    55   27   29 1    
    56   27  150 1    
    57   28  151 1    
    58   28  152 1    
    59   28  153 1    
    60   29   30 am   BACKBONE|DICT|INTERRES
    61   29  154 1    
    62   30   31 2    
    63   30   32 1    
    64   32   33 1    
    65   32   34 1    
    66   32  155 1    
    67   33  156 1    
    68   33  157 1    
    69   33  158 1    
    70   34   35 am   BACKBONE|DICT|INTERRES
    71   34  159 1    
    72   35   36 2    
    73   35   37 1    
    74   37   38 1    
    75   37   39 1    
    76   37  160 1    
    77   38  161 1    
    78   38  162 1    
    79   38  163 1    
    80   39   40 am   BACKBONE|DICT|INTERRES
    81   39  164 1    
    82   40   41 2    
    83   40   42 1    
    84   42   43 1    
    85   42   44 1    
    86   42  165 1    
    87   43  166 1    
    88   43  167 1    
    89   43  168 1    
    90   44   45 am   BACKBONE|DICT|INTERRES
    91   44  169 1    
    92   45   46 2    
    93   45   47 1    
    94   47   48 1    
    95   47   49 1    
    96   47  170 1    
    97   48  171 1    
    98   48  172 1    
    99   48  173 1    
   100   49   50 am   BACKBONE|DICT|INTERRES
   101   49  174 1    
   102   50   51 2    
   103   50   52 1    
   104   52   53 1    
   105   52   54 1    
   106   52  175 1    
   107   53  176 1    
   108   53  177 1    
   109   53  178 1    
   110   54   55 am   BACKBONE|DICT|INTERRES
   111   54  179 1    
   112   55   56 2    
   113   55   57 1    
   114   57   58 1    
   115   57   59 1    
   116   57  180 1    
   117   58  181 1    
   118   58  182 1    
   119   58  183 1    
   120   59   60 am   BACKBONE|DICT|INTERRES
   121   59  184 1    
   122   60   61 2    
   123   60   62 1    
   124   62   63 1    
   125   62   64 1    
   126   62  185 1    
   127   63  186 1    
   128   63  187 1    
   129   63  188 1    
   130   64   65 am   BACKBONE|DICT|INTERRES
   131   64  189 1    
   132   65   66 2    
   133   67   68 2    
   134   67   69 am   BACKBONE|DICT|INTERRES
   135   69   70 1    
   136   69  190 1    
   137   70   71 1    
   138   70   72 1    
   139   70  191 1    
   140   71  192 1    
   141   71  193 1    
   142   71  194 1    
   143   72   73 2    
   144   72   74 am   BACKBONE|DICT|INTERRES
   145   74   75 1    
   146   74  195 1    
   147   75   76 1    
   148   75   77 1    
   149   75  196 1    
   150   76  197 1    
   151   76  198 1    
   152   76  199 1    
   153   77   78 2    
   154   77   79 am   BACKBONE|DICT|INTERRES
   155   79   80 1    
   156   79  200 1    
   157   80   81 1    
   158   80   82 1    
   159   80  201 1    
   160   81  202 1    
   161   81  203 1    
   162   81  204 1    
   163   82   83 2    
   164   82   84 am   BACKBONE|DICT|INTERRES
   165   84   85 1    
   166   84  205 1    
   167   85   86 1    
   168   85   87 1    
   169   85  206 1    
   170   86  207 1    
   171   86  208 1    
   172   86  209 1    
   173   87   88 2    
   174   87   89 am   BACKBONE|DICT|INTERRES
   175   89   90 1    
   176   89  210 1    
   177   90   91 1    
   178   90   92 1    
   179   90  211 1    
   180   91  212 1    
   181   91  213 1    
   182   91  214 1    
   183   92   93 2    
   184   92   94 am   BACKBONE|DICT|INTERRES
   185   94   95 1    
   186   94  215 1    
   187   95   96 1    
   188   95   97 1    
   189   95  216 1    
   190   96  217 1    
   191   96  218 1    
   192   96  219 1    
   193   97   98 2    
   194   97   99 am   BACKBONE|DICT|INTERRES
   195   99  100 1    
   196   99  220 1    
   197  100  101 1    
   198  100  102 1    
   199  100  221 1    
   200  101  222 1    
   201  101  223 1    
   202  101  224 1    
   203  102  103 2    
   204  102  104 am   BACKBONE|DICT|INTERRES
   205  104  105 1    
   206  104  225 1    
   207  105  106 1    
   208  105  107 1    
   209  105  226 1    
   210  106  227 1    
   211  106  228 1    
   212  106  229 1    
   213  107  108 2    
   214  107  109 am   BACKBONE|DICT|INTERRES
   215  109  110 1    
   216  109  230 1    
   217  110  111 1    
   218  110  112 1    
   219  110  231 1    
   220  111  232 1    
   221  111  233 1    
   222  111  234 1    
   223  112  113 2    
   224  112  114 am   BACKBONE|DICT|INTERRES
   225  114  115 1    
   226  114  235 1    
   227  115  116 1    
   228  115  117 1    
   229  115  236 1    
   230  116  237 1    
   231  116  238 1    
   232  116  239 1    
   233  117  118 2    
   234  117  119 am   BACKBONE|DICT|INTERRES
   235  119  120 1    
   236  119  240 1    
   237  120  121 1    
   238  120  124 1    
   239  120  241 1    
   240  121  122 am   BACKBONE|DICT|INTERRES
   241  121  123 2    
   242  122  242 1    
   243  122  243 1    
   244  124  125 1    
   245  124  244 1    
   246  124  245 1    
   247  125  126 1    
   248  126  246 1    
   249  126  247 1    
@<TRIPOS>SUBSTRUCTURE
     1 UNK         1 GROUP             0       ****    0 ROOT    
