@<TRIPOS>MOLECULE
3R540
247   249    1
SMALL
USER_CHARGES


@<TRIPOS>ATOM
      1 CA         -1.6834  -11.5778  -46.7681 C.3       0 UNK        -0.1800 
      2 C          -0.5310  -11.1773  -47.6784 C.2       0 UNK         0.5000 
      3 O          -0.0613  -10.0415  -47.6163 O.2       0 UNK        -0.5000 
      4 N          -0.0717  -12.1121  -48.5187 N.am      1 UNK        -0.5000 
      5 CA          1.0417  -11.9371  -49.4629 C.3       1 UNK         0.1400 
      6 C6          1.0232  -13.0434  -50.5462 C.3       23 UNK        -0.0398 
      7 S7         -0.3818  -12.8941  -51.7100 S.3       23 UNK        -0.2404 
      8 C8         -1.6245  -14.0885  -51.0902 C.3       23 UNK        -0.0205 
      9 C9         -1.0955  -15.4966  -50.8263 C.ar      23 UNK        -0.0193 
     10 C10        -0.1411  -16.0895  -51.6613 C.ar      23 UNK        -0.1150 
     11 C11         0.4024  -17.3381  -51.3488 C.ar      23 UNK        -0.0193 
     12 C12        -0.0303  -18.0031  -50.1965 C.ar      23 UNK        -0.1150 
     13 C13        -1.0402  -17.4607  -49.3950 C.ar      23 UNK        -0.0193 
     14 C14        -1.5675  -16.2078  -49.7184 C.ar      23 UNK        -0.1150 
     15 C15        -1.5444  -18.2149  -48.1706 C.3       23 UNK        -0.0205 
     16 S16        -2.9497  -19.2886  -48.5957 S.3       23 UNK        -0.2404 
     17 C17        -3.1757  -20.3126  -47.1001 C.3       23 UNK        -0.0398 
     18 CA         -2.1343  -21.4590  -47.0244 C.3       11 UNK         0.1400 
     19 N          -0.9297  -21.0502  -46.3017 N.am      11 UNK        -0.5000 
     20 C           0.2675  -21.6342  -46.4310 C.2       10 UNK         0.5000 
     21 O           0.4830  -22.6029  -47.1579 O.2       10 UNK        -0.5000 
     22 CA          1.4038  -21.0469  -45.5761 C.3       10 UNK         0.1400 
     23 CB          2.0212  -19.8233  -46.2710 C.3       10 UNK        -0.1800 
     24 N           0.9582  -20.6747  -44.2315 N.am      10 UNK        -0.5000 
     25 C           0.5355  -21.5539  -43.3119 C.2       9 UNK         0.5000 
     26 O           0.4882  -22.7700  -43.4955 O.2       9 UNK        -0.5000 
     27 CA          0.0311  -20.9700  -41.9829 C.3       9 UNK         0.1400 
     28 CB          1.2096  -20.6161  -41.0633 C.3       9 UNK        -0.1800 
     29 N          -0.8067  -19.7860  -42.1622 N.am      9 UNK        -0.5000 
     30 C          -1.9732  -19.7375  -42.8175 C.2       8 UNK         0.5000 
     31 O          -2.4562  -20.7038  -43.4068 O.2       8 UNK        -0.5000 
     32 CA         -2.7087  -18.3839  -42.8759 C.3       8 UNK         0.1400 
     33 CB         -4.1853  -18.5131  -42.4529 C.3       8 UNK        -0.1800 
     34 N          -2.0383  -17.2902  -42.1604 N.am      8 UNK        -0.5000 
     35 C          -1.8667  -17.1223  -40.8397 C.2       7 UNK         0.5000 
     36 O          -2.2920  -17.9032  -39.9887 O.2       7 UNK        -0.5000 
     37 CA         -1.0399  -15.8988  -40.3869 C.3       7 UNK         0.1400 
     38 CB          0.3090  -16.3588  -39.8106 C.3       7 UNK        -0.1800 
     39 N          -0.7810  -14.9374  -41.4612 N.am      7 UNK        -0.5000 
     40 C          -1.6862  -14.0959  -41.9799 C.2       6 UNK         0.5000 
     41 O          -2.8295  -13.9639  -41.5430 O.2       6 UNK        -0.5000 
     42 CA         -1.2517  -13.3156  -43.2351 C.3       6 UNK         0.1400 
     43 CB         -0.4854  -12.0424  -42.8446 C.3       6 UNK        -0.1800 
     44 N          -0.4248  -14.1221  -44.1367 N.am      6 UNK        -0.5000 
     45 C          -0.8305  -15.2263  -44.7794 C.2       5 UNK         0.5000 
     46 O          -1.9777  -15.6643  -44.7264 O.2       5 UNK        -0.5000 
     47 CA          0.2321  -16.0044  -45.5709 C.3       5 UNK         0.1400 
     48 CB          0.4428  -15.3908  -46.9601 C.3       5 UNK        -0.1800 
     49 N           1.5037  -16.0559  -44.8545 N.am      5 UNK        -0.5000 
     50 C           1.7772  -16.9107  -43.8605 C.2       4 UNK         0.5000 
     51 O           1.0182  -17.8154  -43.5119 O.2       4 UNK        -0.5000 
     52 CA          3.1200  -16.7265  -43.1283 C.3       4 UNK         0.1400 
     53 CB          4.1714  -17.6954  -43.6869 C.3       4 UNK        -0.1800 
     54 N           3.6356  -15.3564  -43.2039 N.am      4 UNK        -0.5000 
     55 C           3.1023  -14.3141  -42.5509 C.2       3 UNK         0.5000 
     56 O           2.1208  -14.4033  -41.8135 O.2       3 UNK        -0.5000 
     57 CA          3.7342  -12.9333  -42.8199 C.3       3 UNK         0.1400 
     58 CB          4.9968  -12.7393  -41.9671 C.3       3 UNK        -0.1800 
     59 N           4.0565  -12.7010  -44.2339 N.am      3 UNK        -0.5000 
     60 C           3.1537  -12.7148  -45.2226 C.2       2 UNK         0.5000 
     61 O           1.9569  -12.9525  -45.0383 O.2       2 UNK        -0.5000 
     62 CA          3.6609  -12.4716  -46.6528 C.3       2 UNK         0.1400 
     63 CB          4.5467  -13.6403  -47.1265 C.3       2 UNK        -0.1800 
     64 N           2.4889  -12.3547  -47.5128 N.am      2 UNK        -0.5000 
     65 C           2.4250  -11.8947  -48.7657 C.2       1 UNK         0.5000 
     66 O           3.4005  -11.4590  -49.3788 O.2       1 UNK        -0.5000 
     67 C          -2.7146  -22.7726  -46.4628 C.2       11 UNK         0.5000 
     68 O          -3.1787  -23.6072  -47.2431 O.2       11 UNK        -0.5000 
     69 N          -2.6272  -22.9621  -45.1387 N.am      12 UNK        -0.5000 
     70 CA         -2.9634  -24.2080  -44.4520 C.3       12 UNK         0.1400 
     71 CB         -2.9641  -23.9783  -42.9332 C.3       12 UNK        -0.1800 
     72 C          -2.0131  -25.3559  -44.8364 C.2       12 UNK         0.5000 
     73 O          -2.4850  -26.4496  -45.1472 O.2       12 UNK        -0.5000 
     74 N          -0.7003  -25.0780  -44.8633 N.am      13 UNK        -0.5000 
     75 CA          0.3442  -26.0192  -45.2822 C.3       13 UNK         0.1400 
     76 CB          1.7266  -25.4040  -45.0180 C.3       13 UNK        -0.1800 
     77 C           0.2163  -26.4516  -46.7558 C.2       13 UNK         0.5000 
     78 O           0.4808  -27.6104  -47.0768 O.2       13 UNK        -0.5000 
     79 N          -0.2291  -25.5246  -47.6134 N.am      14 UNK        -0.5000 
     80 CA         -0.5414  -25.7577  -49.0241 C.3       14 UNK         0.1400 
     81 CB         -0.4842  -24.4133  -49.7623 C.3       14 UNK        -0.1800 
     82 C          -1.9084  -26.4361  -49.2563 C.2       14 UNK         0.5000 
     83 O          -2.2645  -26.6683  -50.4118 O.2       14 UNK        -0.5000 
     84 N          -2.6680  -26.7100  -48.1838 N.am      15 UNK        -0.5000 
     85 CA         -3.9959  -27.3345  -48.1765 C.3       15 UNK         0.1400 
     86 CB         -3.8955  -28.8189  -48.5847 C.3       15 UNK        -0.1800 
     87 C          -5.0356  -26.5484  -49.0041 C.2       15 UNK         0.5000 
     88 O          -5.8483  -27.1467  -49.7107 O.2       15 UNK        -0.5000 
     89 N          -4.9640  -25.2123  -48.9128 N.am      16 UNK        -0.5000 
     90 CA         -5.7999  -24.2167  -49.5911 C.3       16 UNK         0.1400 
     91 CB         -7.2892  -24.3819  -49.2262 C.3       16 UNK        -0.1800 
     92 C          -5.5838  -24.1019  -51.1159 C.2       16 UNK         0.5000 
     93 O          -6.2622  -23.2916  -51.7475 O.2       16 UNK        -0.5000 
     94 N          -4.6089  -24.8234  -51.6924 N.am      17 UNK        -0.5000 
     95 CA         -4.2070  -24.6640  -53.0982 C.3       17 UNK         0.1400 
     96 CB         -3.2561  -25.8010  -53.4968 C.3       17 UNK        -0.1800 
     97 C          -3.5514  -23.2929  -53.3598 C.2       17 UNK         0.5000 
     98 O          -3.7040  -22.7195  -54.4395 O.2       17 UNK        -0.5000 
     99 N          -2.8724  -22.7694  -52.3329 N.am      18 UNK        -0.5000 
    100 CA        -2.3262  -21.4189  -52.3019 C.3       18 UNK         0.1400 
    101 CB        -1.3354  -21.3203  -51.1448 C.3       18 UNK        -0.1800 
    102 C         -3.4180  -20.3394  -52.1876 C.2       18 UNK         0.5000 
    103 O         -3.2973  -19.2851  -52.8059 O.2       18 UNK        -0.5000 
    104 N         -4.4925  -20.6321  -51.4424 N.am      19 UNK        -0.5000 
    105 CA        -5.6512  -19.7457  -51.3142 C.3       19 UNK         0.1400 
    106 CB        -6.5339  -20.2109  -50.1454 C.3       19 UNK        -0.1800 
    107 C         -6.4581  -19.6616  -52.6239 C.2       19 UNK         0.5000 
    108 O         -7.0271  -18.6114  -52.9233 O.2       19 UNK        -0.5000 
    109 N         -6.4686  -20.7625  -53.3885 N.am      20 UNK        -0.5000 
    110 CA        -7.0947  -20.8614  -54.7031 C.3       20 UNK         0.1400 
    111 CB        -7.2213  -22.3418  -55.0943 C.3       20 UNK        -0.1800 
    112 C         -6.3565  -20.0682  -55.8000 C.2       20 UNK         0.5000 
    113 O         -7.0234  -19.5586  -56.7022 O.2       20 UNK        -0.5000 
    114 N         -5.0195  -19.9668  -55.7216 N.am      21 UNK        -0.5000 
    115 CA        -4.2043  -19.2544  -56.7102 C.3       21 UNK         0.1400 
    116 CB        -4.1162  -20.0543  -58.0269 C.3       21 UNK        -0.1800 
    117 C         -2.7958  -18.9099  -56.2004 C.2       21 UNK         0.5000 
    118 O         -2.3919  -17.7502  -56.2918 O.2       21 UNK        -0.5000 
    119 N         -2.0568  -19.9227  -55.7252 N.am      22 UNK        -0.5000 
    120 CA        -0.6124  -19.8499  -55.4101 C.3       22 UNK         0.1400 
    121 C          0.3180  -19.7591  -56.6620 C.2       22 UNK         0.5000 
    122 N         -0.1573  -20.0679  -57.8629 N.am      22 UNK        -0.7600 
    123 O          1.4960  -19.4312  -56.5506 O.2       22 UNK        -0.5000 
    124 C124       -0.2543  -18.7997  -54.3082 C.3       23 UNK        -0.0398 
    125 S125        0.9594  -19.4455  -53.1056 S.3       23 UNK        -0.2404 
    126 C126        1.4924  -17.9387  -52.2291 C.3       23 UNK        -0.0205 
    127 H127       -1.8383  -12.6572  -46.7607 H         1 UNK         0.0600 
    128 H128       -1.4831  -11.2597  -45.7457 H         1 UNK         0.0600 
    129 H129       -2.6057  -11.1006  -47.0988 H         1 UNK         0.0600 
    130 H130       -0.5168  -13.0168  -48.5393 H         1 UNK         0.3000 
    131 H131        0.9163  -10.9722  -49.9591 H         1 UNK         0.0600 
    132 H132        1.0416  -14.0311  -50.0843 H         1 UNK         0.0800 
    133 H133        1.9256  -12.9906  -51.1585 H         1 UNK         0.0800 
    134 H134       -2.4329  -14.1563  -51.8190 H         1 UNK         0.0800 
    135 H135       -2.0668  -13.6750  -50.1828 H         1 UNK         0.0800 
    136 H136        0.2072  -15.5612  -52.5372 H         1 UNK         0.1150 
    137 H137        0.4089  -18.9551  -49.9346 H         1 UNK         0.1150 
    138 H138       -2.3323  -15.7763  -49.0879 H         1 UNK         0.1150 
    139 H139       -0.7317  -18.8097  -47.7564 H         1 UNK         0.0800 
    140 H140       -1.8531  -17.5159  -47.3924 H         1 UNK         0.0800 
    141 H141       -4.1914  -20.7088  -47.1574 H         1 UNK         0.0800 
    142 H142       -3.1543  -19.6851  -46.2077 H         1 UNK         0.0800 
    143 H143       -1.8272  -21.7072  -48.0388 H         1 UNK         0.0600 
    144 H144       -1.0294  -20.3051  -45.6297 H         1 UNK         0.3000 
    145 H145        2.1761  -21.8129  -45.4801 H         1 UNK         0.0600 
    146 H146        2.9082  -19.4777  -45.7420 H         1 UNK         0.0600 
    147 H147        2.3276  -20.0642  -47.2899 H         1 UNK         0.0600 
    148 H148        1.3197  -18.9910  -46.3275 H         1 UNK         0.0600 
    149 H149        0.9532  -19.6862  -43.9944 H         1 UNK         0.3000 
    150 H150       -0.5736  -21.7343  -41.4908 H         1 UNK         0.0600 
    151 H151        1.8306  -19.8266  -41.4890 H         1 UNK         0.0600 
    152 H152        1.8490  -21.4839  -40.8958 H         1 UNK         0.0600 
    153 H153        0.8599  -20.2771  -40.0879 H         1 UNK         0.0600 
    154 H154       -0.4514  -18.9217  -41.7817 H         1 UNK         0.3000 
    155 H155       -2.7002  -18.0967  -43.9275 H         1 UNK         0.0600 
    156 H156       -4.2868  -18.8775  -41.4306 H         1 UNK         0.0600 
    157 H157       -4.7162  -19.2130  -43.0994 H         1 UNK         0.0600 
    158 H158       -4.7001  -17.5548  -42.5225 H         1 UNK         0.0600 
    159 H159       -1.6593  -16.5746  -42.7668 H         1 UNK         0.3000 
    160 H160       -1.6003  -15.3959  -39.5962 H         1 UNK         0.0600 
    161 H161        0.9109  -16.8735  -40.5605 H         1 UNK         0.0600 
    162 H162        0.1675  -17.0452  -38.9748 H         1 UNK         0.0600 
    163 H163        0.8885  -15.5130  -39.4400 H         1 UNK         0.0600 
    164 H164        0.1655  -14.9136  -41.8278 H         1 UNK         0.3000 
    165 H165       -2.1525  -13.0231  -43.7784 H         1 UNK         0.0600 
    166 H166       -0.1877  -11.4713  -43.7237 H         1 UNK         0.0600 
    167 H167       -1.1024  -11.3907  -42.2250 H         1 UNK         0.0600 
    168 H168        0.4179  -12.2737  -42.2797 H         1 UNK         0.0600 
    169 H169        0.5250  -13.7912  -44.2894 H         1 UNK         0.3000 
    170 H170       -0.1406  -17.0215  -45.7063 H         1 UNK         0.0600 
    171 H171        0.9555  -14.4359  -46.9064 H         1 UNK         0.0600 
    172 H172       -0.5114  -15.2121  -47.4522 H         1 UNK         0.0600 
    173 H173        1.0297  -16.0505  -47.5996 H         1 UNK         0.0600 
    174 H174        2.1658  -15.3202  -45.0506 H         1 UNK         0.3000 
    175 H175        2.9560  -16.9737  -42.0774 H         1 UNK         0.0600 
    176 H176        4.3714  -17.5096  -44.7430 H         1 UNK         0.0600 
    177 H177        5.1138  -17.6093  -43.1458 H         1 UNK         0.0600 
    178 H178        3.8380  -18.7295  -43.5897 H         1 UNK         0.0600 
    179 H179        4.4385  -15.1994  -43.7954 H         1 UNK         0.3000 
    180 H180        3.0047  -12.1780  -42.5202 H         1 UNK         0.0600 
    181 H181        5.3927  -11.7292  -42.0733 H         1 UNK         0.0600 
    182 H182        5.7846  -13.4402  -42.2457 H         1 UNK         0.0600 
    183 H183        4.7803  -12.8920  -40.9088 H         1 UNK         0.0600 
    184 H184        5.0233  -12.5065  -44.4514 H         1 UNK         0.3000 
    185 H185        4.2219  -11.5356  -46.6735 H         1 UNK         0.0600 
    186 H186        4.9068  -13.4801  -48.1426 H         1 UNK         0.0600 
    187 H187        5.4262  -13.7548  -46.4922 H         1 UNK         0.0600 
    188 H188        4.0037  -14.5864  -47.1120 H         1 UNK         0.0600 
    189 H189        1.6301  -12.6162  -47.0451 H         1 UNK         0.3000 
    190 H190       -2.3046  -22.1974  -44.5516 H         1 UNK         0.3000 
    191 H191       -3.9734  -24.4954  -44.7521 H         1 UNK         0.0600 
    192 H192       -3.2305  -24.8916  -42.3999 H         1 UNK         0.0600 
    193 H193       -3.6882  -23.2135  -42.6518 H         1 UNK         0.0600 
    194 H194       -1.9861  -23.6594  -42.5721 H         1 UNK         0.0600 
    195 H195       -0.3838  -24.1651  -44.5481 H         1 UNK         0.3000 
    196 H196        0.2482  -26.9161  -44.6669 H         1 UNK         0.0600 
    197 H197        1.8672  -24.4771  -45.5748 H         1 UNK         0.0600 
    198 H198        1.8630  -25.1822  -43.9594 H         1 UNK         0.0600 
    199 H199        2.5230  -26.0889  -45.3115 H         1 UNK         0.0600 
    200 H200       -0.3540  -24.5769  -47.2765 H         1 UNK         0.3000 
    201 H201        0.2215  -26.4125  -49.4495 H         1 UNK         0.0600 
    202 H202       -1.2385  -23.7268  -49.3799 H         1 UNK         0.0600 
    203 H203       -0.6575  -24.5386  -50.8318 H         1 UNK         0.0600 
    204 H204        0.4905  -23.9390  -49.6466 H         1 UNK         0.0600 
    205 H205       -2.3098  -26.4601  -47.2697 H         1 UNK         0.3000 
    206 H206       -4.3439  -27.2999  -47.1433 H         1 UNK         0.0600 
    207 H207       -3.1676  -29.3473  -47.9690 H         1 UNK         0.0600 
    208 H208       -4.8533  -29.3252  -48.4593 H         1 UNK         0.0600 
    209 H209       -3.5988  -28.9335  -49.6278 H         1 UNK         0.0600 
    210 H210       -4.2458  -24.8185  -48.3083 H         1 UNK         0.3000 
    211 H211       -5.4790  -23.2571  -49.1832 H         1 UNK         0.0600 
    212 H212       -7.8769  -23.5384  -49.5903 H         1 UNK         0.0600 
    213 H213       -7.4281  -24.4288  -48.1462 H         1 UNK         0.0600 
    214 H214       -7.7185  -25.2845  -49.6612 H         1 UNK         0.0600 
    215 H215       -4.0823  -25.4855  -51.1354 H         1 UNK         0.3000 
    216 H216       -5.1020  -24.7317  -53.7202 H         1 UNK         0.0600 
    217 H217       -2.3177  -25.7554  -52.9432 H         1 UNK         0.0600 
    218 H218       -3.0118  -25.7486  -54.5585 H         1 UNK         0.0600 
    219 H219       -3.7068  -26.7765  -53.3133 H         1 UNK         0.0600 
    220 H220       -2.7836  -23.3201  -51.4930 H         1 UNK         0.3000 
    221 H221       -1.7813  -21.2461  -53.2280 H         1 UNK         0.0600 
    222 H222       -0.4624  -21.9512  -51.3096 H         1 UNK         0.0600 
    223 H223       -1.7993  -21.6066  -50.2057 H         1 UNK         0.0600 
    224 H224       -0.9845  -20.2996  -51.0371 H         1 UNK         0.0600 
    225 H225       -4.5485  -21.5284  -50.9873 H         1 UNK         0.3000 
    226 H226       -5.2865  -18.7427  -51.0812 H         1 UNK         0.0600 
    227 H227       -6.9720  -21.1912  -50.3294 H         1 UNK         0.0600 
    228 H228       -5.9658  -20.2636  -49.2167 H         1 UNK         0.0600 
    229 H229       -7.3566  -19.5138  -49.9828 H         1 UNK         0.0600 
    230 H230       -6.0442  -21.6056  -53.0209 H         1 UNK         0.3000 
    231 H231       -8.1034  -20.4505  -54.6229 H         1 UNK         0.0600 
    232 H232       -6.2463  -22.8142  -55.2114 H         1 UNK         0.0600 
    233 H233       -7.7520  -22.4500  -56.0409 H         1 UNK         0.0600 
    234 H234       -7.7773  -22.9032  -54.3430 H         1 UNK         0.0600 
    235 H235       -4.5356  -20.3771  -54.9338 H         1 UNK         0.3000 
    236 H236       -4.6938  -18.3020  -56.9261 H         1 UNK         0.0600 
    237 H237       -5.0899  -20.1433  -58.5081 H         1 UNK         0.0600 
    238 H238       -3.4539  -19.5635  -58.7414 H         1 UNK         0.0600 
    239 H239       -3.7356  -21.0626  -57.8605 H         1 UNK         0.0600 
    240 H240       -2.4640  -20.8479  -55.6969 H         1 UNK         0.3000 
    241 H241       -0.3927  -20.8396  -55.0101 H         1 UNK         0.0600 
    242 H242        0.4540  -20.0151  -58.6630 H         1 UNK         0.3800 
    243 H243       -1.1129  -20.3602  -57.9826 H         1 UNK         0.3800 
    244 H244       -1.1363  -18.5085  -53.7422 H         1 UNK         0.0800 
    245 H245        0.1182  -17.8731  -54.7481 H         1 UNK         0.0800 
    246 H246        2.3495  -18.1874  -51.6021 H         1 UNK         0.0800 
    247 H247        1.8523  -17.2104  -52.9575 H         1 UNK         0.0800 
@<TRIPOS>BOND
     1    1    2 1    
     2    1  127 1    
     3    1  128 1    
     4    1  129 1    
     5    2    3 2    
     6    2    4 am   BACKBONE|DICT|INTERRES
     7    4    5 1    
     8    4  130 1    
     9    5    6 1    
    10    5   65 1    
    11    5  131 1    
    12    6    7 1    
    13    6  132 1    
    14    6  133 1    
    15    7    8 1    
    16    8    9 1    
    17    8  134 1    
    18    8  135 1    
    19    9   10 ar   
    20    9   14 ar   
    21   10   11 ar   
    22   10  136 1    
    23   11   12 ar   
    24   11  126 1    
    25   12   13 ar   
    26   12  137 1    
    27   13   14 ar   
    28   13   15 1    
    29   14  138 1    
    30   15   16 1    
    31   15  139 1    
    32   15  140 1    
    33   16   17 1    
    34   17   18 1    
    35   17  141 1    
    36   17  142 1    
    37   18   19 1    
    38   18   67 1    
    39   18  143 1    
    40   19   20 am   BACKBONE|DICT|INTERRES
    41   19  144 1    
    42   20   21 2    
    43   20   22 1    
    44   22   23 1    
    45   22   24 1    
    46   22  145 1    
    47   23  146 1    
    48   23  147 1    
    49   23  148 1    
    50   24   25 am   BACKBONE|DICT|INTERRES
    51   24  149 1    
    52   25   26 2    
    53   25   27 1    
    54   27   28 1    
    55   27   29 1    
    56   27  150 1    
    57   28  151 1    
    58   28  152 1    
    59   28  153 1    
    60   29   30 am   BACKBONE|DICT|INTERRES
    61   29  154 1    
    62   30   31 2    
    63   30   32 1    
    64   32   33 1    
    65   32   34 1    
    66   32  155 1    
    67   33  156 1    
    68   33  157 1    
    69   33  158 1    
    70   34   35 am   BACKBONE|DICT|INTERRES
    71   34  159 1    
    72   35   36 2    
    73   35   37 1    
    74   37   38 1    
    75   37   39 1    
    76   37  160 1    
    77   38  161 1    
    78   38  162 1    
    79   38  163 1    
    80   39   40 am   BACKBONE|DICT|INTERRES
    81   39  164 1    
    82   40   41 2    
    83   40   42 1    
    84   42   43 1    
    85   42   44 1    
    86   42  165 1    
    87   43  166 1    
    88   43  167 1    
    89   43  168 1    
    90   44   45 am   BACKBONE|DICT|INTERRES
    91   44  169 1    
    92   45   46 2    
    93   45   47 1    
    94   47   48 1    
    95   47   49 1    
    96   47  170 1    
    97   48  171 1    
    98   48  172 1    
    99   48  173 1    
   100   49   50 am   BACKBONE|DICT|INTERRES
   101   49  174 1    
   102   50   51 2    
   103   50   52 1    
   104   52   53 1    
   105   52   54 1    
   106   52  175 1    
   107   53  176 1    
   108   53  177 1    
   109   53  178 1    
   110   54   55 am   BACKBONE|DICT|INTERRES
   111   54  179 1    
   112   55   56 2    
   113   55   57 1    
   114   57   58 1    
   115   57   59 1    
   116   57  180 1    
   117   58  181 1    
   118   58  182 1    
   119   58  183 1    
   120   59   60 am   BACKBONE|DICT|INTERRES
   121   59  184 1    
   122   60   61 2    
   123   60   62 1    
   124   62   63 1    
   125   62   64 1    
   126   62  185 1    
   127   63  186 1    
   128   63  187 1    
   129   63  188 1    
   130   64   65 am   BACKBONE|DICT|INTERRES
   131   64  189 1    
   132   65   66 2    
   133   67   68 2    
   134   67   69 am   BACKBONE|DICT|INTERRES
   135   69   70 1    
   136   69  190 1    
   137   70   71 1    
   138   70   72 1    
   139   70  191 1    
   140   71  192 1    
   141   71  193 1    
   142   71  194 1    
   143   72   73 2    
   144   72   74 am   BACKBONE|DICT|INTERRES
   145   74   75 1    
   146   74  195 1    
   147   75   76 1    
   148   75   77 1    
   149   75  196 1    
   150   76  197 1    
   151   76  198 1    
   152   76  199 1    
   153   77   78 2    
   154   77   79 am   BACKBONE|DICT|INTERRES
   155   79   80 1    
   156   79  200 1    
   157   80   81 1    
   158   80   82 1    
   159   80  201 1    
   160   81  202 1    
   161   81  203 1    
   162   81  204 1    
   163   82   83 2    
   164   82   84 am   BACKBONE|DICT|INTERRES
   165   84   85 1    
   166   84  205 1    
   167   85   86 1    
   168   85   87 1    
   169   85  206 1    
   170   86  207 1    
   171   86  208 1    
   172   86  209 1    
   173   87   88 2    
   174   87   89 am   BACKBONE|DICT|INTERRES
   175   89   90 1    
   176   89  210 1    
   177   90   91 1    
   178   90   92 1    
   179   90  211 1    
   180   91  212 1    
   181   91  213 1    
   182   91  214 1    
   183   92   93 2    
   184   92   94 am   BACKBONE|DICT|INTERRES
   185   94   95 1    
   186   94  215 1    
   187   95   96 1    
   188   95   97 1    
   189   95  216 1    
   190   96  217 1    
   191   96  218 1    
   192   96  219 1    
   193   97   98 2    
   194   97   99 am   BACKBONE|DICT|INTERRES
   195   99  100 1    
   196   99  220 1    
   197  100  101 1    
   198  100  102 1    
   199  100  221 1    
   200  101  222 1    
   201  101  223 1    
   202  101  224 1    
   203  102  103 2    
   204  102  104 am   BACKBONE|DICT|INTERRES
   205  104  105 1    
   206  104  225 1    
   207  105  106 1    
   208  105  107 1    
   209  105  226 1    
   210  106  227 1    
   211  106  228 1    
   212  106  229 1    
   213  107  108 2    
   214  107  109 am   BACKBONE|DICT|INTERRES
   215  109  110 1    
   216  109  230 1    
   217  110  111 1    
   218  110  112 1    
   219  110  231 1    
   220  111  232 1    
   221  111  233 1    
   222  111  234 1    
   223  112  113 2    
   224  112  114 am   BACKBONE|DICT|INTERRES
   225  114  115 1    
   226  114  235 1    
   227  115  116 1    
   228  115  117 1    
   229  115  236 1    
   230  116  237 1    
   231  116  238 1    
   232  116  239 1    
   233  117  118 2    
   234  117  119 am   BACKBONE|DICT|INTERRES
   235  119  120 1    
   236  119  240 1    
   237  120  121 1    
   238  120  124 1    
   239  120  241 1    
   240  121  122 am   BACKBONE|DICT|INTERRES
   241  121  123 2    
   242  122  242 1    
   243  122  243 1    
   244  124  125 1    
   245  124  244 1    
   246  124  245 1    
   247  125  126 1    
   248  126  246 1    
   249  126  247 1    
@<TRIPOS>SUBSTRUCTURE
     1 UNK         1 GROUP             0       ****    0 ROOT    
