@<TRIPOS>MOLECULE
3R540
247   249    1
SMALL
USER_CHARGES


@<TRIPOS>ATOM
      1 CA         -2.2794  -13.7394  -53.7546 C.3       0 UNK        -0.1800 
      2 C          -1.0546  -14.0682  -52.9121 C.2       0 UNK         0.5000 
      3 O           0.0657  -14.0365  -53.4200 O.2       0 UNK        -0.5000 
      4 N          -1.2716  -14.3695  -51.6257 N.am      1 UNK        -0.5000 
      5 CA         -0.2510  -14.8115  -50.6665 C.3       1 UNK         0.1400 
      6 C6         -0.8848  -15.2671  -49.3302 C.3       23 UNK        -0.0398 
      7 S7         -2.1848  -16.5270  -49.5127 S.3       23 UNK        -0.2404 
      8 C8         -1.5755  -17.8406  -48.4036 C.3       23 UNK        -0.0205 
      9 C9         -0.3567  -18.5961  -48.9293 C.ar      23 UNK        -0.0193 
     10 C10        -0.2463  -18.9404  -50.2806 C.ar      23 UNK        -0.1150 
     11 C11         0.8541  -19.6636  -50.7466 C.ar      23 UNK        -0.0193 
     12 C12         1.8506  -20.0549  -49.8496 C.ar      23 UNK        -0.1150 
     13 C13         1.7528  -19.7286  -48.4945 C.ar      23 UNK        -0.0193 
     14 C14         0.6478  -18.9984  -48.0418 C.ar      23 UNK        -0.1150 
     15 C15         2.8587  -20.1446  -47.5324 C.3       23 UNK        -0.0205 
     16 S16         2.7035  -21.8770  -46.9989 S.3       23 UNK        -0.2404 
     17 C17         1.3093  -21.7356  -45.8378 C.3       23 UNK        -0.0398 
     18 CA          0.8677  -23.0891  -45.2226 C.3       11 UNK         0.1400 
     19 N           0.2742  -22.8551  -43.9085 N.am      11 UNK        -0.5000 
     20 C           0.7103  -23.3137  -42.7295 C.2       10 UNK         0.5000 
     21 O           1.6895  -24.0486  -42.6027 O.2       10 UNK        -0.5000 
     22 CA         -0.0788  -22.8745  -41.4754 C.3       10 UNK         0.1400 
     23 CB          0.7631  -21.9203  -40.6138 C.3       10 UNK        -0.1800 
     24 N          -1.3553  -22.2283  -41.8024 N.am      10 UNK        -0.5000 
     25 C          -2.4357  -22.8876  -42.2448 C.2       9 UNK         0.5000 
     26 O          -2.4925  -24.1150  -42.3064 O.2       9 UNK        -0.5000 
     27 CA         -3.6270  -22.0554  -42.7602 C.3       9 UNK         0.1400 
     28 CB         -4.7239  -21.9602  -41.6901 C.3       9 UNK        -0.1800 
     29 N          -3.2738  -20.7034  -43.2031 N.am      9 UNK        -0.5000 
     30 C          -2.4665  -20.4014  -44.2299 C.2       8 UNK         0.5000 
     31 O          -1.9356  -21.2490  -44.9454 O.2       8 UNK        -0.5000 
     32 CA         -2.1656  -18.9075  -44.4786 C.3       8 UNK         0.1400 
     33 CB         -3.2937  -17.9723  -43.9992 C.3       8 UNK        -0.1800 
     34 N          -0.8769  -18.4701  -43.9231 N.am      8 UNK        -0.5000 
     35 C          -0.3995  -18.6939  -42.6869 C.2       7 UNK         0.5000 
     36 O          -0.9905  -19.3332  -41.8165 O.2       7 UNK        -0.5000 
     37 CA          0.9669  -18.0752  -42.3586 C.3       7 UNK         0.1400 
     38 CB          2.0866  -18.6811  -43.2225 C.3       7 UNK        -0.1800 
     39 N           0.9178  -16.6271  -42.5420 N.am      7 UNK        -0.5000 
     40 C           0.5495  -15.7563  -41.5896 C.2       6 UNK         0.5000 
     41 O           0.2959  -16.0809  -40.4290 O.2       6 UNK        -0.5000 
     42 CA          0.4434  -14.2695  -41.9891 C.3       6 UNK         0.1400 
     43 CB          1.7405  -13.5251  -41.6381 C.3       6 UNK        -0.1800 
     44 N           0.1598  -14.0785  -43.4104 N.am      6 UNK        -0.5000 
     45 C          -1.0022  -14.3851  -44.0066 C.2       5 UNK         0.5000 
     46 O          -2.0085  -14.7374  -43.3927 O.2       5 UNK        -0.5000 
     47 CA         -1.0399  -14.3131  -45.5480 C.3       5 UNK         0.1400 
     48 CB         -1.7294  -13.0158  -45.9961 C.3       5 UNK        -0.1800 
     49 N           0.2891  -14.3951  -46.1649 N.am      5 UNK        -0.5000 
     50 C           1.1176  -15.4480  -46.0665 C.2       4 UNK         0.5000 
     51 O           0.7881  -16.5105  -45.5356 O.2       4 UNK        -0.5000 
     52 CA          2.5617  -15.2805  -46.5849 C.3       4 UNK         0.1400 
     53 CB          2.8770  -16.2724  -47.7114 C.3       4 UNK        -0.1800 
     54 N           2.8753  -13.9206  -47.0302 N.am      4 UNK        -0.5000 
     55 C           3.0952  -12.8853  -46.2052 C.2       3 UNK         0.5000 
     56 O           3.0380  -12.9777  -44.9783 O.2       3 UNK        -0.5000 
     57 CA          3.3913  -11.5133  -46.8466 C.3       3 UNK         0.1400 
     58 CB          4.9046  -11.2524  -46.8770 C.3       3 UNK        -0.1800 
     59 N           2.8540  -11.3580  -48.2015 N.am      3 UNK        -0.5000 
     60 C           1.5526  -11.3800  -48.5183 C.2       2 UNK         0.5000 
     61 O           0.6576  -11.5280  -47.6845 O.2       2 UNK        -0.5000 
     62 CA          1.1719  -11.2724  -50.0111 C.3       2 UNK         0.1400 
     63 CB          2.3642  -11.0224  -50.9623 C.3       2 UNK        -0.1800 
     64 N           0.4097  -12.4518  -50.4326 N.am      2 UNK        -0.5000 
     65 C           0.8090  -13.7319  -50.3578 C.2       1 UNK         0.5000 
     66 O           1.9400  -14.0758  -50.0111 O.2       1 UNK        -0.5000 
     67 C          -0.1307  -23.8428  -46.1332 C.2       11 UNK         0.5000 
     68 O           0.0051  -23.7817  -47.3545 O.2       11 UNK        -0.5000 
     69 N          -1.1309  -24.5195  -45.5399 N.am      12 UNK        -0.5000 
     70 CA         -2.3243  -25.0857  -46.1868 C.3       12 UNK         0.1400 
     71 CB         -3.1292  -25.8975  -45.1614 C.3       12 UNK        -0.1800 
     72 C          -2.0960  -25.9271  -47.4567 C.2       12 UNK         0.5000 
     73 O          -2.9448  -25.8946  -48.3484 O.2       12 UNK        -0.5000 
     74 N          -0.9669  -26.6437  -47.5257 N.am      13 UNK        -0.5000 
     75 CA         -0.5678  -27.4547  -48.6774 C.3       13 UNK         0.1400 
     76 CB          0.6160  -28.3479  -48.2764 C.3       13 UNK        -0.1800 
     77 C          -0.2152  -26.6203  -49.9255 C.2       13 UNK         0.5000 
     78 O          -0.4880  -27.0634  -51.0415 O.2       13 UNK        -0.5000 
     79 N           0.3728  -25.4346  -49.7191 N.am      14 UNK        -0.5000 
     80 CA          0.7205  -24.4836  -50.7769 C.3       14 UNK         0.1400 
     81 CB          2.0493  -23.7995  -50.4252 C.3       14 UNK        -0.1800 
     82 C          -0.3874  -23.4350  -50.9621 C.2       14 UNK         0.5000 
     83 O          -0.6557  -23.0237  -52.0905 O.2       14 UNK        -0.5000 
     84 N          -1.0251  -23.0430  -49.8517 N.am      15 UNK        -0.5000 
     85 CA         -2.1110  -22.0682  -49.7932 C.3       15 UNK         0.1400 
     86 CB         -2.2466  -21.5670  -48.3487 C.3       15 UNK        -0.1800 
     87 C          -3.4624  -22.6028  -50.3007 C.2       15 UNK         0.5000 
     88 O          -4.4083  -21.8239  -50.3829 O.2       15 UNK        -0.5000 
     89 N          -3.5538  -23.9090  -50.5910 N.am      16 UNK        -0.5000 
     90 CA         -4.7488  -24.6270  -51.0479 C.3       16 UNK         0.1400 
     91 CB         -5.1365  -24.1827  -52.4740 C.3       16 UNK        -0.1800 
     92 C          -5.9071  -24.5106  -50.0353 C.2       16 UNK         0.5000 
     93 O          -7.0135  -24.1030  -50.3929 O.2       16 UNK        -0.5000 
     94 N          -5.5957  -24.8481  -48.7754 N.am      17 UNK        -0.5000 
     95 CA         -6.4563  -24.7478  -47.5924 C.3       17 UNK         0.1400 
     96 CB         -7.6688  -25.6964  -47.7020 C.3       17 UNK        -0.1800 
     97 C          -6.8422  -23.2892  -47.2625 C.2       17 UNK         0.5000 
     98 O          -8.0161  -22.9912  -47.0357 O.2       17 UNK        -0.5000 
     99 N          -5.8222  -22.4182  -47.2213 N.am      18 UNK        -0.5000 
    100 CA        -5.8816  -20.9984  -46.8485 C.3       18 UNK         0.1400 
    101 CB        -6.3363  -20.8305  -45.3828 C.3       18 UNK        -0.1800 
    102 C         -6.6927  -20.1277  -47.8323 C.2       18 UNK         0.5000 
    103 O         -7.3938  -19.2063  -47.4085 O.2       18 UNK        -0.5000 
    104 N         -6.5633  -20.4153  -49.1315 N.am      19 UNK        -0.5000 
    105 CA        -7.0504  -19.5738  -50.2206 C.3       19 UNK         0.1400 
    106 CB        -7.4226  -20.4802  -51.4062 C.3       19 UNK        -0.1800 
    107 C         -5.9589  -18.5663  -50.6284 C.2       19 UNK         0.5000 
    108 O         -4.8023  -18.6999  -50.2214 O.2       19 UNK        -0.5000 
    109 N         -6.3244  -17.5944  -51.4737 N.am      20 UNK        -0.5000 
    110 CA        -5.4119  -16.6129  -52.0725 C.3       20 UNK         0.1400 
    111 CB        -6.2177  -15.3614  -52.4650 C.3       20 UNK        -0.1800 
    112 C         -4.6204  -17.2115  -53.2588 C.2       20 UNK         0.5000 
    113 O         -4.6326  -16.6601  -54.3613 O.2       20 UNK        -0.5000 
    114 N         -3.9787  -18.3590  -53.0172 N.am      21 UNK        -0.5000 
    115 CA        -3.1637  -19.1006  -53.9745 C.3       21 UNK         0.1400 
    116 CB        -3.0007  -20.5365  -53.4514 C.3       21 UNK        -0.1800 
    117 C         -1.7907  -18.4400  -54.2061 C.2       21 UNK         0.5000 
    118 O         -1.3916  -17.5609  -53.4422 O.2       21 UNK        -0.5000 
    119 N         -1.1030  -18.9040  -55.2585 N.am      22 UNK        -0.5000 
    120 CA         0.2621  -18.5428  -55.6940 C.3       22 UNK         0.1400 
    121 C          0.5449  -17.0384  -56.0013 C.2       22 UNK         0.5000 
    122 N         -0.4642  -16.1852  -56.1164 N.am      22 UNK        -0.7600 
    123 O          1.6919  -16.6478  -56.2030 O.2       22 UNK        -0.5000 
    124 C124        1.3864  -19.2597  -54.8863 C.3       23 UNK        -0.0398 
    125 S125        1.6716  -18.6617  -53.1835 S.3       23 UNK        -0.2404 
    126 C126        0.9554  -20.0261  -52.2179 C.3       23 UNK        -0.0205 
    127 H127       -2.1293  -12.8030  -54.2918 H         1 UNK         0.0600 
    128 H128       -3.1767  -13.6402  -53.1436 H         1 UNK         0.0600 
    129 H129       -2.4529  -14.5306  -54.4841 H         1 UNK         0.0600 
    130 H130       -2.2196  -14.3948  -51.2800 H         1 UNK         0.3000 
    131 H131        0.2669  -15.6654  -51.1097 H         1 UNK         0.0600 
    132 H132       -0.1119  -15.6626  -48.6732 H         1 UNK         0.0800 
    133 H133       -1.3275  -14.4196  -48.8065 H         1 UNK         0.0800 
    134 H134       -1.3622  -17.4005  -47.4284 H         1 UNK         0.0800 
    135 H135       -2.3859  -18.5521  -48.2515 H         1 UNK         0.0800 
    136 H136       -1.0196  -18.6476  -50.9769 H         1 UNK         0.1150 
    137 H137        2.7041  -20.6146  -50.2048 H         1 UNK         0.1150 
    138 H138        0.5694  -18.7468  -46.9939 H         1 UNK         0.1150 
    139 H139        3.8268  -20.0119  -48.0175 H         1 UNK         0.0800 
    140 H140        2.8702  -19.5008  -46.6521 H         1 UNK         0.0800 
    141 H141        0.4717  -21.2318  -46.3215 H         1 UNK         0.0800 
    142 H142        1.6403  -21.0599  -45.0490 H         1 UNK         0.0800 
    143 H143        1.7422  -23.7339  -45.1177 H         1 UNK         0.0600 
    144 H144       -0.5597  -22.2767  -43.9298 H         1 UNK         0.3000 
    145 H145       -0.2834  -23.7704  -40.8855 H         1 UNK         0.0600 
    146 H146        0.2141  -21.5963  -39.7296 H         1 UNK         0.0600 
    147 H147        1.6752  -22.4088  -40.2690 H         1 UNK         0.0600 
    148 H148        1.0606  -21.0313  -41.1691 H         1 UNK         0.0600 
    149 H149       -1.3711  -21.2112  -41.7774 H         1 UNK         0.3000 
    150 H150       -4.0322  -22.5910  -43.6206 H         1 UNK         0.0600 
    151 H151       -5.0351  -22.9519  -41.3590 H         1 UNK         0.0600 
    152 H152       -5.6099  -21.4555  -42.0759 H         1 UNK         0.0600 
    153 H153       -4.3805  -21.4129  -40.8113 H         1 UNK         0.0600 
    154 H154       -3.6184  -19.9435  -42.6346 H         1 UNK         0.3000 
    155 H155       -2.0890  -18.7987  -45.5607 H         1 UNK         0.0600 
    156 H156       -3.3411  -17.9063  -42.9117 H         1 UNK         0.0600 
    157 H157       -4.2676  -18.3060  -44.3594 H         1 UNK         0.0600 
    158 H158       -3.1445  -16.9634  -44.3822 H         1 UNK         0.0600 
    159 H159       -0.3006  -17.9170  -44.5496 H         1 UNK         0.3000 
    160 H160        1.1993  -18.3046  -41.3162 H         1 UNK         0.0600 
    161 H161        1.9215  -18.5271  -44.2887 H         1 UNK         0.0600 
    162 H162        2.1652  -19.7557  -43.0552 H         1 UNK         0.0600 
    163 H163        3.0533  -18.2448  -42.9710 H         1 UNK         0.0600 
    164 H164        1.0479  -16.2922  -43.4882 H         1 UNK         0.3000 
    165 H165       -0.3728  -13.8278  -41.4137 H         1 UNK         0.0600 
    166 H166        1.6564  -12.4605  -41.8577 H         1 UNK         0.0600 
    167 H167        1.9717  -13.6207  -40.5764 H         1 UNK         0.0600 
    168 H168        2.5920  -13.9156  -42.1971 H         1 UNK         0.0600 
    169 H169        0.9312  -13.7670  -43.9854 H         1 UNK         0.3000 
    170 H170       -1.6288  -15.1607  -45.9049 H         1 UNK         0.0600 
    171 H171       -2.7416  -12.9528  -45.5945 H         1 UNK         0.0600 
    172 H172       -1.1855  -12.1349  -45.6528 H         1 UNK         0.0600 
    173 H173       -1.8085  -12.9547  -47.0805 H         1 UNK         0.0600 
    174 H174        0.6285  -13.5505  -46.6085 H         1 UNK         0.3000 
    175 H175        3.2232  -15.5184  -45.7492 H         1 UNK         0.0600 
    176 H176        2.1588  -16.2173  -48.5281 H         1 UNK         0.0600 
    177 H177        3.8713  -16.1047  -48.1253 H         1 UNK         0.0600 
    178 H178        2.8582  -17.2904  -47.3303 H         1 UNK         0.0600 
    179 H179        2.8870  -13.7664  -48.0320 H         1 UNK         0.3000 
    180 H180        2.9262  -10.7536  -46.2150 H         1 UNK         0.0600 
    181 H181        5.4233  -11.9683  -47.5159 H         1 UNK         0.0600 
    182 H182        5.3353  -11.3317  -45.8779 H         1 UNK         0.0600 
    183 H183        5.1256  -10.2503  -47.2453 H         1 UNK         0.0600 
    184 H184        3.5283  -11.2623  -48.9469 H         1 UNK         0.3000 
    185 H185        0.4978  -10.4187  -50.0930 H         1 UNK         0.0600 
    186 H186        2.8834  -10.0973  -50.7088 H         1 UNK         0.0600 
    187 H187        3.0932  -11.8329  -50.9393 H         1 UNK         0.0600 
    188 H188        2.0211  -10.9224  -51.9922 H         1 UNK         0.0600 
    189 H189       -0.5456  -12.2783  -50.7104 H         1 UNK         0.3000 
    190 H190       -1.1436  -24.5250  -44.5297 H         1 UNK         0.3000 
    191 H191       -2.9457  -24.2414  -46.4850 H         1 UNK         0.0600 
    192 H192       -3.5478  -25.2528  -44.3902 H         1 UNK         0.0600 
    193 H193       -3.9687  -26.4127  -45.6304 H         1 UNK         0.0600 
    194 H194       -2.5128  -26.6534  -44.6737 H         1 UNK         0.0600 
    195 H195       -0.3232  -26.6013  -46.7495 H         1 UNK         0.3000 
    196 H196       -1.4074  -28.1016  -48.9407 H         1 UNK         0.0600 
    197 H197        0.9239  -28.9844  -49.1071 H         1 UNK         0.0600 
    198 H198        0.3522  -29.0038  -47.4467 H         1 UNK         0.0600 
    199 H199        1.4826  -27.7573  -47.9765 H         1 UNK         0.0600 
    200 H200        0.4941  -25.1088  -48.7660 H         1 UNK         0.3000 
    201 H201        0.8526  -25.0079  -51.7257 H         1 UNK         0.0600 
    202 H202        2.8505  -24.5288  -50.3066 H         1 UNK         0.0600 
    203 H203        1.9725  -23.2317  -49.4982 H         1 UNK         0.0600 
    204 H204        2.3519  -23.1060  -51.2105 H         1 UNK         0.0600 
    205 H205       -0.6916  -23.3921  -48.9555 H         1 UNK         0.3000 
    206 H206       -1.8402  -21.2191  -50.4197 H         1 UNK         0.0600 
    207 H207       -1.3035  -21.1678  -47.9783 H         1 UNK         0.0600 
    208 H208       -2.9851  -20.7694  -48.2852 H         1 UNK         0.0600 
    209 H209       -2.5580  -22.3587  -47.6709 H         1 UNK         0.0600 
    210 H210       -2.7371  -24.4796  -50.4237 H         1 UNK         0.3000 
    211 H211       -4.4791  -25.6832  -51.0917 H         1 UNK         0.0600 
    212 H212       -5.4531  -23.1399  -52.5042 H         1 UNK         0.0600 
    213 H213       -5.9600  -24.7849  -52.8591 H         1 UNK         0.0600 
    214 H214       -4.2994  -24.2970  -53.1626 H         1 UNK         0.0600 
    215 H215       -4.6524  -25.1939  -48.6101 H         1 UNK         0.3000 
    216 H216       -5.8541  -25.0952  -46.7520 H         1 UNK         0.0600 
    217 H217       -8.2308  -25.7180  -46.7676 H         1 UNK         0.0600 
    218 H218       -7.3519  -26.7178  -47.9127 H         1 UNK         0.0600 
    219 H219       -8.3586  -25.3897  -48.4885 H         1 UNK         0.0600 
    220 H220       -4.9096  -22.7611  -47.4779 H         1 UNK         0.3000 
    221 H221       -4.8572  -20.6301  -46.9037 H         1 UNK         0.0600 
    222 H222       -7.3908  -21.0757  -45.2537 H         1 UNK         0.0600 
    223 H223       -5.7630  -21.4703  -44.7154 H         1 UNK         0.0600 
    224 H224       -6.1983  -19.8029  -45.0453 H         1 UNK         0.0600 
    225 H225       -5.8870  -21.1198  -49.4153 H         1 UNK         0.3000 
    226 H226       -7.9388  -19.0233  -49.9048 H         1 UNK         0.0600 
    227 H227       -8.1429  -21.2427  -51.1083 H         1 UNK         0.0600 
    228 H228       -7.8730  -19.9070  -52.2170 H         1 UNK         0.0600 
    229 H229       -6.5489  -20.9909  -51.8124 H         1 UNK         0.0600 
    230 H230       -7.2806  -17.5642  -51.7967 H         1 UNK         0.3000 
    231 H231       -4.6789  -16.3079  -51.3231 H         1 UNK         0.0600 
    232 H232       -6.9733  -15.5885  -53.2181 H         1 UNK         0.0600 
    233 H233       -5.5667  -14.5881  -52.8745 H         1 UNK         0.0600 
    234 H234       -6.7237  -14.9316  -51.6003 H         1 UNK         0.0600 
    235 H235       -3.9991  -18.7102  -52.0652 H         1 UNK         0.3000 
    236 H236       -3.6947  -19.1336  -54.9281 H         1 UNK         0.0600 
    237 H237       -3.9681  -21.0136  -53.2917 H         1 UNK         0.0600 
    238 H238       -2.4438  -21.1593  -54.1522 H         1 UNK         0.0600 
    239 H239       -2.4635  -20.5512  -52.5046 H         1 UNK         0.0600 
    240 H240       -1.5468  -19.6075  -55.8313 H         1 UNK         0.3000 
    241 H241        0.3153  -18.9862  -56.6890 H         1 UNK         0.0600 
    242 H242       -0.2697  -15.2167  -56.3135 H         1 UNK         0.3800 
    243 H243       -1.4067  -16.4848  -55.9279 H         1 UNK         0.3800 
    244 H244        1.1837  -20.3310  -54.8592 H         1 UNK         0.0800 
    245 H245        2.3329  -19.1683  -55.4212 H         1 UNK         0.0800 
    246 H246        1.5627  -20.9227  -52.3488 H         1 UNK         0.0800 
    247 H247       -0.0354  -20.2689  -52.6020 H         1 UNK         0.0800 
@<TRIPOS>BOND
     1    1    2 1    
     2    1  127 1    
     3    1  128 1    
     4    1  129 1    
     5    2    3 2    
     6    2    4 am   BACKBONE|DICT|INTERRES
     7    4    5 1    
     8    4  130 1    
     9    5    6 1    
    10    5   65 1    
    11    5  131 1    
    12    6    7 1    
    13    6  132 1    
    14    6  133 1    
    15    7    8 1    
    16    8    9 1    
    17    8  134 1    
    18    8  135 1    
    19    9   10 ar   
    20    9   14 ar   
    21   10   11 ar   
    22   10  136 1    
    23   11   12 ar   
    24   11  126 1    
    25   12   13 ar   
    26   12  137 1    
    27   13   14 ar   
    28   13   15 1    
    29   14  138 1    
    30   15   16 1    
    31   15  139 1    
    32   15  140 1    
    33   16   17 1    
    34   17   18 1    
    35   17  141 1    
    36   17  142 1    
    37   18   19 1    
    38   18   67 1    
    39   18  143 1    
    40   19   20 am   BACKBONE|DICT|INTERRES
    41   19  144 1    
    42   20   21 2    
    43   20   22 1    
    44   22   23 1    
    45   22   24 1    
    46   22  145 1    
    47   23  146 1    
    48   23  147 1    
    49   23  148 1    
    50   24   25 am   BACKBONE|DICT|INTERRES
    51   24  149 1    
    52   25   26 2    
    53   25   27 1    
    54   27   28 1    
    55   27   29 1    
    56   27  150 1    
    57   28  151 1    
    58   28  152 1    
    59   28  153 1    
    60   29   30 am   BACKBONE|DICT|INTERRES
    61   29  154 1    
    62   30   31 2    
    63   30   32 1    
    64   32   33 1    
    65   32   34 1    
    66   32  155 1    
    67   33  156 1    
    68   33  157 1    
    69   33  158 1    
    70   34   35 am   BACKBONE|DICT|INTERRES
    71   34  159 1    
    72   35   36 2    
    73   35   37 1    
    74   37   38 1    
    75   37   39 1    
    76   37  160 1    
    77   38  161 1    
    78   38  162 1    
    79   38  163 1    
    80   39   40 am   BACKBONE|DICT|INTERRES
    81   39  164 1    
    82   40   41 2    
    83   40   42 1    
    84   42   43 1    
    85   42   44 1    
    86   42  165 1    
    87   43  166 1    
    88   43  167 1    
    89   43  168 1    
    90   44   45 am   BACKBONE|DICT|INTERRES
    91   44  169 1    
    92   45   46 2    
    93   45   47 1    
    94   47   48 1    
    95   47   49 1    
    96   47  170 1    
    97   48  171 1    
    98   48  172 1    
    99   48  173 1    
   100   49   50 am   BACKBONE|DICT|INTERRES
   101   49  174 1    
   102   50   51 2    
   103   50   52 1    
   104   52   53 1    
   105   52   54 1    
   106   52  175 1    
   107   53  176 1    
   108   53  177 1    
   109   53  178 1    
   110   54   55 am   BACKBONE|DICT|INTERRES
   111   54  179 1    
   112   55   56 2    
   113   55   57 1    
   114   57   58 1    
   115   57   59 1    
   116   57  180 1    
   117   58  181 1    
   118   58  182 1    
   119   58  183 1    
   120   59   60 am   BACKBONE|DICT|INTERRES
   121   59  184 1    
   122   60   61 2    
   123   60   62 1    
   124   62   63 1    
   125   62   64 1    
   126   62  185 1    
   127   63  186 1    
   128   63  187 1    
   129   63  188 1    
   130   64   65 am   BACKBONE|DICT|INTERRES
   131   64  189 1    
   132   65   66 2    
   133   67   68 2    
   134   67   69 am   BACKBONE|DICT|INTERRES
   135   69   70 1    
   136   69  190 1    
   137   70   71 1    
   138   70   72 1    
   139   70  191 1    
   140   71  192 1    
   141   71  193 1    
   142   71  194 1    
   143   72   73 2    
   144   72   74 am   BACKBONE|DICT|INTERRES
   145   74   75 1    
   146   74  195 1    
   147   75   76 1    
   148   75   77 1    
   149   75  196 1    
   150   76  197 1    
   151   76  198 1    
   152   76  199 1    
   153   77   78 2    
   154   77   79 am   BACKBONE|DICT|INTERRES
   155   79   80 1    
   156   79  200 1    
   157   80   81 1    
   158   80   82 1    
   159   80  201 1    
   160   81  202 1    
   161   81  203 1    
   162   81  204 1    
   163   82   83 2    
   164   82   84 am   BACKBONE|DICT|INTERRES
   165   84   85 1    
   166   84  205 1    
   167   85   86 1    
   168   85   87 1    
   169   85  206 1    
   170   86  207 1    
   171   86  208 1    
   172   86  209 1    
   173   87   88 2    
   174   87   89 am   BACKBONE|DICT|INTERRES
   175   89   90 1    
   176   89  210 1    
   177   90   91 1    
   178   90   92 1    
   179   90  211 1    
   180   91  212 1    
   181   91  213 1    
   182   91  214 1    
   183   92   93 2    
   184   92   94 am   BACKBONE|DICT|INTERRES
   185   94   95 1    
   186   94  215 1    
   187   95   96 1    
   188   95   97 1    
   189   95  216 1    
   190   96  217 1    
   191   96  218 1    
   192   96  219 1    
   193   97   98 2    
   194   97   99 am   BACKBONE|DICT|INTERRES
   195   99  100 1    
   196   99  220 1    
   197  100  101 1    
   198  100  102 1    
   199  100  221 1    
   200  101  222 1    
   201  101  223 1    
   202  101  224 1    
   203  102  103 2    
   204  102  104 am   BACKBONE|DICT|INTERRES
   205  104  105 1    
   206  104  225 1    
   207  105  106 1    
   208  105  107 1    
   209  105  226 1    
   210  106  227 1    
   211  106  228 1    
   212  106  229 1    
   213  107  108 2    
   214  107  109 am   BACKBONE|DICT|INTERRES
   215  109  110 1    
   216  109  230 1    
   217  110  111 1    
   218  110  112 1    
   219  110  231 1    
   220  111  232 1    
   221  111  233 1    
   222  111  234 1    
   223  112  113 2    
   224  112  114 am   BACKBONE|DICT|INTERRES
   225  114  115 1    
   226  114  235 1    
   227  115  116 1    
   228  115  117 1    
   229  115  236 1    
   230  116  237 1    
   231  116  238 1    
   232  116  239 1    
   233  117  118 2    
   234  117  119 am   BACKBONE|DICT|INTERRES
   235  119  120 1    
   236  119  240 1    
   237  120  121 1    
   238  120  124 1    
   239  120  241 1    
   240  121  122 am   BACKBONE|DICT|INTERRES
   241  121  123 2    
   242  122  242 1    
   243  122  243 1    
   244  124  125 1    
   245  124  244 1    
   246  124  245 1    
   247  125  126 1    
   248  126  246 1    
   249  126  247 1    
@<TRIPOS>SUBSTRUCTURE
     1 UNK         1 GROUP             0       ****    0 ROOT    
