@<TRIPOS>MOLECULE
3R540
247   249    1
SMALL
USER_CHARGES


@<TRIPOS>ATOM
      1 CA          6.2690  -11.0807  -51.2821 C.3       0 UNK        -0.1800 
      2 C           6.3914  -12.0020  -50.0766 C.2       0 UNK         0.5000 
      3 O           7.5040  -12.3584  -49.6884 O.2       0 UNK        -0.5000 
      4 N           5.2534  -12.3888  -49.4859 N.am      1 UNK        -0.5000 
      5 CA          5.1707  -13.2770  -48.3189 C.3       1 UNK         0.1400 
      6 C6          3.7277  -13.7867  -48.0841 C.3       23 UNK        -0.0398 
      7 S7          3.1535  -14.8942  -49.4132 S.3       23 UNK        -0.2404 
      8 C8          3.2782  -16.5039  -48.5602 C.3       23 UNK        -0.0205 
      9 C9          2.6962  -17.6975  -49.3154 C.ar      23 UNK        -0.0193 
     10 C10         1.6959  -17.5612  -50.2857 C.ar      23 UNK        -0.1150 
     11 C11         1.1302  -18.6849  -50.8942 C.ar      23 UNK        -0.0193 
     12 C12         1.5680  -19.9591  -50.5231 C.ar      23 UNK        -0.1150 
     13 C13         2.5688  -20.1168  -49.5599 C.ar      23 UNK        -0.0193 
     14 C14         3.1362  -18.9796  -48.9743 C.ar      23 UNK        -0.1150 
     15 C15         3.0188  -21.5217  -49.1638 C.3       23 UNK        -0.0205 
     16 S16         3.2887  -21.7631  -47.3696 S.3       23 UNK        -0.2404 
     17 C17         1.7375  -21.1374  -46.6342 C.3       23 UNK        -0.0398 
     18 CA          0.6918  -22.2315  -46.3212 C.3       11 UNK         0.1400 
     19 N          -0.3763  -21.7076  -45.4709 N.am      11 UNK        -0.5000 
     20 C          -1.3304  -22.4445  -44.8882 C.2       10 UNK         0.5000 
     21 O          -1.3661  -23.6747  -44.9269 O.2       10 UNK        -0.5000 
     22 CA         -2.4537  -21.6718  -44.1717 C.3       10 UNK         0.1400 
     23 CB         -2.0271  -21.2898  -42.7467 C.3       10 UNK        -0.1800 
     24 N          -2.8745  -20.4693  -44.8957 N.am      10 UNK        -0.5000 
     25 C          -3.4346  -20.4764  -46.1148 C.2       9 UNK         0.5000 
     26 O          -3.6711  -21.5009  -46.7527 O.2       9 UNK        -0.5000 
     27 CA         -3.7515  -19.1089  -46.7444 C.3       9 UNK         0.1400 
     28 CB         -4.9959  -18.4926  -46.0855 C.3       9 UNK        -0.1800 
     29 N          -2.6344  -18.1672  -46.6597 N.am      9 UNK        -0.5000 
     30 C          -1.4119  -18.3665  -47.1748 C.2       8 UNK         0.5000 
     31 O          -1.0940  -19.3666  -47.8134 O.2       8 UNK        -0.5000 
     32 CA         -0.3392  -17.3104  -46.8506 C.3       8 UNK         0.1400 
     33 CB         -0.5090  -16.0528  -47.7153 C.3       8 UNK        -0.1800 
     34 N          -0.3391  -16.9436  -45.4336 N.am      8 UNK        -0.5000 
     35 C          -0.0910  -17.7994  -44.4306 C.2       7 UNK         0.5000 
     36 O           0.2344  -18.9749  -44.5944 O.2       7 UNK        -0.5000 
     37 CA         -0.3005  -17.2662  -43.0048 C.3       7 UNK         0.1400 
     38 CB          0.9323  -16.4890  -42.5191 C.3       7 UNK        -0.1800 
     39 N          -1.4909  -16.4197  -42.9243 N.am      7 UNK        -0.5000 
     40 C          -2.7462  -16.8897  -42.9734 C.2       6 UNK         0.5000 
     41 O          -3.0215  -18.0874  -43.0462 O.2       6 UNK        -0.5000 
     42 CA         -3.8832  -15.8493  -42.9791 C.3       6 UNK         0.1400 
     43 CB         -4.2538  -15.4482  -41.5438 C.3       6 UNK        -0.1800 
     44 N          -3.5522  -14.6472  -43.7455 N.am      6 UNK        -0.5000 
     45 C          -3.3529  -14.6210  -45.0709 C.2       5 UNK         0.5000 
     46 O          -3.4910  -15.6023  -45.7981 O.2       5 UNK        -0.5000 
     47 CA         -2.8723  -13.2916  -45.6846 C.3       5 UNK         0.1400 
     48 CB         -4.0680  -12.4778  -46.2007 C.3       5 UNK        -0.1800 
     49 N          -2.0790  -12.4629  -44.7707 N.am      5 UNK        -0.5000 
     50 C          -0.9320  -12.8379  -44.1879 C.2       4 UNK         0.5000 
     51 O          -0.4292  -13.9560  -44.3283 O.2       4 UNK        -0.5000 
     52 CA         -0.2973  -11.8075  -43.2334 C.3       4 UNK         0.1400 
     53 CB         -1.0464  -11.8045  -41.8905 C.3       4 UNK        -0.1800 
     54 N           1.1208  -12.0526  -42.9675 N.am      4 UNK        -0.5000 
     55 C           2.1033  -11.9952  -43.8745 C.2       3 UNK         0.5000 
     56 O           1.9263  -11.7213  -45.0653 O.2       3 UNK        -0.5000 
     57 CA          3.5175  -12.3105  -43.3440 C.3       3 UNK         0.1400 
     58 CB          3.6774  -13.8190  -43.0930 C.3       3 UNK        -0.1800 
     59 N           4.5613  -11.8881  -44.2741 N.am      3 UNK        -0.5000 
     60 C           4.8972  -10.6281  -44.5718 C.2       2 UNK         0.5000 
     61 O           4.4590   -9.6466  -43.9699 O.2       2 UNK        -0.5000 
     62 CA          5.8594  -10.4217  -45.7628 C.3       2 UNK         0.1400 
     63 CB          7.3317  -10.5191  -45.3194 C.3       2 UNK        -0.1800 
     64 N           5.5801  -11.2883  -46.9209 N.am      2 UNK        -0.5000 
     65 C           5.6944  -12.6222  -47.0246 C.2       1 UNK         0.5000 
     66 O           6.1372  -13.3442  -46.1303 O.2       1 UNK        -0.5000 
     67 C           0.1137  -22.8630  -47.6030 C.2       11 UNK         0.5000 
     68 O           0.4034  -24.0227  -47.8950 O.2       11 UNK        -0.5000 
     69 N          -0.7204  -22.1053  -48.3266 N.am      12 UNK        -0.5000 
     70 CA         -1.3529  -22.5108  -49.5802 C.3       12 UNK         0.1400 
     71 CB         -2.0984  -21.3135  -50.1708 C.3       12 UNK        -0.1800 
     72 C          -2.2891  -23.7217  -49.4403 C.2       12 UNK         0.5000 
     73 O          -2.3415  -24.5463  -50.3544 O.2       12 UNK        -0.5000 
     74 N          -2.9710  -23.8364  -48.2920 N.am      13 UNK        -0.5000 
     75 CA         -3.7953  -24.9839  -47.9106 C.3       13 UNK         0.1400 
     76 CB         -4.4855  -24.6985  -46.5676 C.3       13 UNK        -0.1800 
     77 C          -2.9985  -26.2985  -47.8147 C.2       13 UNK         0.5000 
     78 O          -3.5337  -27.3533  -48.1533 O.2       13 UNK        -0.5000 
     79 N          -1.7390  -26.2141  -47.3699 N.am      14 UNK        -0.5000 
     80 CA         -0.8237  -27.3491  -47.2911 C.3       14 UNK         0.1400 
     81 CB          0.1832  -27.1098  -46.1548 C.3       14 UNK        -0.1800 
     82 C          -0.0966  -27.5824  -48.6262 C.2       14 UNK         0.5000 
     83 O           0.0268  -28.7286  -49.0590 O.2       14 UNK        -0.5000 
     84 N           0.3888  -26.4957  -49.2407 N.am      15 UNK        -0.5000 
     85 CA          1.2513  -26.5255  -50.4199 C.3       15 UNK         0.1400 
     86 CB          1.9477  -25.1635  -50.5696 C.3       15 UNK        -0.1800 
     87 C           0.5258  -26.8995  -51.7234 C.2       15 UNK         0.5000 
     88 O           1.0969  -27.6329  -52.5322 O.2       15 UNK        -0.5000 
     89 N          -0.6883  -26.3703  -51.9244 N.am      16 UNK        -0.5000 
     90 CA         -1.4101  -26.4506  -53.1990 C.3       16 UNK         0.1400 
     91 CB         -1.2416  -25.1063  -53.9307 C.3       16 UNK        -0.1800 
     92 C          -2.9010  -26.7972  -53.0438 C.2       16 UNK         0.5000 
     93 O          -3.5851  -26.9330  -54.0589 O.2       16 UNK        -0.5000 
     94 N          -3.3906  -26.8949  -51.7983 N.am      17 UNK        -0.5000 
     95 CA         -4.8059  -26.9929  -51.4132 C.3       17 UNK         0.1400 
     96 CB         -5.4455  -28.2992  -51.9283 C.3       17 UNK        -0.1800 
     97 C          -5.6205  -25.7326  -51.7849 C.2       17 UNK         0.5000 
     98 O          -6.8432  -25.8031  -51.9150 O.2       17 UNK        -0.5000 
     99 N          -4.9333  -24.5909  -51.9221 N.am      18 UNK        -0.5000 
    100 CA        -5.4924  -23.2948  -52.3011 C.3       18 UNK         0.1400 
    101 CB        -4.5485  -22.6253  -53.3149 C.3       18 UNK        -0.1800 
    102 C         -5.7386  -22.4447  -51.0428 C.2       18 UNK         0.5000 
    103 O         -5.2312  -21.3280  -50.9259 O.2       18 UNK        -0.5000 
    104 N         -6.5119  -23.0138  -50.1081 N.am      19 UNK        -0.5000 
    105 CA        -6.8063  -22.4633  -48.7825 C.3       19 UNK         0.1400 
    106 CB        -7.6181  -23.4991  -47.9900 C.3       19 UNK        -0.1800 
    107 C         -7.5412  -21.1098  -48.7972 C.2       19 UNK         0.5000 
    108 O         -7.4518  -20.3622  -47.8235 O.2       19 UNK        -0.5000 
    109 N         -8.2294  -20.7963  -49.9023 N.am      20 UNK        -0.5000 
    110 CA        -8.8908  -19.5186  -50.1655 C.3       20 UNK         0.1400 
    111 CB        -9.9573  -19.7349  -51.2543 C.3       20 UNK        -0.1800 
    112 C         -7.8756  -18.4140  -50.5354 C.2       20 UNK         0.5000 
    113 O         -7.9432  -17.8554  -51.6320 O.2       20 UNK        -0.5000 
    114 N         -6.9353  -18.1450  -49.6173 N.am      21 UNK        -0.5000 
    115 CA        -5.8907  -17.1148  -49.6680 C.3       21 UNK         0.1400 
    116 CB        -6.5041  -15.7331  -49.3651 C.3       21 UNK        -0.1800 
    117 C         -5.0600  -17.1363  -50.9678 C.2       21 UNK         0.5000 
    118 O         -4.8691  -16.0927  -51.5949 O.2       21 UNK        -0.5000 
    119 N         -4.6091  -18.3376  -51.3537 N.am      22 UNK        -0.5000 
    120 CA        -3.8460  -18.6296  -52.5806 C.3       22 UNK         0.1400 
    121 C         -4.7018  -18.6383  -53.8843 C.2       22 UNK         0.5000 
    122 N         -6.0190  -18.4738  -53.8340 N.am      22 UNK        -0.7600 
    123 O         -4.1639  -18.8322  -54.9709 O.2       22 UNK        -0.5000 
    124 C124       -2.5496  -17.7800  -52.7483 C.3       23 UNK        -0.0398 
    125 S125       -1.4664  -17.7892  -51.2773 S.3       23 UNK        -0.2404 
    126 C126        0.0558  -18.5169  -51.9593 C.3       23 UNK        -0.0205 
    127 H127        6.7177  -11.5482  -52.1585 H         1 UNK         0.0600 
    128 H128        6.7890  -10.1419  -51.0912 H         1 UNK         0.0600 
    129 H129        5.2286  -10.8521  -51.5142 H         1 UNK         0.0600 
    130 H130        4.3692  -12.0854  -49.8690 H         1 UNK         0.3000 
    131 H131        5.8095  -14.1419  -48.5116 H         1 UNK         0.0600 
    132 H132        3.0321  -12.9485  -48.0104 H         1 UNK         0.0800 
    133 H133        3.6495  -14.3138  -47.1309 H         1 UNK         0.0800 
    134 H134        4.3304  -16.6887  -48.3372 H         1 UNK         0.0800 
    135 H135        2.7620  -16.4383  -47.6016 H         1 UNK         0.0800 
    136 H136        1.3306  -16.5831  -50.5624 H         1 UNK         0.1150 
    137 H137        1.1268  -20.8309  -50.9850 H         1 UNK         0.1150 
    138 H138        3.9057  -19.0947  -48.2240 H         1 UNK         0.1150 
    139 H139        2.2926  -22.2609  -49.5033 H         1 UNK         0.0800 
    140 H140        3.9482  -21.7472  -49.6877 H         1 UNK         0.0800 
    141 H141        1.3047  -20.3489  -47.2489 H         1 UNK         0.0800 
    142 H142        2.0258  -20.6460  -45.7043 H         1 UNK         0.0800 
    143 H143        1.1901  -23.0245  -45.7592 H         1 UNK         0.0600 
    144 H144       -0.3971  -20.7001  -45.3447 H         1 UNK         0.3000 
    145 H145       -3.3176  -22.3360  -44.1021 H         1 UNK         0.0600 
    146 H146       -2.8468  -20.8200  -42.2029 H         1 UNK         0.0600 
    147 H147       -1.7230  -22.1706  -42.1798 H         1 UNK         0.0600 
    148 H148       -1.1872  -20.5944  -42.7509 H         1 UNK         0.0600 
    149 H149       -2.7465  -19.5830  -44.4184 H         1 UNK         0.3000 
    150 H150       -3.9662  -19.2735  -47.8022 H         1 UNK         0.0600 
    151 H151       -5.8457  -19.1723  -46.1402 H         1 UNK         0.0600 
    152 H152       -5.2899  -17.5620  -46.5689 H         1 UNK         0.0600 
    153 H153       -4.8270  -18.2747  -45.0316 H         1 UNK         0.0600 
    154 H154       -2.8251  -17.2877  -46.1856 H         1 UNK         0.3000 
    155 H155        0.6342  -17.7489  -47.0791 H         1 UNK         0.0600 
    156 H156       -0.4469  -16.3012  -48.7745 H         1 UNK         0.0600 
    157 H157        0.2706  -15.3197  -47.5071 H         1 UNK         0.0600 
    158 H158       -1.4742  -15.5755  -47.5531 H         1 UNK         0.0600 
    159 H159       -0.5791  -15.9873  -45.2016 H         1 UNK         0.3000 
    160 H160       -0.4408  -18.1226  -42.3416 H         1 UNK         0.0600 
    161 H161        1.1630  -15.6457  -43.1692 H         1 UNK         0.0600 
    162 H162        1.8124  -17.1328  -42.4990 H         1 UNK         0.0600 
    163 H163        0.7863  -16.1052  -41.5094 H         1 UNK         0.0600 
    164 H164       -1.3365  -15.4207  -42.9550 H         1 UNK         0.3000 
    165 H165       -4.7570  -16.3142  -43.4403 H         1 UNK         0.0600 
    166 H166       -5.1099  -14.7733  -41.5315 H         1 UNK         0.0600 
    167 H167       -4.5232  -16.3238  -40.9515 H         1 UNK         0.0600 
    168 H168       -3.4259  -14.9507  -41.0370 H         1 UNK         0.0600 
    169 H169       -3.4233  -13.7932  -43.2240 H         1 UNK         0.3000 
    170 H170       -2.2358  -13.5371  -46.5364 H         1 UNK         0.0600 
    171 H171       -4.6636  -13.0620  -46.9039 H         1 UNK         0.0600 
    172 H172       -4.7274  -12.1710  -45.3878 H         1 UNK         0.0600 
    173 H173       -3.7387  -11.5803  -46.7245 H         1 UNK         0.0600 
    174 H174       -2.4359  -11.5356  -44.5895 H         1 UNK         0.3000 
    175 H175       -0.3858  -10.8195  -43.6898 H         1 UNK         0.0600 
    176 H176       -0.9830  -12.7732  -41.3926 H         1 UNK         0.0600 
    177 H177       -0.6401  -11.0527  -41.2136 H         1 UNK         0.0600 
    178 H178       -2.1039  -11.5742  -42.0259 H         1 UNK         0.0600 
    179 H179        1.3524  -12.3167  -42.0215 H         1 UNK         0.3000 
    180 H180        3.6620  -11.7766  -42.4026 H         1 UNK         0.0600 
    181 H181        4.6799  -14.0564  -42.7364 H         1 UNK         0.0600 
    182 H182        3.4984  -14.3984  -44.0000 H         1 UNK         0.0600 
    183 H183        2.9762  -14.1683  -42.3347 H         1 UNK         0.0600 
    184 H184        5.0009  -12.6182  -44.8259 H         1 UNK         0.3000 
    185 H185        5.6963   -9.4028  -46.1177 H         1 UNK         0.0600 
    186 H186        7.5528   -9.7794  -44.5490 H         1 UNK         0.0600 
    187 H187        7.5724  -11.4982  -44.9050 H         1 UNK         0.0600 
    188 H188        8.0077  -10.3319  -46.1538 H         1 UNK         0.0600 
    189 H189        5.1822  -10.8092  -47.7166 H         1 UNK         0.3000 
    190 H190       -0.9039  -21.1476  -48.0286 H         1 UNK         0.3000 
    191 H191       -0.5579  -22.7887  -50.2738 H         1 UNK         0.0600 
    192 H192       -1.4242  -20.4712  -50.3047 H         1 UNK         0.0600 
    193 H193       -2.5153  -21.5515  -51.1467 H         1 UNK         0.0600 
    194 H194       -2.9146  -20.9864  -49.5256 H         1 UNK         0.0600 
    195 H195       -2.9346  -23.0654  -47.6304 H         1 UNK         0.3000 
    196 H196       -4.5642  -25.1070  -48.6753 H         1 UNK         0.0600 
    197 H197       -5.1618  -25.5101  -46.2966 H         1 UNK         0.0600 
    198 H198       -5.0749  -23.7842  -46.6023 H         1 UNK         0.0600 
    199 H199       -3.7624  -24.5916  -45.7590 H         1 UNK         0.0600 
    200 H200       -1.3625  -25.3056  -47.1300 H         1 UNK         0.3000 
    201 H201       -1.3859  -28.2541  -47.0506 H         1 UNK         0.0600 
    202 H202       -0.3257  -26.9932  -45.1978 H         1 UNK         0.0600 
    203 H203        0.7826  -26.2145  -46.3231 H         1 UNK         0.0600 
    204 H204        0.8700  -27.9516  -46.0585 H         1 UNK         0.0600 
    205 H205        0.2809  -25.5915  -48.7847 H         1 UNK         0.3000 
    206 H206        2.0255  -27.2766  -50.2485 H         1 UNK         0.0600 
    207 H207        2.5333  -24.9203  -49.6826 H         1 UNK         0.0600 
    208 H208        2.6306  -25.1634  -51.4200 H         1 UNK         0.0600 
    209 H209        1.2286  -24.3594  -50.7260 H         1 UNK         0.0600 
    210 H210       -1.0878  -25.7586  -51.2188 H         1 UNK         0.3000 
    211 H211       -0.9895  -27.2374  -53.8282 H         1 UNK         0.0600 
    212 H212       -1.6539  -24.2809  -53.3488 H         1 UNK         0.0600 
    213 H213       -1.7477  -25.1132  -54.8969 H         1 UNK         0.0600 
    214 H214       -0.1901  -24.8898  -54.1193 H         1 UNK         0.0600 
    215 H215       -2.7471  -26.7498  -51.0331 H         1 UNK         0.3000 
    216 H216       -4.8245  -27.0383  -50.3264 H         1 UNK         0.0600 
    217 H217       -6.4331  -28.4479  -51.4905 H         1 UNK         0.0600 
    218 H218       -4.8406  -29.1657  -51.6612 H         1 UNK         0.0600 
    219 H219       -5.5695  -28.2955  -53.0113 H         1 UNK         0.0600 
    220 H220       -3.9452  -24.6043  -51.6962 H         1 UNK         0.3000 
    221 H221       -6.4582  -23.4285  -52.7924 H         1 UNK         0.0600 
    222 H222       -3.5472  -22.4858  -52.9108 H         1 UNK         0.0600 
    223 H223       -4.4566  -23.2291  -54.2179 H         1 UNK         0.0600 
    224 H224       -4.9269  -21.6487  -53.6174 H         1 UNK         0.0600 
    225 H225       -6.8976  -23.9260  -50.3102 H         1 UNK         0.3000 
    226 H226       -5.8516  -22.3037  -48.2783 H         1 UNK         0.0600 
    227 H227       -7.1012  -24.4571  -47.9381 H         1 UNK         0.0600 
    228 H228       -7.7838  -23.1636  -46.9654 H         1 UNK         0.0600 
    229 H229       -8.5957  -23.6726  -48.4415 H         1 UNK         0.0600 
    230 H230       -8.2232  -21.4606  -50.6617 H         1 UNK         0.3000 
    231 H231       -9.4043  -19.1947  -49.2578 H         1 UNK         0.0600 
    232 H232       -9.5137  -20.0697  -52.1928 H         1 UNK         0.0600 
    233 H233      -10.5016  -18.8118  -51.4579 H         1 UNK         0.0600 
    234 H234      -10.6906  -20.4801  -50.9452 H         1 UNK         0.0600 
    235 H235       -6.9560  -18.7148  -48.7767 H         1 UNK         0.3000 
    236 H236       -5.1861  -17.3425  -48.8691 H         1 UNK         0.0600 
    237 H237       -7.0295  -15.7370  -48.4101 H         1 UNK         0.0600 
    238 H238       -5.7317  -14.9653  -49.3044 H         1 UNK         0.0600 
    239 H239       -7.2121  -15.4296  -50.1371 H         1 UNK         0.0600 
    240 H240       -4.8680  -19.1578  -50.8182 H         1 UNK         0.3000 
    241 H241       -3.5269  -19.6651  -52.4620 H         1 UNK         0.0600 
    242 H242       -6.4969  -18.2809  -52.9604 H         1 UNK         0.3800 
    243 H243       -6.5479  -18.4939  -54.6909 H         1 UNK         0.3800 
    244 H244       -1.9787  -18.1402  -53.6055 H         1 UNK         0.0800 
    245 H245       -2.7947  -16.7432  -52.9802 H         1 UNK         0.0800 
    246 H246        0.4388  -17.8755  -52.7542 H         1 UNK         0.0800 
    247 H247       -0.1827  -19.4773  -52.4191 H         1 UNK         0.0800 
@<TRIPOS>BOND
     1    1    2 1    
     2    1  127 1    
     3    1  128 1    
     4    1  129 1    
     5    2    3 2    
     6    2    4 am   BACKBONE|DICT|INTERRES
     7    4    5 1    
     8    4  130 1    
     9    5    6 1    
    10    5   65 1    
    11    5  131 1    
    12    6    7 1    
    13    6  132 1    
    14    6  133 1    
    15    7    8 1    
    16    8    9 1    
    17    8  134 1    
    18    8  135 1    
    19    9   10 ar   
    20    9   14 ar   
    21   10   11 ar   
    22   10  136 1    
    23   11   12 ar   
    24   11  126 1    
    25   12   13 ar   
    26   12  137 1    
    27   13   14 ar   
    28   13   15 1    
    29   14  138 1    
    30   15   16 1    
    31   15  139 1    
    32   15  140 1    
    33   16   17 1    
    34   17   18 1    
    35   17  141 1    
    36   17  142 1    
    37   18   19 1    
    38   18   67 1    
    39   18  143 1    
    40   19   20 am   BACKBONE|DICT|INTERRES
    41   19  144 1    
    42   20   21 2    
    43   20   22 1    
    44   22   23 1    
    45   22   24 1    
    46   22  145 1    
    47   23  146 1    
    48   23  147 1    
    49   23  148 1    
    50   24   25 am   BACKBONE|DICT|INTERRES
    51   24  149 1    
    52   25   26 2    
    53   25   27 1    
    54   27   28 1    
    55   27   29 1    
    56   27  150 1    
    57   28  151 1    
    58   28  152 1    
    59   28  153 1    
    60   29   30 am   BACKBONE|DICT|INTERRES
    61   29  154 1    
    62   30   31 2    
    63   30   32 1    
    64   32   33 1    
    65   32   34 1    
    66   32  155 1    
    67   33  156 1    
    68   33  157 1    
    69   33  158 1    
    70   34   35 am   BACKBONE|DICT|INTERRES
    71   34  159 1    
    72   35   36 2    
    73   35   37 1    
    74   37   38 1    
    75   37   39 1    
    76   37  160 1    
    77   38  161 1    
    78   38  162 1    
    79   38  163 1    
    80   39   40 am   BACKBONE|DICT|INTERRES
    81   39  164 1    
    82   40   41 2    
    83   40   42 1    
    84   42   43 1    
    85   42   44 1    
    86   42  165 1    
    87   43  166 1    
    88   43  167 1    
    89   43  168 1    
    90   44   45 am   BACKBONE|DICT|INTERRES
    91   44  169 1    
    92   45   46 2    
    93   45   47 1    
    94   47   48 1    
    95   47   49 1    
    96   47  170 1    
    97   48  171 1    
    98   48  172 1    
    99   48  173 1    
   100   49   50 am   BACKBONE|DICT|INTERRES
   101   49  174 1    
   102   50   51 2    
   103   50   52 1    
   104   52   53 1    
   105   52   54 1    
   106   52  175 1    
   107   53  176 1    
   108   53  177 1    
   109   53  178 1    
   110   54   55 am   BACKBONE|DICT|INTERRES
   111   54  179 1    
   112   55   56 2    
   113   55   57 1    
   114   57   58 1    
   115   57   59 1    
   116   57  180 1    
   117   58  181 1    
   118   58  182 1    
   119   58  183 1    
   120   59   60 am   BACKBONE|DICT|INTERRES
   121   59  184 1    
   122   60   61 2    
   123   60   62 1    
   124   62   63 1    
   125   62   64 1    
   126   62  185 1    
   127   63  186 1    
   128   63  187 1    
   129   63  188 1    
   130   64   65 am   BACKBONE|DICT|INTERRES
   131   64  189 1    
   132   65   66 2    
   133   67   68 2    
   134   67   69 am   BACKBONE|DICT|INTERRES
   135   69   70 1    
   136   69  190 1    
   137   70   71 1    
   138   70   72 1    
   139   70  191 1    
   140   71  192 1    
   141   71  193 1    
   142   71  194 1    
   143   72   73 2    
   144   72   74 am   BACKBONE|DICT|INTERRES
   145   74   75 1    
   146   74  195 1    
   147   75   76 1    
   148   75   77 1    
   149   75  196 1    
   150   76  197 1    
   151   76  198 1    
   152   76  199 1    
   153   77   78 2    
   154   77   79 am   BACKBONE|DICT|INTERRES
   155   79   80 1    
   156   79  200 1    
   157   80   81 1    
   158   80   82 1    
   159   80  201 1    
   160   81  202 1    
   161   81  203 1    
   162   81  204 1    
   163   82   83 2    
   164   82   84 am   BACKBONE|DICT|INTERRES
   165   84   85 1    
   166   84  205 1    
   167   85   86 1    
   168   85   87 1    
   169   85  206 1    
   170   86  207 1    
   171   86  208 1    
   172   86  209 1    
   173   87   88 2    
   174   87   89 am   BACKBONE|DICT|INTERRES
   175   89   90 1    
   176   89  210 1    
   177   90   91 1    
   178   90   92 1    
   179   90  211 1    
   180   91  212 1    
   181   91  213 1    
   182   91  214 1    
   183   92   93 2    
   184   92   94 am   BACKBONE|DICT|INTERRES
   185   94   95 1    
   186   94  215 1    
   187   95   96 1    
   188   95   97 1    
   189   95  216 1    
   190   96  217 1    
   191   96  218 1    
   192   96  219 1    
   193   97   98 2    
   194   97   99 am   BACKBONE|DICT|INTERRES
   195   99  100 1    
   196   99  220 1    
   197  100  101 1    
   198  100  102 1    
   199  100  221 1    
   200  101  222 1    
   201  101  223 1    
   202  101  224 1    
   203  102  103 2    
   204  102  104 am   BACKBONE|DICT|INTERRES
   205  104  105 1    
   206  104  225 1    
   207  105  106 1    
   208  105  107 1    
   209  105  226 1    
   210  106  227 1    
   211  106  228 1    
   212  106  229 1    
   213  107  108 2    
   214  107  109 am   BACKBONE|DICT|INTERRES
   215  109  110 1    
   216  109  230 1    
   217  110  111 1    
   218  110  112 1    
   219  110  231 1    
   220  111  232 1    
   221  111  233 1    
   222  111  234 1    
   223  112  113 2    
   224  112  114 am   BACKBONE|DICT|INTERRES
   225  114  115 1    
   226  114  235 1    
   227  115  116 1    
   228  115  117 1    
   229  115  236 1    
   230  116  237 1    
   231  116  238 1    
   232  116  239 1    
   233  117  118 2    
   234  117  119 am   BACKBONE|DICT|INTERRES
   235  119  120 1    
   236  119  240 1    
   237  120  121 1    
   238  120  124 1    
   239  120  241 1    
   240  121  122 am   BACKBONE|DICT|INTERRES
   241  121  123 2    
   242  122  242 1    
   243  122  243 1    
   244  124  125 1    
   245  124  244 1    
   246  124  245 1    
   247  125  126 1    
   248  126  246 1    
   249  126  247 1    
@<TRIPOS>SUBSTRUCTURE
     1 UNK         1 GROUP             0       ****    0 ROOT    
