@<TRIPOS>MOLECULE
3R540
247   249    1
SMALL
USER_CHARGES


@<TRIPOS>ATOM
      1 CA         -1.9709  -11.1385  -50.3768 C.3       0 UNK        -0.1800 
      2 C          -0.8250  -11.8391  -49.6605 C.2       0 UNK         0.5000 
      3 O           0.1380  -12.2571  -50.3044 O.2       0 UNK        -0.5000 
      4 N          -0.9169  -11.9636  -48.3308 N.am      1 UNK        -0.5000 
      5 CA          0.0844  -12.6041  -47.4722 C.3       1 UNK         0.1400 
      6 C6         -0.5368  -13.1758  -46.1742 C.3       23 UNK        -0.0398 
      7 S7         -1.5659  -14.6284  -46.5398 S.3       23 UNK        -0.2404 
      8 C8         -3.2570  -14.0214  -46.2993 C.3       23 UNK        -0.0205 
      9 C9         -4.1555  -14.5641  -47.3955 C.ar      23 UNK        -0.0193 
     10 C10        -4.3653  -13.8120  -48.5525 C.ar      23 UNK        -0.1150 
     11 C11        -5.1749  -14.2979  -49.5811 C.ar      23 UNK        -0.0193 
     12 C12        -5.7952  -15.5430  -49.4337 C.ar      23 UNK        -0.1150 
     13 C13        -5.5653  -16.3225  -48.2939 C.ar      23 UNK        -0.0193 
     14 C14        -4.7501  -15.8234  -47.2731 C.ar      23 UNK        -0.1150 
     15 C15        -6.1943  -17.7038  -48.1736 C.3       23 UNK        -0.0205 
     16 S16        -5.3115  -18.9433  -49.1762 S.3       23 UNK        -0.2404 
     17 C17        -3.8253  -19.2852  -48.1692 C.3       23 UNK        -0.0398 
     18 CA         -3.4721  -20.7912  -48.0889 C.3       11 UNK         0.1400 
     19 N          -2.0874  -20.9904  -47.6441 N.am      11 UNK        -0.5000 
     20 C          -1.4659  -22.1769  -47.6009 C.2       10 UNK         0.5000 
     21 O          -1.9867  -23.2428  -47.9230 O.2       10 UNK        -0.5000 
     22 CA         -0.0399  -22.2004  -47.0359 C.3       10 UNK         0.1400 
     23 CB          0.9556  -21.5110  -47.9798 C.3       10 UNK        -0.1800 
     24 N           0.0308  -21.6150  -45.6988 N.am      10 UNK        -0.5000 
     25 C          -0.6684  -22.0307  -44.6308 C.2       9 UNK         0.5000 
     26 O          -1.4056  -23.0197  -44.6280 O.2       9 UNK        -0.5000 
     27 CA         -0.5641  -21.1630  -43.3643 C.3       9 UNK         0.1400 
     28 CB          0.7099  -21.4994  -42.5759 C.3       9 UNK        -0.1800 
     29 N          -0.5916  -19.7310  -43.6628 N.am      9 UNK        -0.5000 
     30 C          -1.6019  -19.0906  -44.2694 C.2       8 UNK         0.5000 
     31 O          -2.6553  -19.6272  -44.6078 O.2       8 UNK        -0.5000 
     32 CA         -1.3666  -17.6160  -44.6169 C.3       8 UNK         0.1400 
     33 CB         -1.5333  -16.7122  -43.3849 C.3       8 UNK        -0.1800 
     34 N          -0.0438  -17.4254  -45.2083 N.am      8 UNK        -0.5000 
     35 C           0.2740  -17.7830  -46.4601 C.2       7 UNK         0.5000 
     36 O          -0.5250  -18.2836  -47.2530 O.2       7 UNK        -0.5000 
     37 CA          1.7310  -17.5473  -46.9001 C.3       7 UNK         0.1400 
     38 CB          1.8803  -16.1426  -47.5035 C.3       7 UNK        -0.1800 
     39 N           2.6997  -17.7146  -45.8139 N.am      7 UNK        -0.5000 
     40 C           2.9298  -18.8687  -45.1734 C.2       6 UNK         0.5000 
     41 O           2.3648  -19.9267  -45.4469 O.2       6 UNK        -0.5000 
     42 CA          3.9064  -18.8188  -43.9846 C.3       6 UNK         0.1400 
     43 CB          5.3637  -18.8270  -44.4702 C.3       6 UNK        -0.1800 
     44 N           3.6889  -17.6738  -43.0944 N.am      6 UNK        -0.5000 
     45 C           2.5439  -17.4067  -42.4488 C.2       5 UNK         0.5000 
     46 O           1.5224  -18.0796  -42.5812 O.2       5 UNK        -0.5000 
     47 CA          2.5138  -16.1920  -41.4993 C.3       5 UNK         0.1400 
     48 CB          2.2921  -16.6602  -40.0527 C.3       5 UNK        -0.1800 
     49 N           3.7397  -15.3882  -41.5415 N.am      5 UNK        -0.5000 
     50 C           4.0535  -14.3995  -42.3906 C.2       4 UNK         0.5000 
     51 O           5.1343  -13.8147  -42.3056 O.2       4 UNK        -0.5000 
     52 CA          3.0438  -13.9497  -43.4749 C.3       4 UNK         0.1400 
     53 CB          2.1540  -12.8185  -42.9364 C.3       4 UNK        -0.1800 
     54 N           3.7336  -13.4807  -44.6776 N.am      4 UNK        -0.5000 
     55 C           4.4439  -14.2736  -45.4898 C.2       3 UNK         0.5000 
     56 O           4.4533  -15.5013  -45.3847 O.2       3 UNK        -0.5000 
     57 CA          5.2382  -13.5792  -46.6112 C.3       3 UNK         0.1400 
     58 CB          5.8814  -14.5776  -47.5913 C.3       3 UNK        -0.1800 
     59 N           4.3606  -12.6798  -47.3566 N.am      3 UNK        -0.5000 
     60 C           4.4003  -11.3411  -47.3290 C.2       2 UNK         0.5000 
     61 O           5.2282  -10.6906  -46.6910 O.2       2 UNK        -0.5000 
     62 CA          3.3057  -10.6059  -48.1297 C.3       2 UNK         0.1400 
     63 CB          3.7994  -10.2800  -49.5472 C.3       2 UNK        -0.1800 
     64 N           2.0617  -11.3750  -48.2207 N.am      2 UNK        -0.5000 
     65 C           1.2536  -11.6417  -47.1868 C.2       1 UNK         0.5000 
     66 O           1.4134  -11.1698  -46.0604 O.2       1 UNK        -0.5000 
     67 C          -4.4873  -21.5775  -47.2282 C.2       11 UNK         0.5000 
     68 O          -5.4164  -22.1734  -47.7752 O.2       11 UNK        -0.5000 
     69 N          -4.2782  -21.5826  -45.9039 N.am      12 UNK        -0.5000 
     70 CA         -5.1359  -22.2497  -44.9294 C.3       12 UNK         0.1400 
     71 CB         -4.7389  -21.8291  -43.5058 C.3       12 UNK        -0.1800 
     72 C          -5.1501  -23.7820  -45.0586 C.2       12 UNK         0.5000 
     73 O          -6.2382  -24.3571  -45.1240 O.2       12 UNK        -0.5000 
     74 N          -3.9700  -24.4219  -45.0660 N.am      13 UNK        -0.5000 
     75 CA         -3.8782  -25.8848  -45.0108 C.3       13 UNK         0.1400 
     76 CB         -4.1702  -26.3771  -43.5786 C.3       13 UNK        -0.1800 
     77 C          -2.5474  -26.4773  -45.4964 C.2       13 UNK         0.5000 
     78 O          -2.5592  -27.6114  -45.9771 O.2       13 UNK        -0.5000 
     79 N          -1.4225  -25.7609  -45.3447 N.am      14 UNK        -0.5000 
     80 CA         -0.0850  -26.3144  -45.6066 C.3       14 UNK         0.1400 
     81 CB          0.9877  -25.4584  -44.9140 C.3       14 UNK        -0.1800 
     82 C           0.2263  -26.5323  -47.1026 C.2       14 UNK         0.5000 
     83 O           1.1101  -27.3275  -47.4245 O.2       14 UNK        -0.5000 
     84 N          -0.5229  -25.8574  -47.9802 N.am      15 UNK        -0.5000 
     85 CA         -0.5595  -26.0906  -49.4245 C.3       15 UNK         0.1400 
     86 CB          0.2041  -24.9690  -50.1446 C.3       15 UNK        -0.1800 
     87 C          -2.0140  -26.1803  -49.9228 C.2       15 UNK         0.5000 
     88 O          -2.2850  -26.9499  -50.8442 O.2       15 UNK        -0.5000 
     89 N          -2.9075  -25.4128  -49.2799 N.am      16 UNK        -0.5000 
     90 CA         -4.3251  -25.1815  -49.5563 C.3       16 UNK         0.1400 
     91 CB         -5.1096  -26.4889  -49.7834 C.3       16 UNK        -0.1800 
     92 C          -4.5250  -24.1773  -50.7036 C.2       16 UNK         0.5000 
     93 O          -3.6413  -23.9944  -51.5458 O.2       16 UNK        -0.5000 
     94 N          -5.7109  -23.5545  -50.7193 N.am      17 UNK        -0.5000 
     95 CA         -6.1186  -22.4874  -51.6402 C.3       17 UNK         0.1400 
     96 CB         -7.5225  -22.0049  -51.2465 C.3       17 UNK        -0.1800 
     97 C          -6.0752  -22.8633  -53.1355 C.2       17 UNK         0.5000 
     98 O          -5.9828  -21.9762  -53.9833 O.2       17 UNK        -0.5000 
     99 N          -6.1334  -24.1676  -53.4347 N.am      18 UNK        -0.5000 
    100 CA        -5.9917  -24.7243  -54.7792 C.3       18 UNK         0.1400 
    101 CB        -6.4519  -26.1901  -54.7567 C.3       18 UNK        -0.1800 
    102 C         -4.5576  -24.6209  -55.3389 C.2       18 UNK         0.5000 
    103 O         -4.3958  -24.6141  -56.5601 O.2       18 UNK        -0.5000 
    104 N         -3.5526  -24.5553  -54.4544 N.am      19 UNK        -0.5000 
    105 CA        -2.1366  -24.4635  -54.8069 C.3       19 UNK         0.1400 
    106 CB        -1.3568  -25.5586  -54.0624 C.3       19 UNK        -0.1800 
    107 C         -1.5830  -23.0722  -54.4686 C.2       19 UNK         0.5000 
    108 O         -1.0037  -22.4196  -55.3378 O.2       19 UNK        -0.5000 
    109 N         -1.7831  -22.6353  -53.2204 N.am      20 UNK        -0.5000 
    110 CA        -1.3824  -21.3273  -52.7179 C.3       20 UNK         0.1400 
    111 CB        -0.8025  -21.4924  -51.3035 C.3       20 UNK        -0.1800 
    112 C         -2.6173  -20.4214  -52.7305 C.2       20 UNK         0.5000 
    113 O         -3.3329  -20.3603  -51.7329 O.2       20 UNK        -0.5000 
    114 N         -2.8649  -19.7725  -53.8778 N.am      21 UNK        -0.5000 
    115 CA        -4.0352  -18.9244  -54.1396 C.3       21 UNK         0.1400 
    116 CB        -3.9491  -18.3710  -55.5702 C.3       21 UNK        -0.1800 
    117 C         -4.2293  -17.7818  -53.1234 C.2       21 UNK         0.5000 
    118 O         -5.3687  -17.4788  -52.7687 O.2       21 UNK        -0.5000 
    119 N         -3.1112  -17.2184  -52.6533 N.am      22 UNK        -0.5000 
    120 CA        -3.0140  -16.3752  -51.4588 C.3       22 UNK         0.1400 
    121 C         -1.7770  -16.7971  -50.6267 C.2       22 UNK         0.5000 
    122 N         -1.7779  -16.5099  -49.3343 N.am      22 UNK        -0.7600 
    123 O         -0.8224  -17.3831  -51.1351 O.2       22 UNK        -0.5000 
    124 C124       -3.0073  -14.8546  -51.7761 C.3       23 UNK        -0.0398 
    125 S125       -4.6396  -14.2555  -52.3401 S.3       23 UNK        -0.2404 
    126 C126       -5.3557  -13.4746  -50.8511 C.3       23 UNK        -0.0205 
    127 H127       -2.7643  -10.8480  -49.6881 H         1 UNK         0.0600 
    128 H128       -2.3999  -11.7951  -51.1334 H         1 UNK         0.0600 
    129 H129       -1.6066  -10.2395  -50.8738 H         1 UNK         0.0600 
    130 H130       -1.7104  -11.5656  -47.8508 H         1 UNK         0.3000 
    131 H131        0.5152  -13.4470  -48.0176 H         1 UNK         0.0600 
    132 H132       -1.1029  -12.4181  -45.6305 H         1 UNK         0.0800 
    133 H133        0.2439  -13.5204  -45.4946 H         1 UNK         0.0800 
    134 H134       -3.2814  -12.9311  -46.3049 H         1 UNK         0.0800 
    135 H135       -3.6181  -14.3354  -45.3189 H         1 UNK         0.0800 
    136 H136       -3.8860  -12.8494  -48.6554 H         1 UNK         0.1150 
    137 H137       -6.4159  -15.9283  -50.2311 H         1 UNK         0.1150 
    138 H138       -4.5690  -16.4166  -46.3877 H         1 UNK         0.1150 
    139 H139       -6.2334  -18.0283  -47.1327 H         1 UNK         0.0800 
    140 H140       -7.2294  -17.6545  -48.5144 H         1 UNK         0.0800 
    141 H141       -3.9269  -18.8544  -47.1718 H         1 UNK         0.0800 
    142 H142       -3.0019  -18.7530  -48.6417 H         1 UNK         0.0800 
    143 H143       -3.5273  -21.2018  -49.0998 H         1 UNK         0.0600 
    144 H144       -1.5822  -20.1613  -47.3514 H         1 UNK         0.3000 
    145 H145        0.2586  -23.2446  -46.9624 H         1 UNK         0.0600 
    146 H146        1.9740  -21.5833  -47.5982 H         1 UNK         0.0600 
    147 H147        0.9484  -21.9812  -48.9629 H         1 UNK         0.0600 
    148 H148        0.7244  -20.4560  -48.1197 H         1 UNK         0.0600 
    149 H149        0.6682  -20.8316  -45.5845 H         1 UNK         0.3000 
    150 H150       -1.4258  -21.3876  -42.7334 H         1 UNK         0.0600 
    151 H151        0.7408  -22.5586  -42.3171 H         1 UNK         0.0600 
    152 H152        0.7575  -20.9339  -41.6451 H         1 UNK         0.0600 
    153 H153        1.6101  -21.2742  -43.1484 H         1 UNK         0.0600 
    154 H154        0.2308  -19.1948  -43.3978 H         1 UNK         0.3000 
    155 H155       -2.1206  -17.3241  -45.3512 H         1 UNK         0.0600 
    156 H156       -2.5439  -16.7929  -42.9829 H         1 UNK         0.0600 
    157 H157       -1.3684  -15.6649  -43.6376 H         1 UNK         0.0600 
    158 H158       -0.8434  -16.9756  -42.5839 H         1 UNK         0.0600 
    159 H159        0.6845  -17.0833  -44.6006 H         1 UNK         0.3000 
    160 H160        1.9640  -18.2800  -47.6752 H         1 UNK         0.0600 
    161 H161        1.1656  -15.9836  -48.3123 H         1 UNK         0.0600 
    162 H162        2.8765  -15.9992  -47.9200 H         1 UNK         0.0600 
    163 H163        1.7121  -15.3663  -46.7565 H         1 UNK         0.0600 
    164 H164        3.2569  -16.9014  -45.5597 H         1 UNK         0.3000 
    165 H165        3.7441  -19.7229  -43.3942 H         1 UNK         0.0600 
    166 H166        6.0581  -18.8933  -43.6326 H         1 UNK         0.0600 
    167 H167        5.5539  -19.6840  -45.1176 H         1 UNK         0.0600 
    168 H168        5.6070  -17.9279  -45.0371 H         1 UNK         0.0600 
    169 H169        4.4756  -17.0566  -42.9550 H         1 UNK         0.3000 
    170 H170        1.6547  -15.5789  -41.7747 H         1 UNK         0.0600 
    171 H171        1.3665  -17.2306  -39.9612 H         1 UNK         0.0600 
    172 H172        3.1058  -17.2984  -39.7057 H         1 UNK         0.0600 
    173 H173        2.2160  -15.8127  -39.3712 H         1 UNK         0.0600 
    174 H174        4.4266  -15.6327  -40.8431 H         1 UNK         0.3000 
    175 H175        2.4095  -14.7841  -43.7750 H         1 UNK         0.0600 
    176 H176        2.7421  -11.9413  -42.6634 H         1 UNK         0.0600 
    177 H177        1.4156  -12.5063  -43.6735 H         1 UNK         0.0600 
    178 H178        1.6078  -13.1346  -42.0471 H         1 UNK         0.0600 
    179 H179        3.7702  -12.4816  -44.8195 H         1 UNK         0.3000 
    180 H180        6.0429  -13.0214  -46.1282 H         1 UNK         0.0600 
    181 H181        5.1340  -15.1870  -48.0994 H         1 UNK         0.0600 
    182 H182        6.5605  -15.2547  -47.0716 H         1 UNK         0.0600 
    183 H183        6.4630  -14.0588  -48.3533 H         1 UNK         0.0600 
    184 H184        3.6275  -13.1188  -47.8936 H         1 UNK         0.3000 
    185 H185        3.0912   -9.6664  -47.6159 H         1 UNK         0.0600 
    186 H186        4.7134   -9.6854  -49.5154 H         1 UNK         0.0600 
    187 H187        4.0153  -11.1849  -50.1167 H         1 UNK         0.0600 
    188 H188        3.0571   -9.7043  -50.1004 H         1 UNK         0.0600 
    189 H189        1.8087  -11.7458  -49.1306 H         1 UNK         0.3000 
    190 H190       -3.5149  -21.0279  -45.5245 H         1 UNK         0.3000 
    191 H191       -6.1554  -21.8987  -45.1026 H         1 UNK         0.0600 
    192 H192       -3.7064  -22.0951  -43.2799 H         1 UNK         0.0600 
    193 H193       -5.3728  -22.3147  -42.7629 H         1 UNK         0.0600 
    194 H194       -4.8457  -20.7531  -43.3685 H         1 UNK         0.0600 
    195 H195       -3.1079  -23.8862  -45.0226 H         1 UNK         0.3000 
    196 H196       -4.6399  -26.2989  -45.6757 H         1 UNK         0.0600 
    197 H197       -4.0739  -27.4614  -43.5063 H         1 UNK         0.0600 
    198 H198       -5.1836  -26.1271  -43.2652 H         1 UNK         0.0600 
    199 H199       -3.4792  -25.9372  -42.8585 H         1 UNK         0.0600 
    200 H200       -1.4576  -24.8198  -44.9608 H         1 UNK         0.3000 
    201 H201       -0.0451  -27.3018  -45.1410 H         1 UNK         0.0600 
    202 H202        0.7987  -25.3840  -43.8430 H         1 UNK         0.0600 
    203 H203        1.0363  -24.4483  -45.3116 H         1 UNK         0.0600 
    204 H204        1.9765  -25.9017  -45.0372 H         1 UNK         0.0600 
    205 H205       -1.2190  -25.2227  -47.6126 H         1 UNK         0.3000 
    206 H206       -0.0818  -27.0434  -49.6622 H         1 UNK         0.0600 
    207 H207        1.2458  -24.9336  -49.8259 H         1 UNK         0.0600 
    208 H208        0.1970  -25.1178  -51.2246 H         1 UNK         0.0600 
    209 H209       -0.2408  -23.9964  -49.9425 H         1 UNK         0.0600 
    210 H210       -2.5246  -24.7069  -48.6535 H         1 UNK         0.3000 
    211 H211       -4.7145  -24.7160  -48.6495 H         1 UNK         0.0600 
    212 H212       -4.8737  -26.9467  -50.7444 H         1 UNK         0.0600 
    213 H213       -6.1841  -26.3041  -49.7717 H         1 UNK         0.0600 
    214 H214       -4.8980  -27.2174  -49.0005 H         1 UNK         0.0600 
    215 H215       -6.3617  -23.7533  -49.9730 H         1 UNK         0.3000 
    216 H216       -5.4328  -21.6552  -51.4937 H         1 UNK         0.0600 
    217 H217       -7.8487  -21.1856  -51.8888 H         1 UNK         0.0600 
    218 H218       -7.5367  -21.6344  -50.2210 H         1 UNK         0.0600 
    219 H219       -8.2608  -22.8034  -51.3290 H         1 UNK         0.0600 
    220 H220       -6.2179  -24.8264  -52.6751 H         1 UNK         0.3000 
    221 H221       -6.6495  -24.1690  -55.4512 H         1 UNK         0.0600 
    222 H222       -5.8385  -26.7940  -54.0866 H         1 UNK         0.0600 
    223 H223       -7.4890  -26.2737  -54.4310 H         1 UNK         0.0600 
    224 H224       -6.3881  -26.6352  -55.7506 H         1 UNK         0.0600 
    225 H225       -3.7717  -24.5127  -53.4644 H         1 UNK         0.3000 
    226 H226       -1.9924  -24.6246  -55.8772 H         1 UNK         0.0600 
    227 H227       -1.6984  -26.5515  -54.3550 H         1 UNK         0.0600 
    228 H228       -0.2903  -25.5013  -54.2836 H         1 UNK         0.0600 
    229 H229       -1.4752  -25.4729  -52.9826 H         1 UNK         0.0600 
    230 H230       -2.3462  -23.1950  -52.5830 H         1 UNK         0.3000 
    231 H231       -0.6107  -20.8793  -53.3473 H         1 UNK         0.0600 
    232 H232        0.1258  -22.0621  -51.3301 H         1 UNK         0.0600 
    233 H233       -1.4986  -22.0086  -50.6412 H         1 UNK         0.0600 
    234 H234       -0.5788  -20.5231  -50.8552 H         1 UNK         0.0600 
    235 H235       -2.2349  -19.9160  -54.6542 H         1 UNK         0.3000 
    236 H236       -4.9175  -19.5626  -54.0756 H         1 UNK         0.0600 
    237 H237       -4.8160  -17.7504  -55.8009 H         1 UNK         0.0600 
    238 H238       -3.0589  -17.7569  -55.7111 H         1 UNK         0.0600 
    239 H239       -3.9233  -19.1766  -56.3041 H         1 UNK         0.0600 
    240 H240       -2.2228  -17.5825  -52.9695 H         1 UNK         0.3000 
    241 H241       -3.8702  -16.6069  -50.8283 H         1 UNK         0.0600 
    242 H242       -1.0307  -16.8676  -48.7562 H         1 UNK         0.3800 
    243 H243       -2.5436  -16.0204  -48.8970 H         1 UNK         0.3800 
    244 H244       -2.7040  -14.2724  -50.9050 H         1 UNK         0.0800 
    245 H245       -2.2699  -14.6347  -52.5492 H         1 UNK         0.0800 
    246 H246       -6.4208  -13.3105  -51.0191 H         1 UNK         0.0800 
    247 H247       -4.9126  -12.4847  -50.7333 H         1 UNK         0.0800 
@<TRIPOS>BOND
     1    1    2 1    
     2    1  127 1    
     3    1  128 1    
     4    1  129 1    
     5    2    3 2    
     6    2    4 am   BACKBONE|DICT|INTERRES
     7    4    5 1    
     8    4  130 1    
     9    5    6 1    
    10    5   65 1    
    11    5  131 1    
    12    6    7 1    
    13    6  132 1    
    14    6  133 1    
    15    7    8 1    
    16    8    9 1    
    17    8  134 1    
    18    8  135 1    
    19    9   10 ar   
    20    9   14 ar   
    21   10   11 ar   
    22   10  136 1    
    23   11   12 ar   
    24   11  126 1    
    25   12   13 ar   
    26   12  137 1    
    27   13   14 ar   
    28   13   15 1    
    29   14  138 1    
    30   15   16 1    
    31   15  139 1    
    32   15  140 1    
    33   16   17 1    
    34   17   18 1    
    35   17  141 1    
    36   17  142 1    
    37   18   19 1    
    38   18   67 1    
    39   18  143 1    
    40   19   20 am   BACKBONE|DICT|INTERRES
    41   19  144 1    
    42   20   21 2    
    43   20   22 1    
    44   22   23 1    
    45   22   24 1    
    46   22  145 1    
    47   23  146 1    
    48   23  147 1    
    49   23  148 1    
    50   24   25 am   BACKBONE|DICT|INTERRES
    51   24  149 1    
    52   25   26 2    
    53   25   27 1    
    54   27   28 1    
    55   27   29 1    
    56   27  150 1    
    57   28  151 1    
    58   28  152 1    
    59   28  153 1    
    60   29   30 am   BACKBONE|DICT|INTERRES
    61   29  154 1    
    62   30   31 2    
    63   30   32 1    
    64   32   33 1    
    65   32   34 1    
    66   32  155 1    
    67   33  156 1    
    68   33  157 1    
    69   33  158 1    
    70   34   35 am   BACKBONE|DICT|INTERRES
    71   34  159 1    
    72   35   36 2    
    73   35   37 1    
    74   37   38 1    
    75   37   39 1    
    76   37  160 1    
    77   38  161 1    
    78   38  162 1    
    79   38  163 1    
    80   39   40 am   BACKBONE|DICT|INTERRES
    81   39  164 1    
    82   40   41 2    
    83   40   42 1    
    84   42   43 1    
    85   42   44 1    
    86   42  165 1    
    87   43  166 1    
    88   43  167 1    
    89   43  168 1    
    90   44   45 am   BACKBONE|DICT|INTERRES
    91   44  169 1    
    92   45   46 2    
    93   45   47 1    
    94   47   48 1    
    95   47   49 1    
    96   47  170 1    
    97   48  171 1    
    98   48  172 1    
    99   48  173 1    
   100   49   50 am   BACKBONE|DICT|INTERRES
   101   49  174 1    
   102   50   51 2    
   103   50   52 1    
   104   52   53 1    
   105   52   54 1    
   106   52  175 1    
   107   53  176 1    
   108   53  177 1    
   109   53  178 1    
   110   54   55 am   BACKBONE|DICT|INTERRES
   111   54  179 1    
   112   55   56 2    
   113   55   57 1    
   114   57   58 1    
   115   57   59 1    
   116   57  180 1    
   117   58  181 1    
   118   58  182 1    
   119   58  183 1    
   120   59   60 am   BACKBONE|DICT|INTERRES
   121   59  184 1    
   122   60   61 2    
   123   60   62 1    
   124   62   63 1    
   125   62   64 1    
   126   62  185 1    
   127   63  186 1    
   128   63  187 1    
   129   63  188 1    
   130   64   65 am   BACKBONE|DICT|INTERRES
   131   64  189 1    
   132   65   66 2    
   133   67   68 2    
   134   67   69 am   BACKBONE|DICT|INTERRES
   135   69   70 1    
   136   69  190 1    
   137   70   71 1    
   138   70   72 1    
   139   70  191 1    
   140   71  192 1    
   141   71  193 1    
   142   71  194 1    
   143   72   73 2    
   144   72   74 am   BACKBONE|DICT|INTERRES
   145   74   75 1    
   146   74  195 1    
   147   75   76 1    
   148   75   77 1    
   149   75  196 1    
   150   76  197 1    
   151   76  198 1    
   152   76  199 1    
   153   77   78 2    
   154   77   79 am   BACKBONE|DICT|INTERRES
   155   79   80 1    
   156   79  200 1    
   157   80   81 1    
   158   80   82 1    
   159   80  201 1    
   160   81  202 1    
   161   81  203 1    
   162   81  204 1    
   163   82   83 2    
   164   82   84 am   BACKBONE|DICT|INTERRES
   165   84   85 1    
   166   84  205 1    
   167   85   86 1    
   168   85   87 1    
   169   85  206 1    
   170   86  207 1    
   171   86  208 1    
   172   86  209 1    
   173   87   88 2    
   174   87   89 am   BACKBONE|DICT|INTERRES
   175   89   90 1    
   176   89  210 1    
   177   90   91 1    
   178   90   92 1    
   179   90  211 1    
   180   91  212 1    
   181   91  213 1    
   182   91  214 1    
   183   92   93 2    
   184   92   94 am   BACKBONE|DICT|INTERRES
   185   94   95 1    
   186   94  215 1    
   187   95   96 1    
   188   95   97 1    
   189   95  216 1    
   190   96  217 1    
   191   96  218 1    
   192   96  219 1    
   193   97   98 2    
   194   97   99 am   BACKBONE|DICT|INTERRES
   195   99  100 1    
   196   99  220 1    
   197  100  101 1    
   198  100  102 1    
   199  100  221 1    
   200  101  222 1    
   201  101  223 1    
   202  101  224 1    
   203  102  103 2    
   204  102  104 am   BACKBONE|DICT|INTERRES
   205  104  105 1    
   206  104  225 1    
   207  105  106 1    
   208  105  107 1    
   209  105  226 1    
   210  106  227 1    
   211  106  228 1    
   212  106  229 1    
   213  107  108 2    
   214  107  109 am   BACKBONE|DICT|INTERRES
   215  109  110 1    
   216  109  230 1    
   217  110  111 1    
   218  110  112 1    
   219  110  231 1    
   220  111  232 1    
   221  111  233 1    
   222  111  234 1    
   223  112  113 2    
   224  112  114 am   BACKBONE|DICT|INTERRES
   225  114  115 1    
   226  114  235 1    
   227  115  116 1    
   228  115  117 1    
   229  115  236 1    
   230  116  237 1    
   231  116  238 1    
   232  116  239 1    
   233  117  118 2    
   234  117  119 am   BACKBONE|DICT|INTERRES
   235  119  120 1    
   236  119  240 1    
   237  120  121 1    
   238  120  124 1    
   239  120  241 1    
   240  121  122 am   BACKBONE|DICT|INTERRES
   241  121  123 2    
   242  122  242 1    
   243  122  243 1    
   244  124  125 1    
   245  124  244 1    
   246  124  245 1    
   247  125  126 1    
   248  126  246 1    
   249  126  247 1    
@<TRIPOS>SUBSTRUCTURE
     1 UNK         1 GROUP             0       ****    0 ROOT    
