@<TRIPOS>MOLECULE
3R540
247   249    1
SMALL
USER_CHARGES


@<TRIPOS>ATOM
      1 CA         -2.7638  -15.3474  -50.6294 C.3       0 UNK        -0.1800 
      2 C          -1.5017  -15.5665  -49.8073 C.2       0 UNK         0.5000 
      3 O          -1.2142  -16.6995  -49.4289 O.2       0 UNK        -0.5000 
      4 N          -0.7722  -14.4801  -49.5102 N.am      1 UNK        -0.5000 
      5 CA          0.4917  -14.4252  -48.7500 C.3       1 UNK         0.1400 
      6 C6          1.6221  -15.3155  -49.3360 C.3       23 UNK        -0.0398 
      7 S7          2.0030  -14.9877  -51.0932 S.3       23 UNK        -0.2404 
      8 C8          3.2989  -16.2313  -51.4251 C.3       23 UNK        -0.0205 
      9 C9          2.7652  -17.6500  -51.2902 C.ar      23 UNK        -0.0193 
     10 C10         2.1065  -18.2641  -52.3573 C.ar      23 UNK        -0.1150 
     11 C11         1.5197  -19.5241  -52.1990 C.ar      23 UNK        -0.0193 
     12 C12         1.6057  -20.1741  -50.9627 C.ar      23 UNK        -0.1150 
     13 C13         2.2840  -19.5767  -49.8938 C.ar      23 UNK        -0.0193 
     14 C14         2.8814  -18.3275  -50.0750 C.ar      23 UNK        -0.1150 
     15 C15         2.2795  -20.1935  -48.5032 C.3       23 UNK        -0.0205 
     16 S16         2.7009  -21.9654  -48.4505 S.3       23 UNK        -0.2404 
     17 C17         2.4587  -22.2734  -46.6581 C.3       23 UNK        -0.0398 
     18 CA          1.1152  -22.9118  -46.1910 C.3       11 UNK         0.1400 
     19 N           0.8281  -22.5819  -44.7902 N.am      11 UNK        -0.5000 
     20 C          -0.1532  -23.1213  -44.0519 C.2       10 UNK         0.5000 
     21 O          -0.8920  -24.0235  -44.4465 O.2       10 UNK        -0.5000 
     22 CA         -0.3847  -22.5074  -42.6586 C.3       10 UNK         0.1400 
     23 CB          0.6389  -23.0392  -41.6446 C.3       10 UNK        -0.1800 
     24 N          -0.3456  -21.0438  -42.6799 N.am      10 UNK        -0.5000 
     25 C          -1.2172  -20.2729  -43.3463 C.2       9 UNK         0.5000 
     26 O          -2.1852  -20.7166  -43.9630 O.2       9 UNK        -0.5000 
     27 CA         -0.9342  -18.7592  -43.3757 C.3       9 UNK         0.1400 
     28 CB         -1.4401  -18.0781  -42.0966 C.3       9 UNK        -0.1800 
     29 N           0.4820  -18.4495  -43.5794 N.am      9 UNK        -0.5000 
     30 C           1.1779  -18.7821  -44.6763 C.2       8 UNK         0.5000 
     31 O           0.6837  -19.3368  -45.6535 O.2       8 UNK        -0.5000 
     32 CA          2.6903  -18.5134  -44.6593 C.3       8 UNK         0.1400 
     33 CB          2.9996  -17.0688  -45.0664 C.3       8 UNK        -0.1800 
     34 N           3.2725  -18.8108  -43.3529 N.am      8 UNK        -0.5000 
     35 C           3.4125  -20.0517  -42.8641 C.2       7 UNK         0.5000 
     36 O           3.1088  -21.0698  -43.4874 O.2       7 UNK        -0.5000 
     37 CA          3.9344  -20.1670  -41.4205 C.3       7 UNK         0.1400 
     38 CB          5.4684  -20.1017  -41.3914 C.3       7 UNK        -0.1800 
     39 N           3.3858  -19.1282  -40.5465 N.am      7 UNK        -0.5000 
     40 C           2.0939  -19.0405  -40.1993 C.2       6 UNK         0.5000 
     41 O           1.2408  -19.8588  -40.5407 O.2       6 UNK        -0.5000 
     42 CA          1.6778  -17.8097  -39.3719 C.3       6 UNK         0.1400 
     43 CB          1.8350  -18.0914  -37.8705 C.3       6 UNK        -0.1800 
     44 N           2.4212  -16.5946  -39.7187 N.am      6 UNK        -0.5000 
     45 C           2.3845  -15.9918  -40.9143 C.2       5 UNK         0.5000 
     46 O           1.7307  -16.4119  -41.8707 O.2       5 UNK        -0.5000 
     47 CA          3.2428  -14.7253  -41.0720 C.3       5 UNK         0.1400 
     48 CB          4.1533  -14.8104  -42.3070 C.3       5 UNK        -0.1800 
     49 N           2.4113  -13.5308  -41.1769 N.am      5 UNK        -0.5000 
     50 C           1.7592  -12.9506  -40.1650 C.2       4 UNK         0.5000 
     51 O           1.7835  -13.3784  -39.0100 O.2       4 UNK        -0.5000 
     52 CA          0.9669  -11.6633  -40.4735 C.3       4 UNK         0.1400 
     53 CB          1.9084  -10.4473  -40.5695 C.3       4 UNK        -0.1800 
     54 N           0.0671  -11.7287  -41.6342 N.am      4 UNK        -0.5000 
     55 C           0.3604  -11.8778  -42.9334 C.2       3 UNK         0.5000 
     56 O           1.4989  -12.0425  -43.3778 O.2       3 UNK        -0.5000 
     57 CA         -0.8324  -11.8033  -43.9063 C.3       3 UNK         0.1400 
     58 CB         -0.7404  -10.5467  -44.7860 C.3       3 UNK        -0.1800 
     59 N          -0.9217  -12.9818  -44.7659 N.am      3 UNK        -0.5000 
     60 C          -1.1579  -14.2286  -44.3381 C.2       2 UNK         0.5000 
     61 O          -1.3566  -14.5080  -43.1556 O.2       2 UNK        -0.5000 
     62 CA         -1.2335  -15.3494  -45.3965 C.3       2 UNK         0.1400 
     63 CB         -2.6366  -15.9787  -45.4148 C.3       2 UNK        -0.1800 
     64 N          -0.9056  -14.9337  -46.7636 N.am      2 UNK        -0.5000 
     65 C           0.3258  -14.6921  -47.2322 C.2       1 UNK         0.5000 
     66 O           1.3181  -14.6572  -46.5066 O.2       1 UNK        -0.5000 
     67 C          -0.1016  -22.6029  -47.0934 C.2       11 UNK         0.5000 
     68 O          -0.5066  -23.4639  -47.8715 O.2       11 UNK        -0.5000 
     69 N          -0.6882  -21.4078  -46.9411 N.am      12 UNK        -0.5000 
     70 CA         -1.8525  -20.9398  -47.6921 C.3       12 UNK         0.1400 
     71 CB         -2.1211  -19.4677  -47.3461 C.3       12 UNK        -0.1800 
     72 C          -3.1069  -21.7965  -47.4514 C.2       12 UNK         0.5000 
     73 O          -3.8370  -22.0824  -48.4012 O.2       12 UNK        -0.5000 
     74 N          -3.3160  -22.2189  -46.1976 N.am      13 UNK        -0.5000 
     75 CA         -4.3790  -23.1398  -45.8009 C.3       13 UNK         0.1400 
     76 CB         -4.4714  -23.1900  -44.2683 C.3       13 UNK        -0.1800 
     77 C          -4.1836  -24.5498  -46.3874 C.2       13 UNK         0.5000 
     78 O          -5.1459  -25.1329  -46.8869 O.2       13 UNK        -0.5000 
     79 N          -2.9447  -25.0604  -46.3391 N.am      14 UNK        -0.5000 
     80 CA         -2.5626  -26.3659  -46.8813 C.3       14 UNK         0.1400 
     81 CB         -1.1545  -26.7340  -46.3889 C.3       14 UNK        -0.1800 
     82 C          -2.6363  -26.4234  -48.4186 C.2       14 UNK         0.5000 
     83 O          -3.1223  -27.4131  -48.9673 O.2       14 UNK        -0.5000 
     84 N          -2.1671  -25.3590  -49.0828 N.am      15 UNK        -0.5000 
     85 CA         -2.1930  -25.1999  -50.5375 C.3       15 UNK         0.1400 
     86 CB         -1.2467  -24.0541  -50.9351 C.3       15 UNK        -0.1800 
     87 C          -3.6008  -24.9282  -51.0969 C.2       15 UNK         0.5000 
     88 O          -3.8326  -25.1985  -52.2747 O.2       15 UNK        -0.5000 
     89 N          -4.4913  -24.3846  -50.2524 N.am      16 UNK        -0.5000 
     90 CA         -5.8085  -23.8330  -50.5763 C.3       16 UNK         0.1400 
     91 CB         -6.7603  -24.9087  -51.1407 C.3       16 UNK        -0.1800 
     92 C          -5.6528  -22.6090  -51.4960 C.2       16 UNK         0.5000 
     93 O          -6.0628  -22.6422  -52.6563 O.2       16 UNK        -0.5000 
     94 N          -5.0154  -21.5630  -50.9527 N.am      17 UNK        -0.5000 
     95 CA         -4.5608  -20.3408  -51.6254 C.3       17 UNK         0.1400 
     96 CB         -4.0684  -19.3440  -50.5659 C.3       17 UNK        -0.1800 
     97 C          -5.5593  -19.6550  -52.5755 C.2       17 UNK         0.5000 
     98 O          -5.1350  -19.1152  -53.5982 O.2       17 UNK        -0.5000 
     99 N          -6.8541  -19.6978  -52.2371 N.am      18 UNK        -0.5000 
    100 CA        -7.9400  -19.1500  -53.0520 C.3       18 UNK         0.1400 
    101 CB        -9.2117  -19.0580  -52.1952 C.3       18 UNK        -0.1800 
    102 C         -8.2118  -19.9627  -54.3340 C.2       18 UNK         0.5000 
    103 O         -8.6048  -19.3795  -55.3446 O.2       18 UNK        -0.5000 
    104 N         -7.9952  -21.2831  -54.2750 N.am      19 UNK        -0.5000 
    105 CA        -8.1427  -22.2046  -55.4019 C.3       19 UNK         0.1400 
    106 CB        -8.5945  -23.5777  -54.8797 C.3       19 UNK        -0.1800 
    107 C         -6.8291  -22.3292  -56.1911 C.2       19 UNK         0.5000 
    108 O         -6.8612  -22.4034  -57.4198 O.2       19 UNK        -0.5000 
    109 N         -5.6974  -22.3249  -55.4726 N.am      20 UNK        -0.5000 
    110 CA        -4.3429  -22.3611  -56.0291 C.3       20 UNK         0.1400 
    111 CB        -3.3552  -22.7064  -54.9052 C.3       20 UNK        -0.1800 
    112 C         -3.9273  -21.0505  -56.7270 C.2       20 UNK         0.5000 
    113 O         -2.9891  -21.0693  -57.5246 O.2       20 UNK        -0.5000 
    114 N         -4.6307  -19.9517  -56.4153 N.am      21 UNK        -0.5000 
    115 CA        -4.4203  -18.5843  -56.8943 C.3       21 UNK         0.1400 
    116 CB        -4.6502  -18.4832  -58.4170 C.3       21 UNK        -0.1800 
    117 C         -3.0631  -18.0171  -56.4340 C.2       21 UNK         0.5000 
    118 O         -2.2994  -17.4855  -57.2426 O.2       21 UNK        -0.5000 
    119 N         -2.7929  -18.1479  -55.1289 N.am      22 UNK        -0.5000 
    120 CA        -1.5839  -17.6225  -54.4706 C.3       22 UNK         0.1400 
    121 C         -1.5410  -16.0699  -54.3490 C.2       22 UNK         0.5000 
    122 N         -2.6539  -15.3581  -54.4866 N.am      22 UNK        -0.7600 
    123 O         -0.4753  -15.5012  -54.1341 O.2       22 UNK        -0.5000 
    124 C124       -1.3499  -18.2732  -53.0850 C.3       23 UNK        -0.0398 
    125 S125       -1.0435  -20.0722  -53.1639 S.3       23 UNK        -0.2404 
    126 C126        0.7674  -20.1628  -53.3584 C.3       23 UNK        -0.0205 
    127 H127       -2.7260  -15.9407  -51.5413 H         1 UNK         0.0600 
    128 H128       -2.8895  -14.3020  -50.9116 H         1 UNK         0.0600 
    129 H129       -3.6403  -15.6557  -50.0597 H         1 UNK         0.0600 
    130 H130       -1.0875  -13.5847  -49.8566 H         1 UNK         0.3000 
    131 H131        0.8276  -13.3898  -48.8231 H         1 UNK         0.0600 
    132 H132        2.5480  -15.1814  -48.7738 H         1 UNK         0.0800 
    133 H133        1.3462  -16.3626  -49.2220 H         1 UNK         0.0800 
    134 H134        3.6861  -16.0786  -52.4335 H         1 UNK         0.0800 
    135 H135        4.1393  -16.0721  -50.7477 H         1 UNK         0.0800 
    136 H136        2.0129  -17.7400  -53.2983 H         1 UNK         0.1150 
    137 H137        1.1186  -21.1296  -50.8254 H         1 UNK         0.1150 
    138 H138        3.3800  -17.8458  -49.2455 H         1 UNK         0.1150 
    139 H139        2.9682  -19.6572  -47.8489 H         1 UNK         0.0800 
    140 H140        1.2841  -20.0422  -48.0908 H         1 UNK         0.0800 
    141 H141        2.6066  -21.3244  -46.1451 H         1 UNK         0.0800 
    142 H142        3.2833  -22.9003  -46.3166 H         1 UNK         0.0800 
    143 H143        1.2494  -23.9947  -46.2355 H         1 UNK         0.0600 
    144 H144        1.4118  -21.8695  -44.3656 H         1 UNK         0.3000 
    145 H145       -1.3797  -22.8091  -42.3250 H         1 UNK         0.0600 
    146 H146        0.6096  -24.1284  -41.5953 H         1 UNK         0.0600 
    147 H147        1.6566  -22.7491  -41.9059 H         1 UNK         0.0600 
    148 H148        0.4320  -22.6622  -40.6428 H         1 UNK         0.0600 
    149 H149        0.3855  -20.5966  -42.1347 H         1 UNK         0.3000 
    150 H150       -1.4829  -18.3412  -44.2201 H         1 UNK         0.0600 
    151 H151       -1.2361  -17.0077  -42.1105 H         1 UNK         0.0600 
    152 H152       -0.9744  -18.4951  -41.2045 H         1 UNK         0.0600 
    153 H153       -2.5182  -18.2038  -41.9914 H         1 UNK         0.0600 
    154 H154        0.9531  -17.9354  -42.8409 H         1 UNK         0.3000 
    155 H155        3.1627  -19.1688  -45.3926 H         1 UNK         0.0600 
    156 H156        2.7338  -16.9049  -46.1112 H         1 UNK         0.0600 
    157 H157        4.0600  -16.8394  -44.9619 H         1 UNK         0.0600 
    158 H158        2.4341  -16.3508  -44.4727 H         1 UNK         0.0600 
    159 H159        3.4880  -18.0238  -42.7597 H         1 UNK         0.3000 
    160 H160        3.6254  -21.1395  -41.0311 H         1 UNK         0.0600 
    161 H161        5.9034  -20.8769  -42.0236 H         1 UNK         0.0600 
    162 H162        5.8502  -20.2554  -40.3819 H         1 UNK         0.0600 
    163 H163        5.8396  -19.1402  -41.7484 H         1 UNK         0.0600 
    164 H164        4.0239  -18.4189  -40.2173 H         1 UNK         0.3000 
    165 H165        0.6217  -17.6196  -39.5727 H         1 UNK         0.0600 
    166 H166        1.4606  -17.2605  -37.2721 H         1 UNK         0.0600 
    167 H167        1.2721  -18.9793  -37.5791 H         1 UNK         0.0600 
    168 H168        2.8777  -18.2593  -37.5983 H         1 UNK         0.0600 
    169 H169        2.9612  -16.1717  -38.9772 H         1 UNK         0.3000 
    170 H170        3.8857  -14.6261  -40.1948 H         1 UNK         0.0600 
    171 H171        4.8695  -13.9888  -42.3204 H         1 UNK         0.0600 
    172 H172        4.7242  -15.7397  -42.3165 H         1 UNK         0.0600 
    173 H173        3.5803  -14.7608  -43.2328 H         1 UNK         0.0600 
    174 H174        2.2906  -13.1272  -42.1028 H         1 UNK         0.3000 
    175 H175        0.3148  -11.4946  -39.6150 H         1 UNK         0.0600 
    176 H176        2.5994  -10.5302  -41.4089 H         1 UNK         0.0600 
    177 H177        1.3456   -9.5215  -40.6892 H         1 UNK         0.0600 
    178 H178        2.5084  -10.3476  -39.6641 H         1 UNK         0.0600 
    179 H179       -0.9118  -11.6478  -41.3960 H         1 UNK         0.3000 
    180 H180       -1.7579  -11.7435  -43.3296 H         1 UNK         0.0600 
    181 H181       -1.6140  -10.4505  -45.4310 H         1 UNK         0.0600 
    182 H182        0.1464  -10.5639  -45.4211 H         1 UNK         0.0600 
    183 H183       -0.6879   -9.6454  -44.1740 H         1 UNK         0.0600 
    184 H184       -0.7417  -12.8441  -45.7485 H         1 UNK         0.3000 
    185 H185       -0.5183  -16.1171  -45.0952 H         1 UNK         0.0600 
    186 H186       -3.3947  -15.2578  -45.7231 H         1 UNK         0.0600 
    187 H187       -2.6803  -16.8245  -46.1007 H         1 UNK         0.0600 
    188 H188       -2.9192  -16.3471  -44.4279 H         1 UNK         0.0600 
    189 H189       -1.6650  -14.9366  -47.4283 H         1 UNK         0.3000 
    190 H190       -0.2660  -20.7335  -46.3058 H         1 UNK         0.3000 
    191 H191       -1.6064  -21.0039  -48.7539 H         1 UNK         0.0600 
    192 H192       -2.3015  -19.3335  -46.2805 H         1 UNK         0.0600 
    193 H193       -2.9960  -19.0852  -47.8708 H         1 UNK         0.0600 
    194 H194       -1.2755  -18.8378  -47.6233 H         1 UNK         0.0600 
    195 H195       -2.7039  -21.8811  -45.4605 H         1 UNK         0.3000 
    196 H196       -5.3233  -22.7472  -46.1840 H         1 UNK         0.0600 
    197 H197       -5.2694  -23.8600  -43.9463 H         1 UNK         0.0600 
    198 H198       -4.6866  -22.2044  -43.8552 H         1 UNK         0.0600 
    199 H199       -3.5429  -23.5435  -43.8190 H         1 UNK         0.0600 
    200 H200       -2.2121  -24.5289  -45.8784 H         1 UNK         0.3000 
    201 H201       -3.2606  -27.1083  -46.4888 H         1 UNK         0.0600 
    202 H202       -1.1177  -26.7786  -45.3003 H         1 UNK         0.0600 
    203 H203       -0.4099  -26.0086  -46.7180 H         1 UNK         0.0600 
    204 H204       -0.8512  -27.7115  -46.7656 H         1 UNK         0.0600 
    205 H205       -1.7136  -24.6132  -48.5564 H         1 UNK         0.3000 
    206 H206       -1.8258  -26.1224  -50.9916 H         1 UNK         0.0600 
    207 H207       -1.2193  -23.9238  -52.0178 H         1 UNK         0.0600 
    208 H208       -1.5618  -23.1044  -50.4999 H         1 UNK         0.0600 
    209 H209       -0.2264  -24.2505  -50.6051 H         1 UNK         0.0600 
    210 H210       -4.1637  -24.1773  -49.3178 H         1 UNK         0.3000 
    211 H211       -6.2349  -23.4767  -49.6373 H         1 UNK         0.0600 
    212 H212       -6.4339  -25.2839  -52.1108 H         1 UNK         0.0600 
    213 H213       -7.7635  -24.5028  -51.2745 H         1 UNK         0.0600 
    214 H214       -6.8393  -25.7579  -50.4620 H         1 UNK         0.0600 
    215 H215       -4.6821  -21.6782  -49.9975 H         1 UNK         0.3000 
    216 H216       -3.7071  -20.6270  -52.2372 H         1 UNK         0.0600 
    217 H217       -3.9322  -18.3433  -50.9765 H         1 UNK         0.0600 
    218 H218       -3.1058  -19.6579  -50.1650 H         1 UNK         0.0600 
    219 H219       -4.7717  -19.2564  -49.7372 H         1 UNK         0.0600 
    220 H220       -7.1128  -20.1646  -51.3805 H         1 UNK         0.3000 
    221 H221       -7.6612  -18.1386  -53.3558 H         1 UNK         0.0600 
    222 H222       -9.5315  -20.0393  -51.8423 H         1 UNK         0.0600 
    223 H223       -9.0553  -18.4215  -51.3241 H         1 UNK         0.0600 
    224 H224      -10.0368  -18.6293  -52.7656 H         1 UNK         0.0600 
    225 H225       -7.5865  -21.6747  -53.4330 H         1 UNK         0.3000 
    226 H226       -8.9126  -21.8332  -56.0818 H         1 UNK         0.0600 
    227 H227       -9.5429  -23.5034  -54.3476 H         1 UNK         0.0600 
    228 H228       -8.7368  -24.2794  -55.7025 H         1 UNK         0.0600 
    229 H229       -7.8627  -24.0148  -54.1992 H         1 UNK         0.0600 
    230 H230       -5.7724  -22.3298  -54.4579 H         1 UNK         0.3000 
    231 H231       -4.3021  -23.1565  -56.7760 H         1 UNK         0.0600 
    232 H232       -3.3801  -21.9642  -54.1086 H         1 UNK         0.0600 
    233 H233       -3.5852  -23.6764  -54.4660 H         1 UNK         0.0600 
    234 H234       -2.3314  -22.7527  -55.2785 H         1 UNK         0.0600 
    235 H235       -5.3322  -20.0475  -55.6933 H         1 UNK         0.3000 
    236 H236       -5.1845  -17.9745  -56.4099 H         1 UNK         0.0600 
    237 H237       -3.8916  -19.0248  -58.9826 H         1 UNK         0.0600 
    238 H238       -5.6252  -18.8837  -58.6948 H         1 UNK         0.0600 
    239 H239       -4.6203  -17.4439  -58.7458 H         1 UNK         0.0600 
    240 H240       -3.4884  -18.5858  -54.5325 H         1 UNK         0.3000 
    241 H241       -0.7331  -17.8893  -55.1004 H         1 UNK         0.0600 
    242 H242       -3.5357  -15.8095  -54.6669 H         1 UNK         0.3800 
    243 H243       -2.6095  -14.3538  -54.4179 H         1 UNK         0.3800 
    244 H244       -0.5315  -17.7893  -52.5526 H         1 UNK         0.0800 
    245 H245       -2.2250  -18.1159  -52.4578 H         1 UNK         0.0800 
    246 H246        1.0583  -21.2109  -53.4403 H         1 UNK         0.0800 
    247 H247        1.0481  -19.6956  -54.3035 H         1 UNK         0.0800 
@<TRIPOS>BOND
     1    1    2 1    
     2    1  127 1    
     3    1  128 1    
     4    1  129 1    
     5    2    3 2    
     6    2    4 am   BACKBONE|DICT|INTERRES
     7    4    5 1    
     8    4  130 1    
     9    5    6 1    
    10    5   65 1    
    11    5  131 1    
    12    6    7 1    
    13    6  132 1    
    14    6  133 1    
    15    7    8 1    
    16    8    9 1    
    17    8  134 1    
    18    8  135 1    
    19    9   10 ar   
    20    9   14 ar   
    21   10   11 ar   
    22   10  136 1    
    23   11   12 ar   
    24   11  126 1    
    25   12   13 ar   
    26   12  137 1    
    27   13   14 ar   
    28   13   15 1    
    29   14  138 1    
    30   15   16 1    
    31   15  139 1    
    32   15  140 1    
    33   16   17 1    
    34   17   18 1    
    35   17  141 1    
    36   17  142 1    
    37   18   19 1    
    38   18   67 1    
    39   18  143 1    
    40   19   20 am   BACKBONE|DICT|INTERRES
    41   19  144 1    
    42   20   21 2    
    43   20   22 1    
    44   22   23 1    
    45   22   24 1    
    46   22  145 1    
    47   23  146 1    
    48   23  147 1    
    49   23  148 1    
    50   24   25 am   BACKBONE|DICT|INTERRES
    51   24  149 1    
    52   25   26 2    
    53   25   27 1    
    54   27   28 1    
    55   27   29 1    
    56   27  150 1    
    57   28  151 1    
    58   28  152 1    
    59   28  153 1    
    60   29   30 am   BACKBONE|DICT|INTERRES
    61   29  154 1    
    62   30   31 2    
    63   30   32 1    
    64   32   33 1    
    65   32   34 1    
    66   32  155 1    
    67   33  156 1    
    68   33  157 1    
    69   33  158 1    
    70   34   35 am   BACKBONE|DICT|INTERRES
    71   34  159 1    
    72   35   36 2    
    73   35   37 1    
    74   37   38 1    
    75   37   39 1    
    76   37  160 1    
    77   38  161 1    
    78   38  162 1    
    79   38  163 1    
    80   39   40 am   BACKBONE|DICT|INTERRES
    81   39  164 1    
    82   40   41 2    
    83   40   42 1    
    84   42   43 1    
    85   42   44 1    
    86   42  165 1    
    87   43  166 1    
    88   43  167 1    
    89   43  168 1    
    90   44   45 am   BACKBONE|DICT|INTERRES
    91   44  169 1    
    92   45   46 2    
    93   45   47 1    
    94   47   48 1    
    95   47   49 1    
    96   47  170 1    
    97   48  171 1    
    98   48  172 1    
    99   48  173 1    
   100   49   50 am   BACKBONE|DICT|INTERRES
   101   49  174 1    
   102   50   51 2    
   103   50   52 1    
   104   52   53 1    
   105   52   54 1    
   106   52  175 1    
   107   53  176 1    
   108   53  177 1    
   109   53  178 1    
   110   54   55 am   BACKBONE|DICT|INTERRES
   111   54  179 1    
   112   55   56 2    
   113   55   57 1    
   114   57   58 1    
   115   57   59 1    
   116   57  180 1    
   117   58  181 1    
   118   58  182 1    
   119   58  183 1    
   120   59   60 am   BACKBONE|DICT|INTERRES
   121   59  184 1    
   122   60   61 2    
   123   60   62 1    
   124   62   63 1    
   125   62   64 1    
   126   62  185 1    
   127   63  186 1    
   128   63  187 1    
   129   63  188 1    
   130   64   65 am   BACKBONE|DICT|INTERRES
   131   64  189 1    
   132   65   66 2    
   133   67   68 2    
   134   67   69 am   BACKBONE|DICT|INTERRES
   135   69   70 1    
   136   69  190 1    
   137   70   71 1    
   138   70   72 1    
   139   70  191 1    
   140   71  192 1    
   141   71  193 1    
   142   71  194 1    
   143   72   73 2    
   144   72   74 am   BACKBONE|DICT|INTERRES
   145   74   75 1    
   146   74  195 1    
   147   75   76 1    
   148   75   77 1    
   149   75  196 1    
   150   76  197 1    
   151   76  198 1    
   152   76  199 1    
   153   77   78 2    
   154   77   79 am   BACKBONE|DICT|INTERRES
   155   79   80 1    
   156   79  200 1    
   157   80   81 1    
   158   80   82 1    
   159   80  201 1    
   160   81  202 1    
   161   81  203 1    
   162   81  204 1    
   163   82   83 2    
   164   82   84 am   BACKBONE|DICT|INTERRES
   165   84   85 1    
   166   84  205 1    
   167   85   86 1    
   168   85   87 1    
   169   85  206 1    
   170   86  207 1    
   171   86  208 1    
   172   86  209 1    
   173   87   88 2    
   174   87   89 am   BACKBONE|DICT|INTERRES
   175   89   90 1    
   176   89  210 1    
   177   90   91 1    
   178   90   92 1    
   179   90  211 1    
   180   91  212 1    
   181   91  213 1    
   182   91  214 1    
   183   92   93 2    
   184   92   94 am   BACKBONE|DICT|INTERRES
   185   94   95 1    
   186   94  215 1    
   187   95   96 1    
   188   95   97 1    
   189   95  216 1    
   190   96  217 1    
   191   96  218 1    
   192   96  219 1    
   193   97   98 2    
   194   97   99 am   BACKBONE|DICT|INTERRES
   195   99  100 1    
   196   99  220 1    
   197  100  101 1    
   198  100  102 1    
   199  100  221 1    
   200  101  222 1    
   201  101  223 1    
   202  101  224 1    
   203  102  103 2    
   204  102  104 am   BACKBONE|DICT|INTERRES
   205  104  105 1    
   206  104  225 1    
   207  105  106 1    
   208  105  107 1    
   209  105  226 1    
   210  106  227 1    
   211  106  228 1    
   212  106  229 1    
   213  107  108 2    
   214  107  109 am   BACKBONE|DICT|INTERRES
   215  109  110 1    
   216  109  230 1    
   217  110  111 1    
   218  110  112 1    
   219  110  231 1    
   220  111  232 1    
   221  111  233 1    
   222  111  234 1    
   223  112  113 2    
   224  112  114 am   BACKBONE|DICT|INTERRES
   225  114  115 1    
   226  114  235 1    
   227  115  116 1    
   228  115  117 1    
   229  115  236 1    
   230  116  237 1    
   231  116  238 1    
   232  116  239 1    
   233  117  118 2    
   234  117  119 am   BACKBONE|DICT|INTERRES
   235  119  120 1    
   236  119  240 1    
   237  120  121 1    
   238  120  124 1    
   239  120  241 1    
   240  121  122 am   BACKBONE|DICT|INTERRES
   241  121  123 2    
   242  122  242 1    
   243  122  243 1    
   244  124  125 1    
   245  124  244 1    
   246  124  245 1    
   247  125  126 1    
   248  126  246 1    
   249  126  247 1    
@<TRIPOS>SUBSTRUCTURE
     1 UNK         1 GROUP             0       ****    0 ROOT    
