@<TRIPOS>MOLECULE
3R540
247   249    1
SMALL
USER_CHARGES


@<TRIPOS>ATOM
      1 CA         -3.5484  -15.3616  -44.8798 C.3       0 UNK        -0.1800 
      2 C          -3.9516  -13.9479  -45.2609 C.2       0 UNK         0.5000 
      3 O          -4.0620  -13.0870  -44.3878 O.2       0 UNK        -0.5000 
      4 N          -4.1744  -13.7051  -46.5588 N.am      1 UNK        -0.5000 
      5 CA         -4.5099  -12.3819  -47.1024 C.3       1 UNK         0.1400 
      6 C6         -5.1640  -12.4477  -48.5055 C.3       23 UNK        -0.0398 
      7 S7         -6.5767  -13.6044  -48.5934 S.3       23 UNK        -0.2404 
      8 C8         -5.9819  -14.8435  -49.7910 C.3       23 UNK        -0.0205 
      9 C9         -4.8724  -15.7180  -49.2234 C.ar      23 UNK        -0.0193 
     10 C10        -3.5318  -15.3907  -49.4492 C.ar      23 UNK        -0.1150 
     11 C11        -2.5030  -16.1952  -48.9457 C.ar      23 UNK        -0.0193 
     12 C12        -2.8346  -17.3401  -48.2185 C.ar      23 UNK        -0.1150 
     13 C13        -4.1693  -17.6870  -47.9941 C.ar      23 UNK        -0.0193 
     14 C14        -5.1858  -16.8674  -48.4919 C.ar      23 UNK        -0.1150 
     15 C15        -4.4961  -18.9671  -47.2441 C.3       23 UNK        -0.0205 
     16 S16        -4.1208  -18.8041  -45.4708 S.3       23 UNK        -0.2404 
     17 C17        -4.2499  -20.5046  -44.8083 C.3       23 UNK        -0.0398 
     18 CA         -3.6315  -21.6257  -45.6810 C.3       11 UNK         0.1400 
     19 N          -2.2588  -21.3175  -46.1022 N.am      11 UNK        -0.5000 
     20 C          -1.5837  -21.9837  -47.0504 C.2       10 UNK         0.5000 
     21 O          -2.0453  -22.9570  -47.6422 O.2       10 UNK        -0.5000 
     22 CA         -0.1477  -21.5265  -47.3653 C.3       10 UNK         0.1400 
     23 CB         -0.1459  -20.6240  -48.6070 C.3       10 UNK        -0.1800 
     24 N           0.5132  -20.8352  -46.2552 N.am      10 UNK        -0.5000 
     25 C           0.7710  -21.3829  -45.0559 C.2       9 UNK         0.5000 
     26 O           0.4958  -22.5502  -44.7753 O.2       9 UNK        -0.5000 
     27 CA          1.4065  -20.4859  -43.9715 C.3       9 UNK         0.1400 
     28 CB          2.9086  -20.7829  -43.8479 C.3       9 UNK        -0.1800 
     29 N           1.2212  -19.0493  -44.1866 N.am      9 UNK        -0.5000 
     30 C           0.0414  -18.4184  -44.2684 C.2       8 UNK         0.5000 
     31 O          -1.0393  -18.9818  -44.0975 O.2       8 UNK        -0.5000 
     32 CA          0.0702  -16.9264  -44.6607 C.3       8 UNK         0.1400 
     33 CB          0.0245  -16.0380  -43.4099 C.3       8 UNK        -0.1800 
     34 N           1.2263  -16.5441  -45.4794 N.am      8 UNK        -0.5000 
     35 C           1.5230  -17.0604  -46.6814 C.2       7 UNK         0.5000 
     36 O           0.8552  -17.9361  -47.2267 O.2       7 UNK        -0.5000 
     37 CA          2.8053  -16.5555  -47.3610 C.3       7 UNK         0.1400 
     38 CB          2.6089  -15.1584  -47.9674 C.3       7 UNK        -0.1800 
     39 N           3.9135  -16.5281  -46.4101 N.am      7 UNK        -0.5000 
     40 C           4.6490  -17.6000  -46.0837 C.2       6 UNK         0.5000 
     41 O           4.5260  -18.7024  -46.6170 O.2       6 UNK        -0.5000 
     42 CA          5.6894  -17.4180  -44.9617 C.3       6 UNK         0.1400 
     43 CB          7.0587  -17.0497  -45.5525 C.3       6 UNK        -0.1800 
     44 N           5.3059  -16.4049  -43.9772 N.am      6 UNK        -0.5000 
     45 C           4.2744  -16.5175  -43.1286 C.2       5 UNK         0.5000 
     46 O           3.5411  -17.5034  -43.0691 O.2       5 UNK        -0.5000 
     47 CA          3.9882  -15.2996  -42.2308 C.3       5 UNK         0.1400 
     48 CB          4.8161  -15.3754  -40.9395 C.3       5 UNK        -0.1800 
     49 N           4.2377  -14.0158  -42.8937 N.am      5 UNK        -0.5000 
     50 C           3.5937  -13.5829  -43.9854 C.2       4 UNK         0.5000 
     51 O           2.7463  -14.2445  -44.5892 O.2       4 UNK        -0.5000 
     52 CA          3.9963  -12.1993  -44.5214 C.3       4 UNK         0.1400 
     53 CB          4.7216  -12.3333  -45.8697 C.3       4 UNK        -0.1800 
     54 N           2.8302  -11.3347  -44.6867 N.am      4 UNK        -0.5000 
     55 C           2.1193  -10.8094  -43.6789 C.2       3 UNK         0.5000 
     56 O           2.4027  -10.9684  -42.4905 O.2       3 UNK        -0.5000 
     57 CA          0.9020   -9.9397  -44.0524 C.3       3 UNK         0.1400 
     58 CB          1.2575   -8.4482  -43.9459 C.3       3 UNK        -0.1800 
     59 N           0.3815  -10.2062  -45.3962 N.am      3 UNK        -0.5000 
     60 C          -0.3546  -11.2762  -45.7191 C.2       2 UNK         0.5000 
     61 O          -0.6588  -12.1658  -44.9216 O.2       2 UNK        -0.5000 
     62 CA         -0.7911  -11.3815  -47.1902 C.3       2 UNK         0.1400 
     63 CB          0.2440  -12.1799  -47.9958 C.3       2 UNK        -0.1800 
     64 N          -2.0843  -12.0511  -47.2917 N.am      2 UNK        -0.5000 
     65 C          -3.2739  -11.4561  -47.1283 C.2       1 UNK         0.5000 
     66 O          -3.4190  -10.2401  -46.9948 O.2       1 UNK        -0.5000 
     67 C          -3.7729  -23.0014  -44.9890 C.2       11 UNK         0.5000 
     68 O          -4.8936  -23.4959  -44.8674 O.2       11 UNK        -0.5000 
     69 N          -2.6521  -23.6044  -44.5657 N.am      12 UNK        -0.5000 
     70 CA         -2.5951  -24.9519  -43.9997 C.3       12 UNK         0.1400 
     71 CB         -1.2857  -25.0973  -43.2085 C.3       12 UNK        -0.1800 
     72 C          -2.7129  -26.0718  -45.0562 C.2       12 UNK         0.5000 
     73 O          -2.9622  -27.2181  -44.6788 O.2       12 UNK        -0.5000 
     74 N          -2.5120  -25.7492  -46.3433 N.am      13 UNK        -0.5000 
     75 CA         -2.5950  -26.6987  -47.4549 C.3       13 UNK         0.1400 
     76 CB         -1.9297  -26.0768  -48.6886 C.3       13 UNK        -0.1800 
     77 C          -4.0444  -27.1159  -47.7683 C.2       13 UNK         0.5000 
     78 O          -4.9848  -26.3946  -47.4282 O.2       13 UNK        -0.5000 
     79 N          -4.1903  -28.2620  -48.4484 N.am      14 UNK        -0.5000 
     80 CA         -5.4595  -28.9434  -48.7375 C.3       14 UNK         0.1400 
     81 CB         -5.1622  -30.2411  -49.5048 C.3       14 UNK        -0.1800 
     82 C          -6.5103  -28.1062  -49.4949 C.2       14 UNK         0.5000 
     83 O          -7.7061  -28.3085  -49.2794 O.2       14 UNK        -0.5000 
     84 N          -6.0507  -27.1792  -50.3438 N.am      15 UNK        -0.5000 
     85 CA         -6.8844  -26.2001  -51.0465 C.3       15 UNK         0.1400 
     86 CB         -6.9073  -26.5251  -52.5511 C.3       15 UNK        -0.1800 
     87 C          -6.4040  -24.7639  -50.7649 C.2       15 UNK         0.5000 
     88 O          -6.6783  -23.8630  -51.5589 O.2       15 UNK        -0.5000 
     89 N          -5.6875  -24.5684  -49.6467 N.am      16 UNK        -0.5000 
     90 CA         -5.1064  -23.3062  -49.1872 C.3       16 UNK         0.1400 
     91 CB         -6.2256  -22.3798  -48.6586 C.3       16 UNK        -0.1800 
     92 C          -4.2018  -22.6636  -50.2632 C.2       16 UNK         0.5000 
     93 O          -3.3209  -23.3397  -50.8022 O.2       16 UNK        -0.5000 
     94 N          -4.4620  -21.3947  -50.6033 N.am      17 UNK        -0.5000 
     95 CA         -3.7365  -20.6337  -51.6203 C.3       17 UNK         0.1400 
     96 CB         -4.1713  -19.1621  -51.5598 C.3       17 UNK        -0.1800 
     97 C          -3.8762  -21.1835  -53.0543 C.2       17 UNK         0.5000 
     98 O          -3.0414  -20.8567  -53.8953 O.2       17 UNK        -0.5000 
     99 N          -4.8877  -22.0223  -53.3256 N.am      18 UNK        -0.5000 
    100 CA        -5.0215  -22.7153  -54.6102 C.3       18 UNK         0.1400 
    101 CB        -6.4772  -23.1590  -54.8175 C.3       18 UNK        -0.1800 
    102 C         -4.0553  -23.9109  -54.7383 C.2       18 UNK         0.5000 
    103 O         -3.7664  -24.3255  -55.8614 O.2       18 UNK        -0.5000 
    104 N         -3.5681  -24.4358  -53.6043 N.am      19 UNK        -0.5000 
    105 CA        -2.5864  -25.5163  -53.5473 C.3       19 UNK         0.1400 
    106 CB        -2.9452  -26.4836  -52.4050 C.3       19 UNK        -0.1800 
    107 C         -1.1636  -24.9664  -53.3633 C.2       19 UNK         0.5000 
    108 O         -0.2665  -25.3451  -54.1171 O.2       19 UNK        -0.5000 
    109 N         -0.9779  -24.1036  -52.3556 N.am      20 UNK        -0.5000 
    110 CA         0.3381  -23.6619  -51.8828 C.3       20 UNK         0.1400 
    111 CB         0.3632  -23.7749  -50.3503 C.3       20 UNK        -0.1800 
    112 C          0.7578  -22.2603  -52.3686 C.2       20 UNK         0.5000 
    113 O          1.8347  -21.8004  -51.9848 O.2       20 UNK        -0.5000 
    114 N         -0.0627  -21.6199  -53.2145 N.am      21 UNK        -0.5000 
    115 CA         0.1317  -20.2782  -53.7828 C.3       21 UNK         0.1400 
    116 CB         1.4058  -20.2263  -54.6579 C.3       21 UNK        -0.1800 
    117 C          0.0728  -19.1601  -52.7160 C.2       21 UNK         0.5000 
    118 O         -0.4552  -19.3707  -51.6236 O.2       21 UNK        -0.5000 
    119 N          0.5875  -17.9766  -53.0611 N.am      22 UNK        -0.5000 
    120 CA         0.6889  -16.8017  -52.1867 C.3       22 UNK         0.1400 
    121 C          1.7375  -15.8071  -52.7514 C.2       22 UNK         0.5000 
    122 N          1.6928  -15.4801  -54.0388 N.am      22 UNK        -0.7600 
    123 O          2.6220  -15.3557  -52.0299 O.2       22 UNK        -0.5000 
    124 C124       -0.6897  -16.1364  -51.9119 C.3       23 UNK        -0.0398 
    125 S125       -0.6300  -14.8602  -50.6078 S.3       23 UNK        -0.2404 
    126 C126       -1.0280  -15.8463  -49.1263 C.3       23 UNK        -0.0205 
    127 H127       -3.1814  -15.9172  -45.7417 H         1 UNK         0.0600 
    128 H128       -4.4011  -15.8950  -44.4605 H         1 UNK         0.0600 
    129 H129       -2.7573  -15.3387  -44.1315 H         1 UNK         0.0600 
    130 H130       -4.1305  -14.4617  -47.2286 H         1 UNK         0.3000 
    131 H131       -5.2384  -11.9237  -46.4296 H         1 UNK         0.0600 
    132 H132       -5.5360  -11.4597  -48.7823 H         1 UNK         0.0800 
    133 H133       -4.4292  -12.7032  -49.2682 H         1 UNK         0.0800 
    134 H134       -5.6472  -14.3431  -50.7011 H         1 UNK         0.0800 
    135 H135       -6.8226  -15.4724  -50.0877 H         1 UNK         0.0800 
    136 H136       -3.2927  -14.5057  -50.0194 H         1 UNK         0.1150 
    137 H137       -2.0496  -17.9648  -47.8163 H         1 UNK         0.1150 
    138 H138       -6.2210  -17.1287  -48.3221 H         1 UNK         0.1150 
    139 H139       -5.5475  -19.2307  -47.3646 H         1 UNK         0.0800 
    140 H140       -3.9116  -19.7685  -47.6939 H         1 UNK         0.0800 
    141 H141       -5.3078  -20.7076  -44.6321 H         1 UNK         0.0800 
    142 H142       -3.7772  -20.4968  -43.8243 H         1 UNK         0.0800 
    143 H143       -4.2308  -21.7077  -46.5864 H         1 UNK         0.0600 
    144 H144       -1.8141  -20.5354  -45.6360 H         1 UNK         0.3000 
    145 H145        0.4353  -22.4214  -47.5905 H         1 UNK         0.0600 
    146 H146       -0.6861  -19.6953  -48.4306 H         1 UNK         0.0600 
    147 H147        0.8684  -20.3691  -48.9142 H         1 UNK         0.0600 
    148 H148       -0.6283  -21.1096  -49.4551 H         1 UNK         0.0600 
    149 H149        0.7475  -19.8605  -46.4123 H         1 UNK         0.3000 
    150 H150        0.9282  -20.7397  -43.0236 H         1 UNK         0.0600 
    151 H151        3.0861  -21.8453  -43.6755 H         1 UNK         0.0600 
    152 H152        3.3509  -20.2423  -43.0111 H         1 UNK         0.0600 
    153 H153        3.4482  -20.5017  -44.7528 H         1 UNK         0.0600 
    154 H154        2.0642  -18.4920  -44.2592 H         1 UNK         0.3000 
    155 H155       -0.8253  -16.7321  -45.2538 H         1 UNK         0.0600 
    156 H156       -0.8515  -16.2642  -42.8008 H         1 UNK         0.0600 
    157 H157        0.9043  -16.1863  -42.7847 H         1 UNK         0.0600 
    158 H158       -0.0260  -14.9815  -43.6765 H         1 UNK         0.0600 
    159 H159        1.8140  -15.8009  -45.1096 H         1 UNK         0.3000 
    160 H160        3.0474  -17.2400  -48.1771 H         1 UNK         0.0600 
    161 H161        3.5203  -14.8082  -48.4521 H         1 UNK         0.0600 
    162 H162        1.8267  -15.1696  -48.7262 H         1 UNK         0.0600 
    163 H163        2.3281  -14.4241  -47.2133 H         1 UNK         0.0600 
    164 H164        4.0382  -15.6741  -45.8853 H         1 UNK         0.3000 
    165 H165        5.7851  -18.3745  -44.4432 H         1 UNK         0.0600 
    166 H166        7.8216  -16.9936  -44.7758 H         1 UNK         0.0600 
    167 H167        7.3866  -17.7988  -46.2746 H         1 UNK         0.0600 
    168 H168        7.0302  -16.0882  -46.0668 H         1 UNK         0.0600 
    169 H169        5.8545  -15.5580  -43.9563 H         1 UNK         0.3000 
    170 H170        2.9323  -15.3306  -41.9573 H         1 UNK         0.0600 
    171 H171        4.6341  -16.3139  -40.4140 H         1 UNK         0.0600 
    172 H172        5.8862  -15.3144  -41.1416 H         1 UNK         0.0600 
    173 H173        4.5561  -14.5668  -40.2561 H         1 UNK         0.0600 
    174 H174        4.9200  -13.4123  -42.4576 H         1 UNK         0.3000 
    175 H175        4.6783  -11.7246  -43.8128 H         1 UNK         0.0600 
    176 H176        4.0746  -12.7591  -46.6373 H         1 UNK         0.0600 
    177 H177        5.0694  -11.3639  -46.2270 H         1 UNK         0.0600 
    178 H178        5.5963  -12.9791  -45.7819 H         1 UNK         0.0600 
    179 H179        2.5092  -11.1800  -45.6298 H         1 UNK         0.3000 
    180 H180        0.1141  -10.1522  -43.3264 H         1 UNK         0.0600 
    181 H181        2.0369   -8.1680  -44.6557 H         1 UNK         0.0600 
    182 H182        1.6204   -8.2030  -42.9468 H         1 UNK         0.0600 
    183 H183        0.3869   -7.8203  -44.1362 H         1 UNK         0.0600 
    184 H184        0.5950   -9.5198  -46.1058 H         1 UNK         0.3000 
    185 H185       -0.8678  -10.3786  -47.6158 H         1 UNK         0.0600 
    186 H186       -0.0356  -12.2383  -49.0477 H         1 UNK         0.0600 
    187 H187        1.2289  -11.7140  -47.9474 H         1 UNK         0.0600 
    188 H188        0.3422  -13.1971  -47.6176 H         1 UNK         0.0600 
    189 H189       -2.0622  -13.0589  -47.3225 H         1 UNK         0.3000 
    190 H190       -1.7644  -23.1381  -44.7064 H         1 UNK         0.3000 
    191 H191       -3.4268  -25.0714  -43.3023 H         1 UNK         0.0600 
    192 H192       -0.4132  -25.0098  -43.8572 H         1 UNK         0.0600 
    193 H193       -1.2316  -26.0690  -42.7159 H         1 UNK         0.0600 
    194 H194       -1.2048  -24.3354  -42.4331 H         1 UNK         0.0600 
    195 H195       -2.3493  -24.7804  -46.5918 H         1 UNK         0.3000 
    196 H196       -2.0333  -27.5933  -47.1776 H         1 UNK         0.0600 
    197 H197       -1.8572  -26.7953  -49.5052 H         1 UNK         0.0600 
    198 H198       -0.9177  -25.7507  -48.4527 H         1 UNK         0.0600 
    199 H199       -2.4835  -25.2127  -49.0550 H         1 UNK         0.0600 
    200 H200       -3.3574  -28.7699  -48.7097 H         1 UNK         0.3000 
    201 H201       -5.9017  -29.2129  -47.7762 H         1 UNK         0.0600 
    202 H202       -4.5157  -30.9028  -48.9281 H         1 UNK         0.0600 
    203 H203       -4.6738  -30.0403  -50.4592 H         1 UNK         0.0600 
    204 H204       -6.0805  -30.7912  -49.7155 H         1 UNK         0.0600 
    205 H205       -5.0520  -27.0859  -50.4573 H         1 UNK         0.3000 
    206 H206       -7.9116  -26.2467  -50.6801 H         1 UNK         0.0600 
    207 H207       -7.1434  -27.5746  -52.7272 H         1 UNK         0.0600 
    208 H208       -7.6690  -25.9350  -53.0614 H         1 UNK         0.0600 
    209 H209       -5.9537  -26.3077  -53.0305 H         1 UNK         0.0600 
    210 H210       -5.5366  -25.3569  -49.0254 H         1 UNK         0.3000 
    211 H211       -4.4587  -23.5587  -48.3482 H         1 UNK         0.0600 
    212 H212       -6.9469  -22.1218  -49.4349 H         1 UNK         0.0600 
    213 H213       -5.8253  -21.4507  -48.2570 H         1 UNK         0.0600 
    214 H214       -6.7739  -22.8628  -47.8495 H         1 UNK         0.0600 
    215 H215       -5.2338  -20.9235  -50.1559 H         1 UNK         0.3000 
    216 H216       -2.6773  -20.6861  -51.3642 H         1 UNK         0.0600 
    217 H217       -3.6372  -18.5650  -52.3002 H         1 UNK         0.0600 
    218 H218       -3.9498  -18.7293  -50.5860 H         1 UNK         0.0600 
    219 H219       -5.2390  -19.0464  -51.7484 H         1 UNK         0.0600 
    220 H220       -5.5349  -22.2897  -52.5927 H         1 UNK         0.3000 
    221 H221       -4.7797  -22.0129  -55.4110 H         1 UNK         0.0600 
    222 H222       -6.7676  -23.9402  -54.1177 H         1 UNK         0.0600 
    223 H223       -7.1680  -22.3243  -54.6980 H         1 UNK         0.0600 
    224 H224       -6.6198  -23.5581  -55.8223 H         1 UNK         0.0600 
    225 H225       -3.8163  -24.0051  -52.7216 H         1 UNK         0.3000 
    226 H226       -2.5992  -26.0897  -54.4767 H         1 UNK         0.0600 
    227 H227       -3.8365  -27.0606  -52.6453 H         1 UNK         0.0600 
    228 H228       -2.1425  -27.2012  -52.2299 H         1 UNK         0.0600 
    229 H229       -3.1263  -25.9573  -51.4683 H         1 UNK         0.0600 
    230 H230       -1.7748  -23.8339  -51.7832 H         1 UNK         0.3000 
    231 H231        1.1111  -24.3361  -52.2575 H         1 UNK         0.0600 
    232 H232        1.2274  -23.2736  -49.9132 H         1 UNK         0.0600 
    233 H233        0.4216  -24.8205  -50.0528 H         1 UNK         0.0600 
    234 H234       -0.5344  -23.3520  -49.9012 H         1 UNK         0.0600 
    235 H235       -0.9418  -22.0614  -53.4443 H         1 UNK         0.3000 
    236 H236       -0.7108  -20.1031  -54.4502 H         1 UNK         0.0600 
    237 H237        1.4222  -19.3340  -55.2842 H         1 UNK         0.0600 
    238 H238        1.4552  -21.0832  -55.3299 H         1 UNK         0.0600 
    239 H239        2.3155  -20.2221  -54.0567 H         1 UNK         0.0600 
    240 H240        1.0444  -17.8844  -53.9572 H         1 UNK         0.3000 
    241 H241        1.0821  -17.1560  -51.2312 H         1 UNK         0.0600 
    242 H242        0.9496  -15.7919  -54.6437 H         1 UNK         0.3800 
    243 H243        2.3870  -14.8452  -54.4018 H         1 UNK         0.3800 
    244 H244       -1.4258  -16.8857  -51.6187 H         1 UNK         0.0800 
    245 H245       -1.0808  -15.6814  -52.8228 H         1 UNK         0.0800 
    246 H246       -0.4360  -16.7615  -49.1637 H         1 UNK         0.0800 
    247 H247       -0.6996  -15.2999  -48.2424 H         1 UNK         0.0800 
@<TRIPOS>BOND
     1    1    2 1    
     2    1  127 1    
     3    1  128 1    
     4    1  129 1    
     5    2    3 2    
     6    2    4 am   BACKBONE|DICT|INTERRES
     7    4    5 1    
     8    4  130 1    
     9    5    6 1    
    10    5   65 1    
    11    5  131 1    
    12    6    7 1    
    13    6  132 1    
    14    6  133 1    
    15    7    8 1    
    16    8    9 1    
    17    8  134 1    
    18    8  135 1    
    19    9   10 ar   
    20    9   14 ar   
    21   10   11 ar   
    22   10  136 1    
    23   11   12 ar   
    24   11  126 1    
    25   12   13 ar   
    26   12  137 1    
    27   13   14 ar   
    28   13   15 1    
    29   14  138 1    
    30   15   16 1    
    31   15  139 1    
    32   15  140 1    
    33   16   17 1    
    34   17   18 1    
    35   17  141 1    
    36   17  142 1    
    37   18   19 1    
    38   18   67 1    
    39   18  143 1    
    40   19   20 am   BACKBONE|DICT|INTERRES
    41   19  144 1    
    42   20   21 2    
    43   20   22 1    
    44   22   23 1    
    45   22   24 1    
    46   22  145 1    
    47   23  146 1    
    48   23  147 1    
    49   23  148 1    
    50   24   25 am   BACKBONE|DICT|INTERRES
    51   24  149 1    
    52   25   26 2    
    53   25   27 1    
    54   27   28 1    
    55   27   29 1    
    56   27  150 1    
    57   28  151 1    
    58   28  152 1    
    59   28  153 1    
    60   29   30 am   BACKBONE|DICT|INTERRES
    61   29  154 1    
    62   30   31 2    
    63   30   32 1    
    64   32   33 1    
    65   32   34 1    
    66   32  155 1    
    67   33  156 1    
    68   33  157 1    
    69   33  158 1    
    70   34   35 am   BACKBONE|DICT|INTERRES
    71   34  159 1    
    72   35   36 2    
    73   35   37 1    
    74   37   38 1    
    75   37   39 1    
    76   37  160 1    
    77   38  161 1    
    78   38  162 1    
    79   38  163 1    
    80   39   40 am   BACKBONE|DICT|INTERRES
    81   39  164 1    
    82   40   41 2    
    83   40   42 1    
    84   42   43 1    
    85   42   44 1    
    86   42  165 1    
    87   43  166 1    
    88   43  167 1    
    89   43  168 1    
    90   44   45 am   BACKBONE|DICT|INTERRES
    91   44  169 1    
    92   45   46 2    
    93   45   47 1    
    94   47   48 1    
    95   47   49 1    
    96   47  170 1    
    97   48  171 1    
    98   48  172 1    
    99   48  173 1    
   100   49   50 am   BACKBONE|DICT|INTERRES
   101   49  174 1    
   102   50   51 2    
   103   50   52 1    
   104   52   53 1    
   105   52   54 1    
   106   52  175 1    
   107   53  176 1    
   108   53  177 1    
   109   53  178 1    
   110   54   55 am   BACKBONE|DICT|INTERRES
   111   54  179 1    
   112   55   56 2    
   113   55   57 1    
   114   57   58 1    
   115   57   59 1    
   116   57  180 1    
   117   58  181 1    
   118   58  182 1    
   119   58  183 1    
   120   59   60 am   BACKBONE|DICT|INTERRES
   121   59  184 1    
   122   60   61 2    
   123   60   62 1    
   124   62   63 1    
   125   62   64 1    
   126   62  185 1    
   127   63  186 1    
   128   63  187 1    
   129   63  188 1    
   130   64   65 am   BACKBONE|DICT|INTERRES
   131   64  189 1    
   132   65   66 2    
   133   67   68 2    
   134   67   69 am   BACKBONE|DICT|INTERRES
   135   69   70 1    
   136   69  190 1    
   137   70   71 1    
   138   70   72 1    
   139   70  191 1    
   140   71  192 1    
   141   71  193 1    
   142   71  194 1    
   143   72   73 2    
   144   72   74 am   BACKBONE|DICT|INTERRES
   145   74   75 1    
   146   74  195 1    
   147   75   76 1    
   148   75   77 1    
   149   75  196 1    
   150   76  197 1    
   151   76  198 1    
   152   76  199 1    
   153   77   78 2    
   154   77   79 am   BACKBONE|DICT|INTERRES
   155   79   80 1    
   156   79  200 1    
   157   80   81 1    
   158   80   82 1    
   159   80  201 1    
   160   81  202 1    
   161   81  203 1    
   162   81  204 1    
   163   82   83 2    
   164   82   84 am   BACKBONE|DICT|INTERRES
   165   84   85 1    
   166   84  205 1    
   167   85   86 1    
   168   85   87 1    
   169   85  206 1    
   170   86  207 1    
   171   86  208 1    
   172   86  209 1    
   173   87   88 2    
   174   87   89 am   BACKBONE|DICT|INTERRES
   175   89   90 1    
   176   89  210 1    
   177   90   91 1    
   178   90   92 1    
   179   90  211 1    
   180   91  212 1    
   181   91  213 1    
   182   91  214 1    
   183   92   93 2    
   184   92   94 am   BACKBONE|DICT|INTERRES
   185   94   95 1    
   186   94  215 1    
   187   95   96 1    
   188   95   97 1    
   189   95  216 1    
   190   96  217 1    
   191   96  218 1    
   192   96  219 1    
   193   97   98 2    
   194   97   99 am   BACKBONE|DICT|INTERRES
   195   99  100 1    
   196   99  220 1    
   197  100  101 1    
   198  100  102 1    
   199  100  221 1    
   200  101  222 1    
   201  101  223 1    
   202  101  224 1    
   203  102  103 2    
   204  102  104 am   BACKBONE|DICT|INTERRES
   205  104  105 1    
   206  104  225 1    
   207  105  106 1    
   208  105  107 1    
   209  105  226 1    
   210  106  227 1    
   211  106  228 1    
   212  106  229 1    
   213  107  108 2    
   214  107  109 am   BACKBONE|DICT|INTERRES
   215  109  110 1    
   216  109  230 1    
   217  110  111 1    
   218  110  112 1    
   219  110  231 1    
   220  111  232 1    
   221  111  233 1    
   222  111  234 1    
   223  112  113 2    
   224  112  114 am   BACKBONE|DICT|INTERRES
   225  114  115 1    
   226  114  235 1    
   227  115  116 1    
   228  115  117 1    
   229  115  236 1    
   230  116  237 1    
   231  116  238 1    
   232  116  239 1    
   233  117  118 2    
   234  117  119 am   BACKBONE|DICT|INTERRES
   235  119  120 1    
   236  119  240 1    
   237  120  121 1    
   238  120  124 1    
   239  120  241 1    
   240  121  122 am   BACKBONE|DICT|INTERRES
   241  121  123 2    
   242  122  242 1    
   243  122  243 1    
   244  124  125 1    
   245  124  244 1    
   246  124  245 1    
   247  125  126 1    
   248  126  246 1    
   249  126  247 1    
@<TRIPOS>SUBSTRUCTURE
     1 UNK         1 GROUP             0       ****    0 ROOT    
