@<TRIPOS>MOLECULE
3R540
247   249    1
SMALL
USER_CHARGES


@<TRIPOS>ATOM
      1 CA          3.1022  -11.8079  -45.7805 C.3       0 UNK        -0.1800 
      2 C           3.9749  -11.3737  -46.9497 C.2       0 UNK         0.5000 
      3 O           4.0161  -10.1871  -47.2754 O.2       0 UNK        -0.5000 
      4 N           4.6738  -12.3253  -47.5734 N.am      1 UNK        -0.5000 
      5 CA          5.6282  -12.0945  -48.6566 C.3       1 UNK         0.1400 
      6 C6          4.9573  -12.0741  -50.0620 C.3       23 UNK        -0.0398 
      7 S7          4.1692  -13.6380  -50.5999 S.3       23 UNK        -0.2404 
      8 C8          2.4419  -13.3613  -50.1092 C.3       23 UNK        -0.0205 
      9 C9          1.5480  -14.5168  -50.5343 C.ar      23 UNK        -0.0193 
     10 C10         0.5678  -14.3348  -51.5135 C.ar      23 UNK        -0.1150 
     11 C11        -0.2735  -15.3891  -51.8834 C.ar      23 UNK        -0.0193 
     12 C12        -0.1285  -16.6359  -51.2648 C.ar      23 UNK        -0.1150 
     13 C13         0.8466  -16.8294  -50.2814 C.ar      23 UNK        -0.0193 
     14 C14         1.6838  -15.7674  -49.9270 C.ar      23 UNK        -0.1150 
     15 C15         1.0191  -18.1849  -49.6128 C.3       23 UNK        -0.0205 
     16 S16         0.6065  -18.1213  -47.8376 S.3       23 UNK        -0.2404 
     17 C17        -1.0114  -18.9592  -47.8177 C.3       23 UNK        -0.0398 
     18 CA         -0.8584  -20.4368  -47.3862 C.3       11 UNK         0.1400 
     19 N          -0.4473  -20.5700  -45.9857 N.am      11 UNK        -0.5000 
     20 C          -0.0267  -21.7067  -45.4148 C.2       10 UNK         0.5000 
     21 O           0.0675  -22.7816  -46.0063 O.2       10 UNK        -0.5000 
     22 CA          0.2931  -21.6325  -43.9119 C.3       10 UNK         0.1400 
     23 CB          1.5863  -20.8383  -43.6671 C.3       10 UNK        -0.1800 
     24 N          -0.7963  -21.0271  -43.1471 N.am      10 UNK        -0.5000 
     25 C          -2.0374  -21.5255  -43.0486 C.2       9 UNK         0.5000 
     26 O          -2.3957  -22.5877  -43.5563 O.2       9 UNK        -0.5000 
     27 CA         -3.0649  -20.6629  -42.2931 C.3       9 UNK         0.1400 
     28 CB         -3.0235  -20.9694  -40.7891 C.3       9 UNK        -0.1800 
     29 N          -2.8804  -19.2245  -42.4948 N.am      9 UNK        -0.5000 
     30 C          -2.8952  -18.5852  -43.6711 C.2       8 UNK         0.5000 
     31 O          -3.0482  -19.1508  -44.7533 O.2       8 UNK        -0.5000 
     32 CA         -2.6583  -17.0670  -43.6516 C.3       8 UNK         0.1400 
     33 CB         -3.9768  -16.3001  -43.4420 C.3       8 UNK        -0.1800 
     34 N          -1.6177  -16.6284  -42.7141 N.am      8 UNK        -0.5000 
     35 C          -1.6257  -16.5967  -41.3730 C.2       7 UNK         0.5000 
     36 O          -2.5383  -17.0403  -40.6757 O.2       7 UNK        -0.5000 
     37 CA         -0.3948  -15.9610  -40.7028 C.3       7 UNK         0.1400 
     38 CB          0.6956  -17.0181  -40.4672 C.3       7 UNK        -0.1800 
     39 N           0.1445  -14.8702  -41.5182 N.am      7 UNK        -0.5000 
     40 C          -0.3568  -13.6254  -41.5377 C.2       6 UNK         0.5000 
     41 O          -1.2322  -13.2286  -40.7678 O.2       6 UNK        -0.5000 
     42 CA          0.1930  -12.6682  -42.6148 C.3       6 UNK         0.1400 
     43 CB          1.4431  -11.9362  -42.1037 C.3       6 UNK        -0.1800 
     44 N           0.5183  -13.3557  -43.8652 N.am      6 UNK        -0.5000 
     45 C          -0.3811  -13.9011  -44.6980 C.2       5 UNK         0.5000 
     46 O          -1.5976  -13.7842  -44.5577 O.2       5 UNK        -0.5000 
     47 CA          0.1658  -14.7499  -45.8657 C.3       5 UNK         0.1400 
     48 CB          0.0973  -13.9567  -47.1758 C.3       5 UNK        -0.1800 
     49 N           1.5314  -15.2495  -45.6488 N.am      5 UNK        -0.5000 
     50 C           1.8719  -16.1051  -44.6767 C.2       4 UNK         0.5000 
     51 O           1.0432  -16.6253  -43.9264 O.2       4 UNK        -0.5000 
     52 CA          3.3788  -16.3496  -44.4568 C.3       4 UNK         0.1400 
     53 CB          3.6576  -17.2048  -43.2073 C.3       4 UNK        -0.1800 
     54 N           4.0555  -16.9619  -45.5988 N.am      4 UNK        -0.5000 
     55 C           4.4616  -16.3234  -46.7012 C.2       3 UNK         0.5000 
     56 O           4.1636  -15.1534  -46.9692 O.2       3 UNK        -0.5000 
     57 CA          5.3828  -17.1268  -47.6351 C.3       3 UNK         0.1400 
     58 CB          4.5911  -18.0771  -48.5419 C.3       3 UNK        -0.1800 
     59 N           6.1415  -16.2036  -48.4682 N.am      3 UNK        -0.5000 
     60 C           7.4715  -16.1807  -48.6176 C.2       2 UNK         0.5000 
     61 O           8.2298  -17.0303  -48.1485 O.2       2 UNK        -0.5000 
     62 CA          8.0597  -14.9967  -49.4172 C.3       2 UNK         0.1400 
     63 CB          8.4256  -15.4383  -50.8426 C.3       2 UNK        -0.1800 
     64 N           7.1438  -13.8552  -49.4971 N.am      2 UNK        -0.5000 
     65 C           6.7987  -13.0791  -48.4614 C.2       1 UNK         0.5000 
     66 O           7.3498  -13.1448  -47.3600 O.2       1 UNK        -0.5000 
     67 C          -2.1421  -21.2319  -47.6777 C.2       11 UNK         0.5000 
     68 O          -2.2204  -21.8829  -48.7200 O.2       11 UNK        -0.5000 
     69 N          -3.1018  -21.1971  -46.7413 N.am      12 UNK        -0.5000 
     70 CA         -4.3521  -21.9498  -46.8066 C.3       12 UNK         0.1400 
     71 CB         -5.2589  -21.5838  -45.6236 C.3       12 UNK        -0.1800 
     72 C          -4.1263  -23.4663  -46.8895 C.2       12 UNK         0.5000 
     73 O          -4.7016  -24.1101  -47.7667 O.2       12 UNK        -0.5000 
     74 N          -3.2638  -23.9870  -46.0052 N.am      13 UNK        -0.5000 
     75 CA         -2.8519  -25.3875  -45.9655 C.3       13 UNK         0.1400 
     76 CB         -2.0436  -25.6498  -44.6857 C.3       13 UNK        -0.1800 
     77 C          -2.0516  -25.8084  -47.2099 C.2       13 UNK         0.5000 
     78 O          -2.3534  -26.8484  -47.7965 O.2       13 UNK        -0.5000 
     79 N          -1.0525  -24.9974  -47.5880 N.am      14 UNK        -0.5000 
     80 CA         -0.1431  -25.2684  -48.7024 C.3       14 UNK         0.1400 
     81 CB          0.9911  -24.2323  -48.7111 C.3       14 UNK        -0.1800 
     82 C          -0.8436  -25.3066  -50.0700 C.2       14 UNK         0.5000 
     83 O          -0.5761  -26.2099  -50.8647 O.2       14 UNK        -0.5000 
     84 N          -1.7340  -24.3395  -50.3226 N.am      15 UNK        -0.5000 
     85 CA         -2.4666  -24.2126  -51.5780 C.3       15 UNK         0.1400 
     86 CB         -2.7805  -22.7354  -51.8308 C.3       15 UNK        -0.1800 
     87 C          -3.7199  -25.1060  -51.5833 C.2       15 UNK         0.5000 
     88 O          -4.8457  -24.6138  -51.4545 O.2       15 UNK        -0.5000 
     89 N          -3.4768  -26.4167  -51.7217 N.am      16 UNK        -0.5000 
     90 CA         -4.4492  -27.5022  -51.9033 C.3       16 UNK         0.1400 
     91 CB         -5.1889  -27.3285  -53.2471 C.3       16 UNK        -0.1800 
     92 C          -5.4269  -27.6929  -50.7243 C.2       16 UNK         0.5000 
     93 O          -6.5018  -28.2638  -50.9153 O.2       16 UNK        -0.5000 
     94 N          -5.0487  -27.1990  -49.5350 N.am      17 UNK        -0.5000 
     95 CA         -5.8518  -27.1315  -48.3080 C.3       17 UNK         0.1400 
     96 CB         -6.1277  -28.5443  -47.7528 C.3       17 UNK        -0.1800 
     97 C          -7.1360  -26.2821  -48.4578 C.2       17 UNK         0.5000 
     98 O          -8.0917  -26.4850  -47.7061 O.2       17 UNK        -0.5000 
     99 N          -7.1443  -25.3604  -49.4307 N.am      18 UNK        -0.5000 
    100 CA        -8.3120  -24.5789  -49.8351 C.3       18 UNK         0.1400 
    101 CB        -8.9135  -25.2302  -51.0938 C.3       18 UNK        -0.1800 
    102 C         -7.9828  -23.0966  -50.0853 C.2       18 UNK         0.5000 
    103 O         -8.8753  -22.3580  -50.5037 O.2       18 UNK        -0.5000 
    104 N         -6.7244  -22.6845  -49.8565 N.am      19 UNK        -0.5000 
    105 CA        -6.1721  -21.3575  -50.1681 C.3       19 UNK         0.1400 
    106 CB        -6.8266  -20.2618  -49.2983 C.3       19 UNK        -0.1800 
    107 C         -6.2250  -21.0235  -51.6745 C.2       19 UNK         0.5000 
    108 O         -6.3830  -19.8586  -52.0437 O.2       19 UNK        -0.5000 
    109 N         -6.0794  -22.0507  -52.5240 N.am      20 UNK        -0.5000 
    110 CA        -6.2901  -22.0030  -53.9757 C.3       20 UNK         0.1400 
    111 CB        -6.0953  -23.4196  -54.5391 C.3       20 UNK        -0.1800 
    112 C         -5.4123  -20.9916  -54.7441 C.2       20 UNK         0.5000 
    113 O         -5.7854  -20.5760  -55.8416 O.2       20 UNK        -0.5000 
    114 N         -4.2686  -20.6178  -54.1592 N.am      21 UNK        -0.5000 
    115 CA        -3.3038  -19.6781  -54.7218 C.3       21 UNK         0.1400 
    116 CB        -1.9199  -19.9847  -54.1257 C.3       21 UNK        -0.1800 
    117 C         -3.6633  -18.2012  -54.4752 C.2       21 UNK         0.5000 
    118 O         -3.1268  -17.3475  -55.1824 O.2       21 UNK        -0.5000 
    119 N         -4.5139  -17.9108  -53.4788 N.am      22 UNK        -0.5000 
    120 CA        -4.7764  -16.5373  -53.0103 C.3       22 UNK         0.1400 
    121 C         -6.2501  -16.2407  -52.6121 C.2       22 UNK         0.5000 
    122 N         -7.1240  -17.2250  -52.4526 N.am      22 UNK        -0.7600 
    123 O         -6.6211  -15.0793  -52.4660 O.2       22 UNK        -0.5000 
    124 C124       -3.7646  -16.1105  -51.9023 C.3       23 UNK        -0.0398 
    125 S125       -2.8945  -14.5570  -52.3038 S.3       23 UNK        -0.2404 
    126 C126       -1.3165  -15.1777  -52.9712 C.3       23 UNK        -0.0205 
    127 H127        3.4436  -11.3286  -44.8632 H         1 UNK         0.0600 
    128 H128        2.0665  -11.5155  -45.9517 H         1 UNK         0.0600 
    129 H129        3.1384  -12.8862  -45.6318 H         1 UNK         0.0600 
    130 H130        4.6056  -13.2914  -47.2620 H         1 UNK         0.3000 
    131 H131        6.0795  -11.1109  -48.5093 H         1 UNK         0.0600 
    132 H132        4.2126  -11.2777  -50.0917 H         1 UNK         0.0800 
    133 H133        5.6941  -11.7934  -50.8162 H         1 UNK         0.0800 
    134 H134        2.3926  -13.2481  -49.0266 H         1 UNK         0.0800 
    135 H135        2.0872  -12.4233  -50.5388 H         1 UNK         0.0800 
    136 H136        0.4552  -13.3702  -51.9883 H         1 UNK         0.1150 
    137 H137       -0.7677  -17.4573  -51.5544 H         1 UNK         0.1150 
    138 H138        2.4317  -15.9049  -49.1597 H         1 UNK         0.1150 
    139 H139        0.4236  -18.9470  -50.1172 H         1 UNK         0.0800 
    140 H140        2.0513  -18.5098  -49.7270 H         1 UNK         0.0800 
    141 H141       -1.4712  -18.8763  -48.8043 H         1 UNK         0.0800 
    142 H142       -1.6724  -18.4240  -47.1339 H         1 UNK         0.0800 
    143 H143       -0.0735  -20.8855  -47.9993 H         1 UNK         0.0600 
    144 H144       -0.5270  -19.7411  -45.4163 H         1 UNK         0.3000 
    145 H145        0.4379  -22.6519  -43.5479 H         1 UNK         0.0600 
    146 H146        1.8625  -20.8496  -42.6126 H         1 UNK         0.0600 
    147 H147        2.4196  -21.2670  -44.2254 H         1 UNK         0.0600 
    148 H148        1.4856  -19.7967  -43.9751 H         1 UNK         0.0600 
    149 H149       -0.6039  -20.1422  -42.7024 H         1 UNK         0.3000 
    150 H150       -4.0567  -20.9220  -42.6663 H         1 UNK         0.0600 
    151 H151       -3.1778  -22.0331  -40.6023 H         1 UNK         0.0600 
    152 H152       -3.8060  -20.4295  -40.2554 H         1 UNK         0.0600 
    153 H153       -2.0651  -20.6927  -40.3479 H         1 UNK         0.0600 
    154 H154       -2.7696  -18.6516  -41.6628 H         1 UNK         0.3000 
    155 H155       -2.2844  -16.8016  -44.6415 H         1 UNK         0.0600 
    156 H156       -4.6976  -16.5493  -44.2216 H         1 UNK         0.0600 
    157 H157       -3.8151  -15.2227  -43.4812 H         1 UNK         0.0600 
    158 H158       -4.4407  -16.5354  -42.4839 H         1 UNK         0.0600 
    159 H159       -0.7488  -16.3536  -43.1604 H         1 UNK         0.3000 
    160 H160       -0.7017  -15.5671  -39.7315 H         1 UNK         0.0600 
    161 H161        1.5769  -16.5792  -39.9994 H         1 UNK         0.0600 
    162 H162        1.0099  -17.4947  -41.3959 H         1 UNK         0.0600 
    163 H163        0.3343  -17.8056  -39.8046 H         1 UNK         0.0600 
    164 H164        0.8389  -15.1266  -42.2050 H         1 UNK         0.3000 
    165 H165       -0.5781  -11.9238  -42.8245 H         1 UNK         0.0600 
    166 H166        1.7913  -11.1990  -42.8273 H         1 UNK         0.0600 
    167 H167        1.2305  -11.4029  -41.1761 H         1 UNK         0.0600 
    168 H168        2.2635  -12.6268  -41.9047 H         1 UNK         0.0600 
    169 H169        1.4968  -13.4806  -44.0713 H         1 UNK         0.3000 
    170 H170       -0.4927  -15.6152  -45.9657 H         1 UNK         0.0600 
    171 H171       -0.8825  -13.4964  -47.3100 H         1 UNK         0.0600 
    172 H172        0.8413  -13.1625  -47.2125 H         1 UNK         0.0600 
    173 H173        0.2509  -14.6145  -48.0264 H         1 UNK         0.0600 
    174 H174        2.2627  -14.9112  -46.2642 H         1 UNK         0.3000 
    175 H175        3.8295  -15.3705  -44.2809 H         1 UNK         0.0600 
    176 H176        4.7283  -17.3073  -43.0302 H         1 UNK         0.0600 
    177 H177        3.2290  -16.7475  -42.3148 H         1 UNK         0.0600 
    178 H178        3.2364  -18.2061  -43.2996 H         1 UNK         0.0600 
    179 H179        4.3056  -17.9336  -45.4864 H         1 UNK         0.3000 
    180 H180        6.0551  -17.7147  -47.0067 H         1 UNK         0.0600 
    181 H181        4.0460  -17.5270  -49.3071 H         1 UNK         0.0600 
    182 H182        3.8745  -18.6726  -47.9747 H         1 UNK         0.0600 
    183 H183        5.2590  -18.7707  -49.0527 H         1 UNK         0.0600 
    184 H184        5.6039  -15.4326  -48.8398 H         1 UNK         0.3000 
    185 H185        8.9719  -14.6747  -48.9106 H         1 UNK         0.0600 
    186 H186        8.8964  -14.6273  -51.3985 H         1 UNK         0.0600 
    187 H187        9.1301  -16.2708  -50.8250 H         1 UNK         0.0600 
    188 H188        7.5466  -15.7635  -51.4008 H         1 UNK         0.0600 
    189 H189        6.6260  -13.7591  -50.3602 H         1 UNK         0.3000 
    190 H190       -2.9754  -20.5933  -45.9323 H         1 UNK         0.3000 
    191 H191       -4.8593  -21.6447  -47.7168 H         1 UNK         0.0600 
    192 H192       -4.8209  -21.8831  -44.6726 H         1 UNK         0.0600 
    193 H193       -6.2262  -22.0805  -45.7088 H         1 UNK         0.0600 
    194 H194       -5.4462  -20.5105  -45.5856 H         1 UNK         0.0600 
    195 H195       -2.8557  -23.3789  -45.3009 H         1 UNK         0.3000 
    196 H196       -3.7527  -26.0009  -45.9194 H         1 UNK         0.0600 
    197 H197       -1.1496  -25.0267  -44.6380 H         1 UNK         0.0600 
    198 H198       -1.7238  -26.6911  -44.6303 H         1 UNK         0.0600 
    199 H199       -2.6394  -25.4448  -43.7960 H         1 UNK         0.0600 
    200 H200       -0.8530  -24.1682  -47.0353 H         1 UNK         0.3000 
    201 H201        0.3009  -26.2516  -48.5338 H         1 UNK         0.0600 
    202 H202        0.6070  -23.2172  -48.8187 H         1 UNK         0.0600 
    203 H203        1.6815  -24.4127  -49.5360 H         1 UNK         0.0600 
    204 H204        1.5705  -24.2753  -47.7889 H         1 UNK         0.0600 
    205 H205       -1.9177  -23.6306  -49.6178 H         1 UNK         0.3000 
    206 H206       -1.8288  -24.5408  -52.4018 H         1 UNK         0.0600 
    207 H207       -1.8694  -22.1375  -51.8551 H         1 UNK         0.0600 
    208 H208       -3.2735  -22.6253  -52.7936 H         1 UNK         0.0600 
    209 H209       -3.4295  -22.3238  -51.0617 H         1 UNK         0.0600 
    210 H210       -2.5030  -26.6999  -51.7300 H         1 UNK         0.3000 
    211 H211       -3.8675  -28.4230  -51.9620 H         1 UNK         0.0600 
    212 H212       -5.8547  -26.4649  -53.2323 H         1 UNK         0.0600 
    213 H213       -5.7960  -28.2043  -53.4789 H         1 UNK         0.0600 
    214 H214       -4.4873  -27.1969  -54.0708 H         1 UNK         0.0600 
    215 H215       -4.1380  -26.7627  -49.4743 H         1 UNK         0.3000 
    216 H216       -5.2370  -26.6177  -47.5726 H         1 UNK         0.0600 
    217 H217       -5.2045  -29.1158  -47.6563 H         1 UNK         0.0600 
    218 H218       -6.5802  -28.4937  -46.7619 H         1 UNK         0.0600 
    219 H219       -6.8074  -29.1076  -48.3926 H         1 UNK         0.0600 
    220 H220       -6.3151  -25.2595  -50.0059 H         1 UNK         0.3000 
    221 H221       -9.0657  -24.5899  -49.0454 H         1 UNK         0.0600 
    222 H222       -8.2063  -25.2191  -51.9245 H         1 UNK         0.0600 
    223 H223       -9.1902  -26.2679  -50.9062 H         1 UNK         0.0600 
    224 H224       -9.8148  -24.7094  -51.4194 H         1 UNK         0.0600 
    225 H225       -6.0641  -23.3600  -49.4903 H         1 UNK         0.3000 
    226 H226       -5.1151  -21.3931  -49.9108 H         1 UNK         0.0600 
    227 H227       -6.8494  -20.5414  -48.2456 H         1 UNK         0.0600 
    228 H228       -6.2743  -19.3243  -49.3741 H         1 UNK         0.0600 
    229 H229       -7.8522  -20.0582  -49.6073 H         1 UNK         0.0600 
    230 H230       -5.8933  -22.9676  -52.1305 H         1 UNK         0.3000 
    231 H231       -7.3290  -21.7107  -54.1400 H         1 UNK         0.0600 
    232 H232       -6.7856  -24.1258  -54.0772 H         1 UNK         0.0600 
    233 H233       -5.0815  -23.7838  -54.3682 H         1 UNK         0.0600 
    234 H234       -6.2776  -23.4445  -55.6142 H         1 UNK         0.0600 
    235 H235       -4.0553  -20.9994  -53.2508 H         1 UNK         0.3000 
    236 H236       -3.2494  -19.8294  -55.8020 H         1 UNK         0.0600 
    237 H237       -1.1573  -19.3299  -54.5496 H         1 UNK         0.0600 
    238 H238       -1.9063  -19.8440  -53.0442 H         1 UNK         0.0600 
    239 H239       -1.6171  -21.0106  -54.3365 H         1 UNK         0.0600 
    240 H240       -4.9721  -18.6602  -52.9742 H         1 UNK         0.3000 
    241 H241       -4.6377  -15.8825  -53.8728 H         1 UNK         0.0600 
    242 H242       -6.8472  -18.2046  -52.4668 H         1 UNK         0.3800 
    243 H243       -8.0737  -16.9926  -52.2108 H         1 UNK         0.3800 
    244 H244       -4.2554  -15.9803  -50.9360 H         1 UNK         0.0800 
    245 H245       -3.0239  -16.8903  -51.7274 H         1 UNK         0.0800 
    246 H246       -0.9416  -14.4570  -53.6994 H         1 UNK         0.0800 
    247 H247       -1.4783  -16.1022  -53.5257 H         1 UNK         0.0800 
@<TRIPOS>BOND
     1    1    2 1    
     2    1  127 1    
     3    1  128 1    
     4    1  129 1    
     5    2    3 2    
     6    2    4 am   BACKBONE|DICT|INTERRES
     7    4    5 1    
     8    4  130 1    
     9    5    6 1    
    10    5   65 1    
    11    5  131 1    
    12    6    7 1    
    13    6  132 1    
    14    6  133 1    
    15    7    8 1    
    16    8    9 1    
    17    8  134 1    
    18    8  135 1    
    19    9   10 ar   
    20    9   14 ar   
    21   10   11 ar   
    22   10  136 1    
    23   11   12 ar   
    24   11  126 1    
    25   12   13 ar   
    26   12  137 1    
    27   13   14 ar   
    28   13   15 1    
    29   14  138 1    
    30   15   16 1    
    31   15  139 1    
    32   15  140 1    
    33   16   17 1    
    34   17   18 1    
    35   17  141 1    
    36   17  142 1    
    37   18   19 1    
    38   18   67 1    
    39   18  143 1    
    40   19   20 am   BACKBONE|DICT|INTERRES
    41   19  144 1    
    42   20   21 2    
    43   20   22 1    
    44   22   23 1    
    45   22   24 1    
    46   22  145 1    
    47   23  146 1    
    48   23  147 1    
    49   23  148 1    
    50   24   25 am   BACKBONE|DICT|INTERRES
    51   24  149 1    
    52   25   26 2    
    53   25   27 1    
    54   27   28 1    
    55   27   29 1    
    56   27  150 1    
    57   28  151 1    
    58   28  152 1    
    59   28  153 1    
    60   29   30 am   BACKBONE|DICT|INTERRES
    61   29  154 1    
    62   30   31 2    
    63   30   32 1    
    64   32   33 1    
    65   32   34 1    
    66   32  155 1    
    67   33  156 1    
    68   33  157 1    
    69   33  158 1    
    70   34   35 am   BACKBONE|DICT|INTERRES
    71   34  159 1    
    72   35   36 2    
    73   35   37 1    
    74   37   38 1    
    75   37   39 1    
    76   37  160 1    
    77   38  161 1    
    78   38  162 1    
    79   38  163 1    
    80   39   40 am   BACKBONE|DICT|INTERRES
    81   39  164 1    
    82   40   41 2    
    83   40   42 1    
    84   42   43 1    
    85   42   44 1    
    86   42  165 1    
    87   43  166 1    
    88   43  167 1    
    89   43  168 1    
    90   44   45 am   BACKBONE|DICT|INTERRES
    91   44  169 1    
    92   45   46 2    
    93   45   47 1    
    94   47   48 1    
    95   47   49 1    
    96   47  170 1    
    97   48  171 1    
    98   48  172 1    
    99   48  173 1    
   100   49   50 am   BACKBONE|DICT|INTERRES
   101   49  174 1    
   102   50   51 2    
   103   50   52 1    
   104   52   53 1    
   105   52   54 1    
   106   52  175 1    
   107   53  176 1    
   108   53  177 1    
   109   53  178 1    
   110   54   55 am   BACKBONE|DICT|INTERRES
   111   54  179 1    
   112   55   56 2    
   113   55   57 1    
   114   57   58 1    
   115   57   59 1    
   116   57  180 1    
   117   58  181 1    
   118   58  182 1    
   119   58  183 1    
   120   59   60 am   BACKBONE|DICT|INTERRES
   121   59  184 1    
   122   60   61 2    
   123   60   62 1    
   124   62   63 1    
   125   62   64 1    
   126   62  185 1    
   127   63  186 1    
   128   63  187 1    
   129   63  188 1    
   130   64   65 am   BACKBONE|DICT|INTERRES
   131   64  189 1    
   132   65   66 2    
   133   67   68 2    
   134   67   69 am   BACKBONE|DICT|INTERRES
   135   69   70 1    
   136   69  190 1    
   137   70   71 1    
   138   70   72 1    
   139   70  191 1    
   140   71  192 1    
   141   71  193 1    
   142   71  194 1    
   143   72   73 2    
   144   72   74 am   BACKBONE|DICT|INTERRES
   145   74   75 1    
   146   74  195 1    
   147   75   76 1    
   148   75   77 1    
   149   75  196 1    
   150   76  197 1    
   151   76  198 1    
   152   76  199 1    
   153   77   78 2    
   154   77   79 am   BACKBONE|DICT|INTERRES
   155   79   80 1    
   156   79  200 1    
   157   80   81 1    
   158   80   82 1    
   159   80  201 1    
   160   81  202 1    
   161   81  203 1    
   162   81  204 1    
   163   82   83 2    
   164   82   84 am   BACKBONE|DICT|INTERRES
   165   84   85 1    
   166   84  205 1    
   167   85   86 1    
   168   85   87 1    
   169   85  206 1    
   170   86  207 1    
   171   86  208 1    
   172   86  209 1    
   173   87   88 2    
   174   87   89 am   BACKBONE|DICT|INTERRES
   175   89   90 1    
   176   89  210 1    
   177   90   91 1    
   178   90   92 1    
   179   90  211 1    
   180   91  212 1    
   181   91  213 1    
   182   91  214 1    
   183   92   93 2    
   184   92   94 am   BACKBONE|DICT|INTERRES
   185   94   95 1    
   186   94  215 1    
   187   95   96 1    
   188   95   97 1    
   189   95  216 1    
   190   96  217 1    
   191   96  218 1    
   192   96  219 1    
   193   97   98 2    
   194   97   99 am   BACKBONE|DICT|INTERRES
   195   99  100 1    
   196   99  220 1    
   197  100  101 1    
   198  100  102 1    
   199  100  221 1    
   200  101  222 1    
   201  101  223 1    
   202  101  224 1    
   203  102  103 2    
   204  102  104 am   BACKBONE|DICT|INTERRES
   205  104  105 1    
   206  104  225 1    
   207  105  106 1    
   208  105  107 1    
   209  105  226 1    
   210  106  227 1    
   211  106  228 1    
   212  106  229 1    
   213  107  108 2    
   214  107  109 am   BACKBONE|DICT|INTERRES
   215  109  110 1    
   216  109  230 1    
   217  110  111 1    
   218  110  112 1    
   219  110  231 1    
   220  111  232 1    
   221  111  233 1    
   222  111  234 1    
   223  112  113 2    
   224  112  114 am   BACKBONE|DICT|INTERRES
   225  114  115 1    
   226  114  235 1    
   227  115  116 1    
   228  115  117 1    
   229  115  236 1    
   230  116  237 1    
   231  116  238 1    
   232  116  239 1    
   233  117  118 2    
   234  117  119 am   BACKBONE|DICT|INTERRES
   235  119  120 1    
   236  119  240 1    
   237  120  121 1    
   238  120  124 1    
   239  120  241 1    
   240  121  122 am   BACKBONE|DICT|INTERRES
   241  121  123 2    
   242  122  242 1    
   243  122  243 1    
   244  124  125 1    
   245  124  244 1    
   246  124  245 1    
   247  125  126 1    
   248  126  246 1    
   249  126  247 1    
@<TRIPOS>SUBSTRUCTURE
     1 UNK         1 GROUP             0       ****    0 ROOT    
