@<TRIPOS>MOLECULE
3R540
247   249    1
SMALL
USER_CHARGES


@<TRIPOS>ATOM
      1 CA          1.5409  -13.0375  -50.5945 C.3       0 UNK        -0.1800 
      2 C           1.1681  -14.1273  -49.5999 C.2       0 UNK         0.5000 
      3 O           0.8942  -13.8306  -48.4373 O.2       0 UNK        -0.5000 
      4 N           1.1445  -15.3864  -50.0519 N.am      1 UNK        -0.5000 
      5 CA          0.8197  -16.5779  -49.2573 C.3       1 UNK         0.1400 
      6 C6          1.4878  -17.8505  -49.8372 C.3       23 UNK        -0.0398 
      7 S7          3.3083  -17.7407  -49.8498 S.3       23 UNK        -0.2404 
      8 C8          3.6703  -17.9925  -51.6172 C.3       23 UNK        -0.0205 
      9 C9          3.2995  -19.3961  -52.0747 C.ar      23 UNK        -0.0193 
     10 C10         2.2459  -19.5992  -52.9729 C.ar      23 UNK        -0.1150 
     11 C11         1.9077  -20.8912  -53.3878 C.ar      23 UNK        -0.0193 
     12 C12         2.6260  -21.9819  -52.8907 C.ar      23 UNK        -0.1150 
     13 C13         3.6768  -21.7911  -51.9898 C.ar      23 UNK        -0.0193 
     14 C14         4.0150  -20.4956  -51.5930 C.ar      23 UNK        -0.1150 
     15 C15         4.4478  -22.9858  -51.4526 C.3       23 UNK        -0.0205 
     16 S16         3.4627  -23.9467  -50.2631 S.3       23 UNK        -0.2404 
     17 C17         3.4707  -22.8621  -48.7949 C.3       23 UNK        -0.0398 
     18 CA          2.3272  -23.2319  -47.8136 C.3       11 UNK         0.1400 
     19 N           2.7683  -23.2448  -46.4156 N.am      11 UNK        -0.5000 
     20 C           2.1119  -23.8836  -45.4361 C.2       10 UNK         0.5000 
     21 O           1.0771  -24.5217  -45.6196 O.2       10 UNK        -0.5000 
     22 CA          2.6772  -23.7564  -44.0101 C.3       10 UNK         0.1400 
     23 CB          3.6729  -24.8896  -43.7226 C.3       10 UNK        -0.1800 
     24 N           3.3234  -22.4666  -43.7609 N.am      10 UNK        -0.5000 
     25 C           2.6886  -21.2884  -43.7699 C.2       9 UNK         0.5000 
     26 O           1.4831  -21.1610  -43.9987 O.2       9 UNK        -0.5000 
     27 CA          3.5597  -20.0477  -43.5365 C.3       9 UNK         0.1400 
     28 CB          3.5547  -19.1330  -44.7724 C.3       9 UNK        -0.1800 
     29 N           3.0729  -19.3005  -42.3837 N.am      9 UNK        -0.5000 
     30 C           3.4771  -19.4982  -41.1237 C.2       8 UNK         0.5000 
     31 O           4.2863  -20.3679  -40.7974 O.2       8 UNK        -0.5000 
     32 CA          2.9046  -18.5623  -40.0482 C.3       8 UNK         0.1400 
     33 CB          3.5246  -17.1597  -40.1634 C.3       8 UNK        -0.1800 
     34 N           1.4484  -18.4487  -40.1323 N.am      8 UNK        -0.5000 
     35 C           0.6076  -18.6713  -39.1107 C.2       7 UNK         0.5000 
     36 O           0.9735  -19.0601  -38.0003 O.2       7 UNK        -0.5000 
     37 CA         -0.8946  -18.3968  -39.3366 C.3       7 UNK         0.1400 
     38 CB         -1.3206  -17.1132  -38.6070 C.3       7 UNK        -0.1800 
     39 N          -1.2518  -18.2779  -40.7493 N.am      7 UNK        -0.5000 
     40 C          -1.3850  -19.3204  -41.5811 C.2       6 UNK         0.5000 
     41 O          -1.3176  -20.4918  -41.2096 O.2       6 UNK        -0.5000 
     42 CA         -1.6076  -19.0171  -43.0767 C.3       6 UNK         0.1400 
     43 CB         -3.0540  -19.3238  -43.4896 C.3       6 UNK        -0.1800 
     44 N          -1.2827  -17.6435  -43.4761 N.am      6 UNK        -0.5000 
     45 C          -0.0614  -17.0899  -43.4211 C.2       5 UNK         0.5000 
     46 O           0.9328  -17.6785  -43.0013 O.2       5 UNK        -0.5000 
     47 CA          0.0698  -15.6179  -43.8504 C.3       5 UNK         0.1400 
     48 CB          0.4395  -15.5383  -45.3375 C.3       5 UNK        -0.1800 
     49 N          -1.1378  -14.8288  -43.5934 N.am      5 UNK        -0.5000 
     50 C          -1.6724  -14.6394  -42.3758 C.2       4 UNK         0.5000 
     51 O          -1.1726  -15.0852  -41.3425 O.2       4 UNK        -0.5000 
     52 CA         -2.9980  -13.8590  -42.2806 C.3       4 UNK         0.1400 
     53 CB         -2.7418  -12.4278  -41.7847 C.3       4 UNK        -0.1800 
     54 N          -3.7656  -13.7968  -43.5257 N.am      4 UNK        -0.5000 
     55 C          -4.2597  -14.8432  -44.2009 C.2       3 UNK         0.5000 
     56 O          -4.0868  -16.0167  -43.8659 O.2       3 UNK        -0.5000 
     57 CA         -5.0568  -14.5355  -45.4854 C.3       3 UNK         0.1400 
     58 CB         -5.3297  -13.0329  -45.7227 C.3       3 UNK        -0.1800 
     59 N          -4.4275  -15.1214  -46.6693 N.am      3 UNK        -0.5000 
     60 C          -3.1735  -14.9428  -47.1010 C.2       2 UNK         0.5000 
     61 O          -2.3326  -14.2430  -46.5292 O.2       2 UNK        -0.5000 
     62 CA         -2.8241  -15.6552  -48.4144 C.3       2 UNK         0.1400 
     63 CB         -3.4242  -14.9083  -49.6180 C.3       2 UNK        -0.1800 
     64 N          -1.3779  -15.7240  -48.5764 N.am      2 UNK        -0.5000 
     65 C          -0.7103  -16.7445  -49.1218 C.2       1 UNK         0.5000 
     66 O          -1.2569  -17.7709  -49.5273 O.2       1 UNK        -0.5000 
     67 C           1.0659  -22.3622  -48.0163 C.2       11 UNK         0.5000 
     68 O           0.2177  -22.7120  -48.8342 O.2       11 UNK        -0.5000 
     69 N           0.9232  -21.2848  -47.2277 N.am      12 UNK        -0.5000 
     70 CA         -0.2832  -20.4522  -47.1927 C.3       12 UNK         0.1400 
     71 CB          0.0206  -19.1328  -46.4705 C.3       12 UNK        -0.1800 
     72 C          -1.4667  -21.1785  -46.5265 C.2       12 UNK         0.5000 
     73 O          -2.6071  -21.0177  -46.9644 O.2       12 UNK        -0.5000 
     74 N          -1.1697  -21.9943  -45.5039 N.am      13 UNK        -0.5000 
     75 CA         -2.1311  -22.8872  -44.8573 C.3       13 UNK         0.1400 
     76 CB         -1.5406  -23.4309  -43.5487 C.3       13 UNK        -0.1800 
     77 C          -2.5781  -24.0294  -45.7889 C.2       13 UNK         0.5000 
     78 O          -3.7699  -24.3294  -45.8433 O.2       13 UNK        -0.5000 
     79 N          -1.6362  -24.6067  -46.5504 N.am      14 UNK        -0.5000 
     80 CA         -1.8989  -25.6052  -47.5936 C.3       14 UNK         0.1400 
     81 CB         -0.5710  -26.1852  -48.1021 C.3       14 UNK        -0.1800 
     82 C          -2.7319  -25.0430  -48.7634 C.2       14 UNK         0.5000 
     83 O          -3.5684  -25.7581  -49.3147 O.2       14 UNK        -0.5000 
     84 N          -2.5321  -23.7551  -49.0760 N.am      15 UNK        -0.5000 
     85 CA         -3.3313  -22.9634  -50.0154 C.3       15 UNK         0.1400 
     86 CB         -2.4879  -21.7694  -50.4922 C.3       15 UNK        -0.1800 
     87 C          -4.6890  -22.5002  -49.4334 C.2       15 UNK         0.5000 
     88 O          -5.4080  -21.7523  -50.1001 O.2       15 UNK        -0.5000 
     89 N          -5.0143  -22.9433  -48.2079 N.am      16 UNK        -0.5000 
     90 CA         -6.2675  -22.7554  -47.4721 C.3       16 UNK         0.1400 
     91 CB         -7.4272  -23.4680  -48.1992 C.3       16 UNK        -0.1800 
     92 C          -6.5878  -21.2850  -47.1455 C.2       16 UNK         0.5000 
     93 O          -7.7617  -20.9394  -47.0053 O.2       16 UNK        -0.5000 
     94 N          -5.5518  -20.4355  -47.0668 N.am      17 UNK        -0.5000 
     95 CA         -5.5693  -18.9811  -46.8521 C.3       17 UNK         0.1400 
     96 CB         -6.1853  -18.6289  -45.4853 C.3       17 UNK        -0.1800 
     97 C          -6.2298  -18.1551  -47.9791 C.2       17 UNK         0.5000 
     98 O          -5.8649  -16.9933  -48.1527 O.2       17 UNK        -0.5000 
     99 N          -7.1720  -18.7416  -48.7263 N.am      18 UNK        -0.5000 
    100 CA        -7.8478  -18.1391  -49.8739 C.3       18 UNK         0.1400 
    101 CB        -9.0492  -19.0135  -50.2635 C.3       18 UNK        -0.1800 
    102 C         -6.9102  -17.9401  -51.0780 C.2       18 UNK         0.5000 
    103 O         -7.0451  -16.9403  -51.7843 O.2       18 UNK        -0.5000 
    104 N         -5.9730  -18.8820  -51.2680 N.am      19 UNK        -0.5000 
    105 CA        -4.9458  -18.9089  -52.3089 C.3       19 UNK         0.1400 
    106 CB        -3.8872  -17.8146  -52.0528 C.3       19 UNK        -0.1800 
    107 C         -5.5440  -18.8955  -53.7300 C.2       19 UNK         0.5000 
    108 O         -6.1285  -19.9014  -54.1349 O.2       19 UNK        -0.5000 
    109 N         -5.3685  -17.7809  -54.4576 N.am      20 UNK        -0.5000 
    110 CA        -5.7426  -17.5692  -55.8622 C.3       20 UNK         0.1400 
    111 CB        -7.2749  -17.6119  -56.0435 C.3       20 UNK        -0.1800 
    112 C         -4.9849  -18.5189  -56.8156 C.2       20 UNK         0.5000 
    113 O         -5.5623  -19.0456  -57.7689 O.2       20 UNK        -0.5000 
    114 N         -3.6958  -18.7225  -56.5247 N.am      21 UNK        -0.5000 
    115 CA        -2.7736  -19.5887  -57.2467 C.3       21 UNK         0.1400 
    116 CB        -2.9019  -21.0286  -56.7162 C.3       21 UNK        -0.1800 
    117 C         -1.3461  -19.0570  -57.0551 C.2       21 UNK         0.5000 
    118 O         -1.1060  -18.2584  -56.1447 O.2       21 UNK        -0.5000 
    119 N         -0.4282  -19.5309  -57.9054 N.am      22 UNK        -0.5000 
    120 CA         1.0172  -19.2278  -57.8920 C.3       22 UNK         0.1400 
    121 C          1.3896  -17.7810  -58.3422 C.2       22 UNK         0.5000 
    122 N          0.4853  -17.0213  -58.9483 N.am      22 UNK        -0.7600 
    123 O          2.5256  -17.3463  -58.1715 O.2       22 UNK        -0.5000 
    124 C124        1.7306  -19.6327  -56.5685 C.3       23 UNK        -0.0398 
    125 S125        1.3893  -21.3563  -56.0641 S.3       23 UNK        -0.2404 
    126 C126        0.7675  -21.1218  -54.3687 C.3       23 UNK        -0.0205 
    127 H127        0.7212  -12.3262  -50.6956 H         1 UNK         0.0600 
    128 H128        1.7609  -13.4463  -51.5810 H         1 UNK         0.0600 
    129 H129        2.4215  -12.4978  -50.2461 H         1 UNK         0.0600 
    130 H130        1.3583  -15.5604  -51.0229 H         1 UNK         0.3000 
    131 H131        1.2088  -16.4375  -48.2466 H         1 UNK         0.0600 
    132 H132        1.2247  -18.7337  -49.2547 H         1 UNK         0.0800 
    133 H133        1.1167  -18.0406  -50.8451 H         1 UNK         0.0800 
    134 H134        4.7361  -17.8326  -51.7858 H         1 UNK         0.0800 
    135 H135        3.1501  -17.2364  -52.2072 H         1 UNK         0.0800 
    136 H136        1.6888  -18.7527  -53.3488 H         1 UNK         0.1150 
    137 H137        2.3659  -22.9834  -53.2042 H         1 UNK         0.1150 
    138 H138        4.8275  -20.3391  -50.8972 H         1 UNK         0.1150 
    139 H139        4.7250  -23.6340  -52.2851 H         1 UNK         0.0800 
    140 H140        5.3826  -22.6730  -50.9847 H         1 UNK         0.0800 
    141 H141        3.4248  -21.8137  -49.0950 H         1 UNK         0.0800 
    142 H142        4.4442  -22.9909  -48.3199 H         1 UNK         0.0800 
    143 H143        2.0220  -24.2581  -48.0294 H         1 UNK         0.0600 
    144 H144        3.6150  -22.7444  -46.1895 H         1 UNK         0.3000 
    145 H145        1.8407  -23.8519  -43.3146 H         1 UNK         0.0600 
    146 H146        4.0184  -24.8583  -42.6891 H         1 UNK         0.0600 
    147 H147        3.2098  -25.8648  -43.8793 H         1 UNK         0.0600 
    148 H148        4.5475  -24.8333  -44.3719 H         1 UNK         0.0600 
    149 H149        4.3123  -22.4902  -43.5564 H         1 UNK         0.3000 
    150 H150        4.5918  -20.3598  -43.3621 H         1 UNK         0.0600 
    151 H151        3.8806  -19.6710  -45.6634 H         1 UNK         0.0600 
    152 H152        4.2319  -18.2898  -44.6363 H         1 UNK         0.0600 
    153 H153        2.5637  -18.7283  -44.9748 H         1 UNK         0.0600 
    154 H154        2.3414  -18.6194  -42.5809 H         1 UNK         0.3000 
    155 H155        3.2020  -18.9772  -39.0829 H         1 UNK         0.0600 
    156 H156        3.2478  -16.6714  -41.0989 H         1 UNK         0.0600 
    157 H157        4.6136  -17.2078  -40.1254 H         1 UNK         0.0600 
    158 H158        3.1986  -16.5189  -39.3440 H         1 UNK         0.0600 
    159 H159        1.0686  -18.1662  -41.0289 H         1 UNK         0.3000 
    160 H160       -1.4509  -19.2307  -38.9034 H         1 UNK         0.0600 
    161 H161       -0.7557  -16.2473  -38.9538 H         1 UNK         0.0600 
    162 H162       -1.1541  -17.2018  -37.5327 H         1 UNK         0.0600 
    163 H163       -2.3804  -16.9052  -38.7553 H         1 UNK         0.0600 
    164 H164       -1.3109  -17.3385  -41.1228 H         1 UNK         0.3000 
    165 H165       -0.9506  -19.6941  -43.6231 H         1 UNK         0.0600 
    166 H166       -3.1816  -19.2326  -44.5684 H         1 UNK         0.0600 
    167 H167       -3.3354  -20.3405  -43.2143 H         1 UNK         0.0600 
    168 H168       -3.7602  -18.6469  -43.0077 H         1 UNK         0.0600 
    169 H169       -2.0614  -17.0685  -43.7752 H         1 UNK         0.3000 
    170 H170        0.8830  -15.1760  -43.2712 H         1 UNK         0.0600 
    171 H171        1.3814  -16.0518  -45.5347 H         1 UNK         0.0600 
    172 H172       -0.3227  -16.0036  -45.9615 H         1 UNK         0.0600 
    173 H173        0.5569  -14.5048  -45.6641 H         1 UNK         0.0600 
    174 H174       -1.6141  -14.4484  -44.4030 H         1 UNK         0.3000 
    175 H175       -3.6165  -14.3713  -41.5410 H         1 UNK         0.0600 
    176 H176       -2.1505  -11.8550  -42.5002 H         1 UNK         0.0600 
    177 H177       -3.6774  -11.8939  -41.6167 H         1 UNK         0.0600 
    178 H178       -2.1985  -12.4321  -40.8387 H         1 UNK         0.0600 
    179 H179       -3.9296  -12.8741  -43.9009 H         1 UNK         0.3000 
    180 H180       -6.0215  -15.0314  -45.3699 H         1 UNK         0.0600 
    181 H181       -4.4112  -12.4649  -45.8760 H         1 UNK         0.0600 
    182 H182       -5.8649  -12.5892  -44.8822 H         1 UNK         0.0600 
    183 H183       -5.9524  -12.8891  -46.6059 H         1 UNK         0.0600 
    184 H184       -5.0262  -15.7398  -47.2160 H         1 UNK         0.3000 
    185 H185       -3.2357  -16.6654  -48.3698 H         1 UNK         0.0600 
    186 H186       -3.1000  -13.8672  -49.6454 H         1 UNK         0.0600 
    187 H187       -3.1278  -15.3714  -50.5582 H         1 UNK         0.0600 
    188 H188       -4.5143  -14.9153  -49.5819 H         1 UNK         0.0600 
    189 H189       -0.8594  -14.9223  -48.2279 H         1 UNK         0.3000 
    190 H190        1.6307  -21.0874  -46.5358 H         1 UNK         0.3000 
    191 H191       -0.5715  -20.2176  -48.2193 H         1 UNK         0.0600 
    192 H192       -0.8572  -18.4854  -46.4545 H         1 UNK         0.0600 
    193 H193        0.8265  -18.5850  -46.9554 H         1 UNK         0.0600 
    194 H194        0.3225  -19.3032  -45.4401 H         1 UNK         0.0600 
    195 H195       -0.2144  -22.0298  -45.1705 H         1 UNK         0.3000 
    196 H196       -3.0171  -22.3003  -44.6077 H         1 UNK         0.0600 
    197 H197       -2.2817  -24.0163  -43.0034 H         1 UNK         0.0600 
    198 H198       -1.2195  -22.6208  -42.8944 H         1 UNK         0.0600 
    199 H199       -0.6814  -24.0766  -43.7249 H         1 UNK         0.0600 
    200 H200       -0.6625  -24.3692  -46.3830 H         1 UNK         0.3000 
    201 H201       -2.4710  -26.4162  -47.1385 H         1 UNK         0.0600 
    202 H202        0.0201  -26.5990  -47.2849 H         1 UNK         0.0600 
    203 H203        0.0318  -25.4300  -48.6054 H         1 UNK         0.0600 
    204 H204       -0.7473  -26.9900  -48.8167 H         1 UNK         0.0600 
    205 H205       -1.7623  -23.2688  -48.6299 H         1 UNK         0.3000 
    206 H206       -3.5519  -23.5860  -50.8845 H         1 UNK         0.0600 
    207 H207       -1.5107  -22.0912  -50.8527 H         1 UNK         0.0600 
    208 H208       -2.9729  -21.2547  -51.3184 H         1 UNK         0.0600 
    209 H209       -2.3305  -21.0408  -49.6971 H         1 UNK         0.0600 
    210 H210       -4.3313  -23.5102  -47.7208 H         1 UNK         0.3000 
    211 H211       -6.1333  -23.2494  -46.5095 H         1 UNK         0.0600 
    212 H212       -7.6719  -22.9818  -49.1442 H         1 UNK         0.0600 
    213 H213       -8.3314  -23.4712  -47.5894 H         1 UNK         0.0600 
    214 H214       -7.1788  -24.5080  -48.4113 H         1 UNK         0.0600 
    215 H215       -4.6228  -20.8238  -47.2057 H         1 UNK         0.3000 
    216 H216       -4.5202  -18.6815  -46.8265 H         1 UNK         0.0600 
    217 H217       -6.0359  -17.5746  -45.2525 H         1 UNK         0.0600 
    218 H218       -5.7274  -19.2060  -44.6828 H         1 UNK         0.0600 
    219 H219       -7.2589  -18.8175  -45.4611 H         1 UNK         0.0600 
    220 H220       -7.4649  -19.6732  -48.4534 H         1 UNK         0.3000 
    221 H221       -8.2192  -17.1574  -49.5727 H         1 UNK         0.0600 
    222 H222       -8.7386  -20.0198  -50.5481 H         1 UNK         0.0600 
    223 H223       -9.7561  -19.1020  -49.4383 H         1 UNK         0.0600 
    224 H224       -9.5878  -18.5834  -51.1089 H         1 UNK         0.0600 
    225 H225       -5.9782  -19.6898  -50.6554 H         1 UNK         0.3000 
    226 H226       -4.4487  -19.8721  -52.2130 H         1 UNK         0.0600 
    227 H227       -4.3093  -16.8109  -52.1034 H         1 UNK         0.0600 
    228 H228       -3.4462  -17.9337  -51.0635 H         1 UNK         0.0600 
    229 H229       -3.0726  -17.8747  -52.7757 H         1 UNK         0.0600 
    230 H230       -4.8998  -17.0054  -54.0110 H         1 UNK         0.3000 
    231 H231       -5.4136  -16.5607  -56.1168 H         1 UNK         0.0600 
    232 H232       -7.5561  -17.3086  -57.0526 H         1 UNK         0.0600 
    233 H233       -7.7722  -16.9335  -55.3503 H         1 UNK         0.0600 
    234 H234       -7.6777  -18.6118  -55.8806 H         1 UNK         0.0600 
    235 H235       -3.2665  -18.2100  -55.7647 H         1 UNK         0.3000 
    236 H236       -3.0083  -19.5648  -58.3130 H         1 UNK         0.0600 
    237 H237       -3.9124  -21.4131  -56.8557 H         1 UNK         0.0600 
    238 H238       -2.2234  -21.7043  -57.2382 H         1 UNK         0.0600 
    239 H239       -2.6672  -21.0851  -55.6524 H         1 UNK         0.0600 
    240 H240       -0.7217  -20.1808  -58.6206 H         1 UNK         0.3000 
    241 H241        1.4374  -19.8613  -58.6738 H         1 UNK         0.0600 
    242 H242        0.7371  -16.0918  -59.2465 H         1 UNK         0.3800 
    243 H243       -0.4482  -17.3639  -59.1093 H         1 UNK         0.3800 
    244 H244        2.8122  -19.5370  -56.6761 H         1 UNK         0.0800 
    245 H245        1.4513  -18.9469  -55.7685 H         1 UNK         0.0800 
    246 H246        0.2104  -22.0120  -54.0729 H         1 UNK         0.0800 
    247 H247        0.0539  -20.2966  -54.3409 H         1 UNK         0.0800 
@<TRIPOS>BOND
     1    1    2 1    
     2    1  127 1    
     3    1  128 1    
     4    1  129 1    
     5    2    3 2    
     6    2    4 am   BACKBONE|DICT|INTERRES
     7    4    5 1    
     8    4  130 1    
     9    5    6 1    
    10    5   65 1    
    11    5  131 1    
    12    6    7 1    
    13    6  132 1    
    14    6  133 1    
    15    7    8 1    
    16    8    9 1    
    17    8  134 1    
    18    8  135 1    
    19    9   10 ar   
    20    9   14 ar   
    21   10   11 ar   
    22   10  136 1    
    23   11   12 ar   
    24   11  126 1    
    25   12   13 ar   
    26   12  137 1    
    27   13   14 ar   
    28   13   15 1    
    29   14  138 1    
    30   15   16 1    
    31   15  139 1    
    32   15  140 1    
    33   16   17 1    
    34   17   18 1    
    35   17  141 1    
    36   17  142 1    
    37   18   19 1    
    38   18   67 1    
    39   18  143 1    
    40   19   20 am   BACKBONE|DICT|INTERRES
    41   19  144 1    
    42   20   21 2    
    43   20   22 1    
    44   22   23 1    
    45   22   24 1    
    46   22  145 1    
    47   23  146 1    
    48   23  147 1    
    49   23  148 1    
    50   24   25 am   BACKBONE|DICT|INTERRES
    51   24  149 1    
    52   25   26 2    
    53   25   27 1    
    54   27   28 1    
    55   27   29 1    
    56   27  150 1    
    57   28  151 1    
    58   28  152 1    
    59   28  153 1    
    60   29   30 am   BACKBONE|DICT|INTERRES
    61   29  154 1    
    62   30   31 2    
    63   30   32 1    
    64   32   33 1    
    65   32   34 1    
    66   32  155 1    
    67   33  156 1    
    68   33  157 1    
    69   33  158 1    
    70   34   35 am   BACKBONE|DICT|INTERRES
    71   34  159 1    
    72   35   36 2    
    73   35   37 1    
    74   37   38 1    
    75   37   39 1    
    76   37  160 1    
    77   38  161 1    
    78   38  162 1    
    79   38  163 1    
    80   39   40 am   BACKBONE|DICT|INTERRES
    81   39  164 1    
    82   40   41 2    
    83   40   42 1    
    84   42   43 1    
    85   42   44 1    
    86   42  165 1    
    87   43  166 1    
    88   43  167 1    
    89   43  168 1    
    90   44   45 am   BACKBONE|DICT|INTERRES
    91   44  169 1    
    92   45   46 2    
    93   45   47 1    
    94   47   48 1    
    95   47   49 1    
    96   47  170 1    
    97   48  171 1    
    98   48  172 1    
    99   48  173 1    
   100   49   50 am   BACKBONE|DICT|INTERRES
   101   49  174 1    
   102   50   51 2    
   103   50   52 1    
   104   52   53 1    
   105   52   54 1    
   106   52  175 1    
   107   53  176 1    
   108   53  177 1    
   109   53  178 1    
   110   54   55 am   BACKBONE|DICT|INTERRES
   111   54  179 1    
   112   55   56 2    
   113   55   57 1    
   114   57   58 1    
   115   57   59 1    
   116   57  180 1    
   117   58  181 1    
   118   58  182 1    
   119   58  183 1    
   120   59   60 am   BACKBONE|DICT|INTERRES
   121   59  184 1    
   122   60   61 2    
   123   60   62 1    
   124   62   63 1    
   125   62   64 1    
   126   62  185 1    
   127   63  186 1    
   128   63  187 1    
   129   63  188 1    
   130   64   65 am   BACKBONE|DICT|INTERRES
   131   64  189 1    
   132   65   66 2    
   133   67   68 2    
   134   67   69 am   BACKBONE|DICT|INTERRES
   135   69   70 1    
   136   69  190 1    
   137   70   71 1    
   138   70   72 1    
   139   70  191 1    
   140   71  192 1    
   141   71  193 1    
   142   71  194 1    
   143   72   73 2    
   144   72   74 am   BACKBONE|DICT|INTERRES
   145   74   75 1    
   146   74  195 1    
   147   75   76 1    
   148   75   77 1    
   149   75  196 1    
   150   76  197 1    
   151   76  198 1    
   152   76  199 1    
   153   77   78 2    
   154   77   79 am   BACKBONE|DICT|INTERRES
   155   79   80 1    
   156   79  200 1    
   157   80   81 1    
   158   80   82 1    
   159   80  201 1    
   160   81  202 1    
   161   81  203 1    
   162   81  204 1    
   163   82   83 2    
   164   82   84 am   BACKBONE|DICT|INTERRES
   165   84   85 1    
   166   84  205 1    
   167   85   86 1    
   168   85   87 1    
   169   85  206 1    
   170   86  207 1    
   171   86  208 1    
   172   86  209 1    
   173   87   88 2    
   174   87   89 am   BACKBONE|DICT|INTERRES
   175   89   90 1    
   176   89  210 1    
   177   90   91 1    
   178   90   92 1    
   179   90  211 1    
   180   91  212 1    
   181   91  213 1    
   182   91  214 1    
   183   92   93 2    
   184   92   94 am   BACKBONE|DICT|INTERRES
   185   94   95 1    
   186   94  215 1    
   187   95   96 1    
   188   95   97 1    
   189   95  216 1    
   190   96  217 1    
   191   96  218 1    
   192   96  219 1    
   193   97   98 2    
   194   97   99 am   BACKBONE|DICT|INTERRES
   195   99  100 1    
   196   99  220 1    
   197  100  101 1    
   198  100  102 1    
   199  100  221 1    
   200  101  222 1    
   201  101  223 1    
   202  101  224 1    
   203  102  103 2    
   204  102  104 am   BACKBONE|DICT|INTERRES
   205  104  105 1    
   206  104  225 1    
   207  105  106 1    
   208  105  107 1    
   209  105  226 1    
   210  106  227 1    
   211  106  228 1    
   212  106  229 1    
   213  107  108 2    
   214  107  109 am   BACKBONE|DICT|INTERRES
   215  109  110 1    
   216  109  230 1    
   217  110  111 1    
   218  110  112 1    
   219  110  231 1    
   220  111  232 1    
   221  111  233 1    
   222  111  234 1    
   223  112  113 2    
   224  112  114 am   BACKBONE|DICT|INTERRES
   225  114  115 1    
   226  114  235 1    
   227  115  116 1    
   228  115  117 1    
   229  115  236 1    
   230  116  237 1    
   231  116  238 1    
   232  116  239 1    
   233  117  118 2    
   234  117  119 am   BACKBONE|DICT|INTERRES
   235  119  120 1    
   236  119  240 1    
   237  120  121 1    
   238  120  124 1    
   239  120  241 1    
   240  121  122 am   BACKBONE|DICT|INTERRES
   241  121  123 2    
   242  122  242 1    
   243  122  243 1    
   244  124  125 1    
   245  124  244 1    
   246  124  245 1    
   247  125  126 1    
   248  126  246 1    
   249  126  247 1    
@<TRIPOS>SUBSTRUCTURE
     1 UNK         1 GROUP             0       ****    0 ROOT    
