@<TRIPOS>MOLECULE
3R540
247   249    1
SMALL
USER_CHARGES


@<TRIPOS>ATOM
      1 CA         -2.3565  -14.6234  -41.4676 C.3       0 UNK        -0.1800 
      2 C          -2.6866  -13.6056  -42.5495 C.2       0 UNK         0.5000 
      3 O          -3.1126  -12.4928  -42.2381 O.2       0 UNK        -0.5000 
      4 N          -2.4978  -13.9815  -43.8195 N.am      1 UNK        -0.5000 
      5 CA         -2.7017  -13.1420  -45.0022 C.3       1 UNK         0.1400 
      6 C6         -2.9518  -13.9930  -46.2788 C.3       23 UNK        -0.0398 
      7 S7         -1.6953  -15.2825  -46.5771 S.3       23 UNK        -0.2404 
      8 C8         -2.3891  -16.1861  -47.9925 C.3       23 UNK        -0.0205 
      9 C9         -1.2841  -16.9227  -48.7333 C.ar      23 UNK        -0.0193 
     10 C10        -0.8815  -16.4981  -50.0029 C.ar      23 UNK        -0.1150 
     11 C11         0.1792  -17.1278  -50.6601 C.ar      23 UNK        -0.0193 
     12 C12         0.8346  -18.1933  -50.0349 C.ar      23 UNK        -0.1150 
     13 C13         0.4268  -18.6431  -48.7755 C.ar      23 UNK        -0.0193 
     14 C14        -0.6390  -18.0084  -48.1334 C.ar      23 UNK        -0.1150 
     15 C15         1.1698  -19.7859  -48.1011 C.3       23 UNK        -0.0205 
     16 S16         0.7834  -21.3853  -48.8742 S.3       23 UNK        -0.2404 
     17 C17        -0.7823  -21.8485  -48.0604 C.3       23 UNK        -0.0398 
     18 CA         -0.6299  -23.1738  -47.2837 C.3       11 UNK         0.1400 
     19 N           0.2800  -23.0539  -46.1438 N.am      11 UNK        -0.5000 
     20 C           1.1267  -24.0122  -45.7463 C.2       10 UNK         0.5000 
     21 O           1.2447  -25.0998  -46.3106 O.2       10 UNK        -0.5000 
     22 CA          1.9748  -23.7149  -44.4945 C.3       10 UNK         0.1400 
     23 CB          3.3004  -23.0484  -44.8923 C.3       10 UNK        -0.1800 
     24 N           1.2897  -22.8643  -43.5208 N.am      10 UNK        -0.5000 
     25 C           0.1872  -23.2147  -42.8430 C.2       9 UNK         0.5000 
     26 O          -0.3623  -24.3112  -42.9489 O.2       9 UNK        -0.5000 
     27 CA         -0.4392  -22.1360  -41.9379 C.3       9 UNK         0.1400 
     28 CB          0.1738  -22.1965  -40.5312 C.3       9 UNK        -0.1800 
     29 N          -0.3104  -20.7721  -42.4581 N.am      9 UNK        -0.5000 
     30 C          -0.7056  -20.3452  -43.6665 C.2       8 UNK         0.5000 
     31 O          -1.2329  -21.0700  -44.5105 O.2       8 UNK        -0.5000 
     32 CA         -0.4408  -18.8705  -44.0097 C.3       8 UNK         0.1400 
     33 CB         -1.7268  -18.0464  -43.8580 C.3       8 UNK        -0.1800 
     34 N           0.6184  -18.2448  -43.2186 N.am      8 UNK        -0.5000 
     35 C           1.9185  -18.5642  -43.2484 C.2       7 UNK         0.5000 
     36 O           2.3642  -19.5458  -43.8469 O.2       7 UNK        -0.5000 
     37 CA          2.8651  -17.5969  -42.4992 C.3       7 UNK         0.1400 
     38 CB          4.3369  -18.0418  -42.5624 C.3       7 UNK        -0.1800 
     39 N           2.7613  -16.2353  -43.0325 N.am      7 UNK        -0.5000 
     40 C           1.7408  -15.3905  -42.8271 C.2       6 UNK         0.5000 
     41 O           0.8331  -15.6126  -42.0246 O.2       6 UNK        -0.5000 
     42 CA          1.6817  -14.1152  -43.6921 C.3       6 UNK         0.1400 
     43 CB          2.1955  -12.9060  -42.8974 C.3       6 UNK        -0.1800 
     44 N           2.3962  -14.1801  -44.9726 N.am      6 UNK        -0.5000 
     45 C           2.2048  -15.0838  -45.9442 C.2       5 UNK         0.5000 
     46 O           1.4726  -16.0670  -45.8395 O.2       5 UNK        -0.5000 
     47 CA          2.9507  -14.8238  -47.2642 C.3       5 UNK         0.1400 
     48 CB          3.3438  -16.1300  -47.9742 C.3       5 UNK        -0.1800 
     49 N           2.1103  -14.0320  -48.1578 N.am      5 UNK        -0.5000 
     50 C           1.9307  -12.7080  -48.0690 C.2       4 UNK         0.5000 
     51 O           2.5361  -11.9982  -47.2616 O.2       4 UNK        -0.5000 
     52 CA          0.9416  -12.0602  -49.0576 C.3       4 UNK         0.1400 
     53 CB         -0.0395  -13.0544  -49.7115 C.3       4 UNK        -0.1800 
     54 N           0.1778  -11.0264  -48.3661 N.am      4 UNK        -0.5000 
     55 C          -0.0436   -9.7841  -48.8139 C.2       3 UNK         0.5000 
     56 O           0.3868   -9.3639  -49.8893 O.2       3 UNK        -0.5000 
     57 CA         -0.9065   -8.8456  -47.9407 C.3       3 UNK         0.1400 
     58 CB         -2.2818   -8.6240  -48.5907 C.3       3 UNK        -0.1800 
     59 N          -1.1137   -9.3345  -46.5769 N.am      3 UNK        -0.5000 
     60 C          -0.2017   -9.2949  -45.5969 C.2       2 UNK         0.5000 
     61 O           0.8949   -8.7463  -45.7093 O.2       2 UNK        -0.5000 
     62 CA         -0.5660   -9.9976  -44.2705 C.3       2 UNK         0.1400 
     63 CB         -1.0074   -8.9669  -43.2205 C.3       2 UNK        -0.1800 
     64 N          -1.5972  -11.0396  -44.3706 N.am      2 UNK        -0.5000 
     65 C          -1.5411  -12.1306  -45.1466 C.2       1 UNK         0.5000 
     66 O          -0.6163  -12.3482  -45.9272 O.2       1 UNK        -0.5000 
     67 C          -1.9956  -23.7256  -46.8395 C.2       11 UNK         0.5000 
     68 O          -2.6167  -24.4668  -47.6012 O.2       11 UNK        -0.5000 
     69 N          -2.4286  -23.4165  -45.6084 N.am      12 UNK        -0.5000 
     70 CA         -3.6277  -23.9836  -44.9825 C.3       12 UNK         0.1400 
     71 CB         -3.8915  -23.2865  -43.6416 C.3       12 UNK        -0.1800 
     72 C          -3.5272  -25.5101  -44.7921 C.2       12 UNK         0.5000 
     73 O          -4.5254  -26.2104  -44.9593 O.2       12 UNK        -0.5000 
     74 N          -2.3089  -26.0052  -44.5266 N.am      13 UNK        -0.5000 
     75 CA         -1.9587  -27.4286  -44.5003 C.3       13 UNK         0.1400 
     76 CB         -0.5232  -27.5784  -43.9747 C.3       13 UNK        -0.1800 
     77 C          -2.1092  -28.1327  -45.8674 C.2       13 UNK         0.5000 
     78 O          -2.2847  -29.3506  -45.9014 O.2       13 UNK        -0.5000 
     79 N          -2.0758  -27.3577  -46.9603 N.am      14 UNK        -0.5000 
     80 CA         -2.3443  -27.7906  -48.3328 C.3       14 UNK         0.1400 
     81 CB         -1.2989  -27.1539  -49.2674 C.3       14 UNK        -0.1800 
     82 C          -3.7875  -27.4396  -48.7578 C.2       14 UNK         0.5000 
     83 O          -4.0516  -27.2745  -49.9496 O.2       14 UNK        -0.5000 
     84 N          -4.6940  -27.2943  -47.7776 N.am      15 UNK        -0.5000 
     85 CA         -6.1222  -26.9804  -47.9116 C.3       15 UNK         0.1400 
     86 CB         -6.8667  -28.1384  -48.6087 C.3       15 UNK        -0.1800 
     87 C          -6.4017  -25.6127  -48.5712 C.2       15 UNK         0.5000 
     88 O          -7.4650  -25.4266  -49.1642 O.2       15 UNK        -0.5000 
     89 N          -5.4318  -24.6902  -48.4728 N.am      16 UNK        -0.5000 
     90 CA         -5.3914  -23.3559  -49.0793 C.3       16 UNK         0.1400 
     91 CB         -6.5572  -22.4717  -48.5936 C.3       16 UNK        -0.1800 
     92 C          -5.2574  -23.3625  -50.6165 C.2       16 UNK         0.5000 
     93 O          -5.2902  -22.2905  -51.2210 O.2       16 UNK        -0.5000 
     94 N          -5.0401  -24.5342  -51.2343 N.am      17 UNK        -0.5000 
     95 CA         -4.8177  -24.6731  -52.6770 C.3       17 UNK         0.1400 
     96 CB         -4.8631  -26.1581  -53.0641 C.3       17 UNK        -0.1800 
     97 C          -3.4907  -24.0330  -53.1234 C.2       17 UNK         0.5000 
     98 O          -3.4162  -23.4686  -54.2148 O.2       17 UNK        -0.5000 
     99 N          -2.4844  -24.0907  -52.2403 N.am      18 UNK        -0.5000 
    100 CA        -1.1932  -23.4281  -52.4062 C.3       18 UNK         0.1400 
    101 CB        -0.2108  -23.9815  -51.3643 C.3       18 UNK        -0.1800 
    102 C         -1.2937  -21.8931  -52.3113 C.2       18 UNK         0.5000 
    103 O         -0.5453  -21.2061  -53.0023 O.2       18 UNK        -0.5000 
    104 N         -2.2292  -21.3873  -51.4918 N.am      19 UNK        -0.5000 
    105 CA        -2.5160  -19.9573  -51.3556 C.3       19 UNK         0.1400 
    106 CB        -3.2552  -19.6836  -50.0359 C.3       19 UNK        -0.1800 
    107 C         -3.3311  -19.4308  -52.5465 C.2       19 UNK         0.5000 
    108 O         -3.0504  -18.3428  -53.0464 O.2       19 UNK        -0.5000 
    109 N         -4.3036  -20.2259  -53.0153 N.am      20 UNK        -0.5000 
    110 CA        -5.1548  -19.9248  -54.1712 C.3       20 UNK         0.1400 
    111 CB        -6.2199  -21.0233  -54.3065 C.3       20 UNK        -0.1800 
    112 C         -4.3802  -19.7555  -55.4954 C.2       20 UNK         0.5000 
    113 O         -4.8689  -19.0816  -56.4027 O.2       20 UNK        -0.5000 
    114 N         -3.1820  -20.3479  -55.5734 N.am      21 UNK        -0.5000 
    115 CA        -2.2534  -20.2330  -56.6954 C.3       21 UNK         0.1400 
    116 CB        -1.2563  -21.4004  -56.6202 C.3       21 UNK        -0.1800 
    117 C         -1.5026  -18.8842  -56.7576 C.2       21 UNK         0.5000 
    118 O         -0.8835  -18.6060  -57.7862 O.2       21 UNK        -0.5000 
    119 N         -1.5410  -18.0825  -55.6843 N.am      22 UNK        -0.5000 
    120 CA        -0.7821  -16.8250  -55.5500 C.3       22 UNK         0.1400 
    121 C         -1.5774  -15.6438  -54.9280 C.2       22 UNK         0.5000 
    122 N         -2.6510  -15.8667  -54.1830 N.am      22 UNK        -0.7600 
    123 O         -1.2231  -14.4887  -55.1481 O.2       22 UNK        -0.5000 
    124 C124        0.5880  -17.0374  -54.8493 C.3       23 UNK        -0.0398 
    125 S125        0.4732  -17.9638  -53.2787 S.3       23 UNK        -0.2404 
    126 C126        0.6246  -16.6466  -52.0346 C.3       23 UNK        -0.0205 
    127 H127       -3.2283  -14.8003  -40.8379 H         1 UNK         0.0600 
    128 H128       -1.5479  -14.2515  -40.8384 H         1 UNK         0.0600 
    129 H129       -2.0436  -15.5778  -41.8911 H         1 UNK         0.0600 
    130 H130       -2.1231  -14.8980  -44.0183 H         1 UNK         0.3000 
    131 H131       -3.6092  -12.5549  -44.8450 H         1 UNK         0.0600 
    132 H132       -3.0162  -13.3527  -47.1603 H         1 UNK         0.0800 
    133 H133       -3.9215  -14.4856  -46.1961 H         1 UNK         0.0800 
    134 H134       -2.8979  -15.4889  -48.6598 H         1 UNK         0.0800 
    135 H135       -3.1403  -16.8953  -47.6427 H         1 UNK         0.0800 
    136 H136       -1.3849  -15.6655  -50.4736 H         1 UNK         0.1150 
    137 H137        1.6605  -18.6800  -50.5343 H         1 UNK         0.1150 
    138 H138       -0.9507  -18.3331  -47.1521 H         1 UNK         0.1150 
    139 H139        2.2425  -19.6072  -48.1865 H         1 UNK         0.0800 
    140 H140        0.9564  -19.8242  -47.0320 H         1 UNK         0.0800 
    141 H141       -1.5329  -21.9564  -48.8431 H         1 UNK         0.0800 
    142 H142       -1.1280  -21.0463  -47.4062 H         1 UNK         0.0800 
    143 H143       -0.2239  -23.9098  -47.9810 H         1 UNK         0.0600 
    144 H144        0.2001  -22.2102  -45.5912 H         1 UNK         0.3000 
    145 H145        2.1989  -24.6684  -44.0118 H         1 UNK         0.0600 
    146 H146        3.9445  -22.9019  -44.0251 H         1 UNK         0.0600 
    147 H147        3.8499  -23.6647  -45.6051 H         1 UNK         0.0600 
    148 H148        3.1369  -22.0746  -45.3565 H         1 UNK         0.0600 
    149 H149        1.6569  -21.9299  -43.3968 H         1 UNK         0.3000 
    150 H150       -1.5044  -22.3503  -41.8513 H         1 UNK         0.0600 
    151 H151        0.0757  -23.1959  -40.1049 H         1 UNK         0.0600 
    152 H152       -0.3259  -21.5054  -39.8522 H         1 UNK         0.0600 
    153 H153        1.2357  -21.9474  -40.5437 H         1 UNK         0.0600 
    154 H154        0.1196  -20.0958  -41.8448 H         1 UNK         0.3000 
    155 H155       -0.1284  -18.8306  -45.0537 H         1 UNK         0.0600 
    156 H156       -2.0943  -18.0585  -42.8312 H         1 UNK         0.0600 
    157 H157       -2.5195  -18.4357  -44.4984 H         1 UNK         0.0600 
    158 H158       -1.5607  -17.0083  -44.1427 H         1 UNK         0.0600 
    159 H159        0.3679  -17.4004  -42.7141 H         1 UNK         0.3000 
    160 H160        2.5621  -17.5896  -41.4502 H         1 UNK         0.0600 
    161 H161        4.7068  -18.0665  -43.5882 H         1 UNK         0.0600 
    162 H162        4.4617  -19.0411  -42.1432 H         1 UNK         0.0600 
    163 H163        4.9769  -17.3693  -41.9910 H         1 UNK         0.0600 
    164 H164        3.4337  -15.9842  -43.7416 H         1 UNK         0.3000 
    165 H165        0.6300  -13.9449  -43.9285 H         1 UNK         0.0600 
    166 H166        2.1068  -11.9864  -43.4749 H         1 UNK         0.0600 
    167 H167        1.6232  -12.7700  -41.9787 H         1 UNK         0.0600 
    168 H168        3.2433  -13.0257  -42.6191 H         1 UNK         0.0600 
    169 H169        2.9802  -13.3839  -45.1884 H         1 UNK         0.3000 
    170 H170        3.8696  -14.2748  -47.0471 H         1 UNK         0.0600 
    171 H171        3.9634  -16.7539  -47.3291 H         1 UNK         0.0600 
    172 H172        2.4677  -16.7149  -48.2510 H         1 UNK         0.0600 
    173 H173        3.9130  -15.9310  -48.8822 H         1 UNK         0.0600 
    174 H174        1.5379  -14.5552  -48.8040 H         1 UNK         0.3000 
    175 H175        1.5514  -11.6133  -49.8449 H         1 UNK         0.0600 
    176 H176       -0.6231  -13.5917  -48.9628 H         1 UNK         0.0600 
    177 H177       -0.7407  -12.5379  -50.3671 H         1 UNK         0.0600 
    178 H178        0.4843  -13.7877  -50.3254 H         1 UNK         0.0600 
    179 H179       -0.1493  -11.2921  -47.4402 H         1 UNK         0.3000 
    180 H180       -0.3939   -7.8827  -47.8916 H         1 UNK         0.0600 
    181 H181       -2.8797   -7.9145  -48.0182 H         1 UNK         0.0600 
    182 H182       -2.8450   -9.5550  -48.6672 H         1 UNK         0.0600 
    183 H183       -2.1785   -8.2195  -49.5985 H         1 UNK         0.0600 
    184 H184       -1.9894   -9.8000  -46.3913 H         1 UNK         0.3000 
    185 H185        0.3433  -10.4795  -43.9093 H         1 UNK         0.0600 
    186 H186       -1.1622   -9.4354  -42.2482 H         1 UNK         0.0600 
    187 H187       -0.2514   -8.1916  -43.0890 H         1 UNK         0.0600 
    188 H188       -1.9369   -8.4744  -43.5087 H         1 UNK         0.0600 
    189 H189       -2.3583  -10.9798  -43.7051 H         1 UNK         0.3000 
    190 H190       -1.9070  -22.7349  -45.0643 H         1 UNK         0.3000 
    191 H191       -4.4729  -23.7824  -45.6440 H         1 UNK         0.0600 
    192 H192       -4.8554  -23.5899  -43.2314 H         1 UNK         0.0600 
    193 H193       -3.9095  -22.2019  -43.7518 H         1 UNK         0.0600 
    194 H194       -3.1314  -23.5408  -42.9044 H         1 UNK         0.0600 
    195 H195       -1.5578  -25.3539  -44.3258 H         1 UNK         0.3000 
    196 H196       -2.6337  -27.9256  -43.8008 H         1 UNK         0.0600 
    197 H197        0.1953  -27.0724  -44.6204 H         1 UNK         0.0600 
    198 H198       -0.4246  -27.1605  -42.9726 H         1 UNK         0.0600 
    199 H199       -0.2332  -28.6284  -43.9183 H         1 UNK         0.0600 
    200 H200       -1.9722  -26.3584  -46.8390 H         1 UNK         0.3000 
    201 H201       -2.2451  -28.8749  -48.4092 H         1 UNK         0.0600 
    202 H202       -1.3932  -26.0690  -49.3016 H         1 UNK         0.0600 
    203 H203       -1.4061  -27.5237  -50.2878 H         1 UNK         0.0600 
    204 H204       -0.2852  -27.3902  -48.9434 H         1 UNK         0.0600 
    205 H205       -4.3705  -27.3767  -46.8218 H         1 UNK         0.3000 
    206 H206       -6.5105  -26.9051  -46.8950 H         1 UNK         0.0600 
    207 H207       -6.6588  -29.0908  -48.1210 H         1 UNK         0.0600 
    208 H208       -7.9463  -27.9883  -48.5746 H         1 UNK         0.0600 
    209 H209       -6.5828  -28.2292  -49.6576 H         1 UNK         0.0600 
    210 H210       -4.5731  -24.9582  -48.0034 H         1 UNK         0.3000 
    211 H211       -4.4738  -22.8949  -48.7130 H         1 UNK         0.0600 
    212 H212       -6.4189  -21.4369  -48.9091 H         1 UNK         0.0600 
    213 H213       -6.6250  -22.4711  -47.5058 H         1 UNK         0.0600 
    214 H214       -7.5159  -22.8041  -48.9917 H         1 UNK         0.0600 
    215 H215       -4.9883  -25.3819  -50.6819 H         1 UNK         0.3000 
    216 H216       -5.6298  -24.1598  -53.1959 H         1 UNK         0.0600 
    217 H217       -4.0525  -26.7213  -52.6003 H         1 UNK         0.0600 
    218 H218       -4.7712  -26.2814  -54.1439 H         1 UNK         0.0600 
    219 H219       -5.8050  -26.6167  -52.7623 H         1 UNK         0.0600 
    220 H220       -2.6352  -24.5941  -51.3786 H         1 UNK         0.3000 
    221 H221       -0.8091  -23.6719  -53.3992 H         1 UNK         0.0600 
    222 H222       -0.0451  -25.0495  -51.5064 H         1 UNK         0.0600 
    223 H223       -0.5783  -23.8323  -50.3500 H         1 UNK         0.0600 
    224 H224        0.7595  -23.4886  -51.4390 H         1 UNK         0.0600 
    225 H225       -2.8496  -22.0227  -51.0155 H         1 UNK         0.3000 
    226 H226       -1.5708  -19.4117  -51.3307 H         1 UNK         0.0600 
    227 H227       -4.1836  -20.2483  -49.9581 H         1 UNK         0.0600 
    228 H228       -2.6365  -19.9288  -49.1753 H         1 UNK         0.0600 
    229 H229       -3.5099  -18.6265  -49.9497 H         1 UNK         0.0600 
    230 H230       -4.5201  -21.0783  -52.5068 H         1 UNK         0.3000 
    231 H231       -5.6616  -18.9794  -53.9679 H         1 UNK         0.0600 
    232 H232       -5.7690  -21.9949  -54.5094 H         1 UNK         0.0600 
    233 H233       -6.9074  -20.8032  -55.1241 H         1 UNK         0.0600 
    234 H234       -6.8142  -21.1126  -53.3969 H         1 UNK         0.0600 
    235 H235       -2.8732  -20.9008  -54.7859 H         1 UNK         0.3000 
    236 H236       -2.8216  -20.3322  -57.6226 H         1 UNK         0.0600 
    237 H237       -1.7716  -22.3612  -56.6086 H         1 UNK         0.0600 
    238 H238       -0.5873  -21.4007  -57.4817 H         1 UNK         0.0600 
    239 H239       -0.6370  -21.3411  -55.7247 H         1 UNK         0.0600 
    240 H240       -2.0625  -18.3707  -54.8651 H         1 UNK         0.3000 
    241 H241       -0.5569  -16.4659  -56.5560 H         1 UNK         0.0600 
    242 H242       -3.1570  -15.0805  -53.8097 H         1 UNK         0.3800 
    243 H243       -2.8874  -16.8058  -53.8664 H         1 UNK         0.3800 
    244 H244        1.1052  -16.0896  -54.6893 H         1 UNK         0.0800 
    245 H245        1.2364  -17.6119  -55.5118 H         1 UNK         0.0800 
    246 H246        0.0305  -15.7865  -52.3469 H         1 UNK         0.0800 
    247 H247        1.6612  -16.3114  -51.9844 H         1 UNK         0.0800 
@<TRIPOS>BOND
     1    1    2 1    
     2    1  127 1    
     3    1  128 1    
     4    1  129 1    
     5    2    3 2    
     6    2    4 am   BACKBONE|DICT|INTERRES
     7    4    5 1    
     8    4  130 1    
     9    5    6 1    
    10    5   65 1    
    11    5  131 1    
    12    6    7 1    
    13    6  132 1    
    14    6  133 1    
    15    7    8 1    
    16    8    9 1    
    17    8  134 1    
    18    8  135 1    
    19    9   10 ar   
    20    9   14 ar   
    21   10   11 ar   
    22   10  136 1    
    23   11   12 ar   
    24   11  126 1    
    25   12   13 ar   
    26   12  137 1    
    27   13   14 ar   
    28   13   15 1    
    29   14  138 1    
    30   15   16 1    
    31   15  139 1    
    32   15  140 1    
    33   16   17 1    
    34   17   18 1    
    35   17  141 1    
    36   17  142 1    
    37   18   19 1    
    38   18   67 1    
    39   18  143 1    
    40   19   20 am   BACKBONE|DICT|INTERRES
    41   19  144 1    
    42   20   21 2    
    43   20   22 1    
    44   22   23 1    
    45   22   24 1    
    46   22  145 1    
    47   23  146 1    
    48   23  147 1    
    49   23  148 1    
    50   24   25 am   BACKBONE|DICT|INTERRES
    51   24  149 1    
    52   25   26 2    
    53   25   27 1    
    54   27   28 1    
    55   27   29 1    
    56   27  150 1    
    57   28  151 1    
    58   28  152 1    
    59   28  153 1    
    60   29   30 am   BACKBONE|DICT|INTERRES
    61   29  154 1    
    62   30   31 2    
    63   30   32 1    
    64   32   33 1    
    65   32   34 1    
    66   32  155 1    
    67   33  156 1    
    68   33  157 1    
    69   33  158 1    
    70   34   35 am   BACKBONE|DICT|INTERRES
    71   34  159 1    
    72   35   36 2    
    73   35   37 1    
    74   37   38 1    
    75   37   39 1    
    76   37  160 1    
    77   38  161 1    
    78   38  162 1    
    79   38  163 1    
    80   39   40 am   BACKBONE|DICT|INTERRES
    81   39  164 1    
    82   40   41 2    
    83   40   42 1    
    84   42   43 1    
    85   42   44 1    
    86   42  165 1    
    87   43  166 1    
    88   43  167 1    
    89   43  168 1    
    90   44   45 am   BACKBONE|DICT|INTERRES
    91   44  169 1    
    92   45   46 2    
    93   45   47 1    
    94   47   48 1    
    95   47   49 1    
    96   47  170 1    
    97   48  171 1    
    98   48  172 1    
    99   48  173 1    
   100   49   50 am   BACKBONE|DICT|INTERRES
   101   49  174 1    
   102   50   51 2    
   103   50   52 1    
   104   52   53 1    
   105   52   54 1    
   106   52  175 1    
   107   53  176 1    
   108   53  177 1    
   109   53  178 1    
   110   54   55 am   BACKBONE|DICT|INTERRES
   111   54  179 1    
   112   55   56 2    
   113   55   57 1    
   114   57   58 1    
   115   57   59 1    
   116   57  180 1    
   117   58  181 1    
   118   58  182 1    
   119   58  183 1    
   120   59   60 am   BACKBONE|DICT|INTERRES
   121   59  184 1    
   122   60   61 2    
   123   60   62 1    
   124   62   63 1    
   125   62   64 1    
   126   62  185 1    
   127   63  186 1    
   128   63  187 1    
   129   63  188 1    
   130   64   65 am   BACKBONE|DICT|INTERRES
   131   64  189 1    
   132   65   66 2    
   133   67   68 2    
   134   67   69 am   BACKBONE|DICT|INTERRES
   135   69   70 1    
   136   69  190 1    
   137   70   71 1    
   138   70   72 1    
   139   70  191 1    
   140   71  192 1    
   141   71  193 1    
   142   71  194 1    
   143   72   73 2    
   144   72   74 am   BACKBONE|DICT|INTERRES
   145   74   75 1    
   146   74  195 1    
   147   75   76 1    
   148   75   77 1    
   149   75  196 1    
   150   76  197 1    
   151   76  198 1    
   152   76  199 1    
   153   77   78 2    
   154   77   79 am   BACKBONE|DICT|INTERRES
   155   79   80 1    
   156   79  200 1    
   157   80   81 1    
   158   80   82 1    
   159   80  201 1    
   160   81  202 1    
   161   81  203 1    
   162   81  204 1    
   163   82   83 2    
   164   82   84 am   BACKBONE|DICT|INTERRES
   165   84   85 1    
   166   84  205 1    
   167   85   86 1    
   168   85   87 1    
   169   85  206 1    
   170   86  207 1    
   171   86  208 1    
   172   86  209 1    
   173   87   88 2    
   174   87   89 am   BACKBONE|DICT|INTERRES
   175   89   90 1    
   176   89  210 1    
   177   90   91 1    
   178   90   92 1    
   179   90  211 1    
   180   91  212 1    
   181   91  213 1    
   182   91  214 1    
   183   92   93 2    
   184   92   94 am   BACKBONE|DICT|INTERRES
   185   94   95 1    
   186   94  215 1    
   187   95   96 1    
   188   95   97 1    
   189   95  216 1    
   190   96  217 1    
   191   96  218 1    
   192   96  219 1    
   193   97   98 2    
   194   97   99 am   BACKBONE|DICT|INTERRES
   195   99  100 1    
   196   99  220 1    
   197  100  101 1    
   198  100  102 1    
   199  100  221 1    
   200  101  222 1    
   201  101  223 1    
   202  101  224 1    
   203  102  103 2    
   204  102  104 am   BACKBONE|DICT|INTERRES
   205  104  105 1    
   206  104  225 1    
   207  105  106 1    
   208  105  107 1    
   209  105  226 1    
   210  106  227 1    
   211  106  228 1    
   212  106  229 1    
   213  107  108 2    
   214  107  109 am   BACKBONE|DICT|INTERRES
   215  109  110 1    
   216  109  230 1    
   217  110  111 1    
   218  110  112 1    
   219  110  231 1    
   220  111  232 1    
   221  111  233 1    
   222  111  234 1    
   223  112  113 2    
   224  112  114 am   BACKBONE|DICT|INTERRES
   225  114  115 1    
   226  114  235 1    
   227  115  116 1    
   228  115  117 1    
   229  115  236 1    
   230  116  237 1    
   231  116  238 1    
   232  116  239 1    
   233  117  118 2    
   234  117  119 am   BACKBONE|DICT|INTERRES
   235  119  120 1    
   236  119  240 1    
   237  120  121 1    
   238  120  124 1    
   239  120  241 1    
   240  121  122 am   BACKBONE|DICT|INTERRES
   241  121  123 2    
   242  122  242 1    
   243  122  243 1    
   244  124  125 1    
   245  124  244 1    
   246  124  245 1    
   247  125  126 1    
   248  126  246 1    
   249  126  247 1    
@<TRIPOS>SUBSTRUCTURE
     1 UNK         1 GROUP             0       ****    0 ROOT    
