@<TRIPOS>MOLECULE
3R540
247   249    1
SMALL
USER_CHARGES


@<TRIPOS>ATOM
      1 CA          0.1269   -8.6209  -48.3124 C.3       0 UNK        -0.1800 
      2 C           1.0103   -9.8110  -48.6592 C.2       0 UNK         0.5000 
      3 O           1.6811   -9.7957  -49.6911 O.2       0 UNK        -0.5000 
      4 N           1.0161  -10.8394  -47.8000 N.am      1 UNK        -0.5000 
      5 CA          1.8058  -12.0676  -47.9683 C.3       1 UNK         0.1400 
      6 C6          1.2039  -13.2384  -47.1436 C.3       23 UNK        -0.0398 
      7 S7          1.4970  -14.8632  -47.9209 S.3       23 UNK        -0.2404 
      8 C8         -0.0096  -15.0325  -48.9270 C.3       23 UNK        -0.0205 
      9 C9          0.1741  -16.0760  -50.0163 C.ar      23 UNK        -0.0193 
     10 C10         0.6953  -15.7007  -51.2583 C.ar      23 UNK        -0.1150 
     11 C11         0.8697  -16.6478  -52.2705 C.ar      23 UNK        -0.0193 
     12 C12         0.5309  -17.9818  -52.0277 C.ar      23 UNK        -0.1150 
     13 C13         0.0133  -18.3713  -50.7892 C.ar      23 UNK        -0.0193 
     14 C14        -0.1739  -17.4114  -49.7890 C.ar      23 UNK        -0.1150 
     15 C15        -0.3355  -19.8312  -50.5442 C.3       23 UNK        -0.0205 
     16 S16         1.0714  -20.7413  -49.8341 S.3       23 UNK        -0.2404 
     17 C17         0.7796  -20.5232  -48.0457 C.3       23 UNK        -0.0398 
     18 CA          0.2478  -21.8063  -47.3645 C.3       11 UNK         0.1400 
     19 N           0.3251  -21.7176  -45.9069 N.am      11 UNK        -0.5000 
     20 C           0.1028  -22.7338  -45.0622 C.2       10 UNK         0.5000 
     21 O          -0.1425  -23.8853  -45.4229 O.2       10 UNK        -0.5000 
     22 CA          0.1006  -22.3911  -43.5616 C.3       10 UNK         0.1400 
     23 CB          1.5339  -22.2821  -43.0214 C.3       10 UNK        -0.1800 
     24 N          -0.6353  -21.1583  -43.2720 N.am      10 UNK        -0.5000 
     25 C          -1.9479  -20.9966  -43.4961 C.2       9 UNK         0.5000 
     26 O          -2.6816  -21.8863  -43.9262 O.2       9 UNK        -0.5000 
     27 CA         -2.5360  -19.5996  -43.2365 C.3       9 UNK         0.1400 
     28 CB         -2.7950  -19.3898  -41.7373 C.3       9 UNK        -0.1800 
     29 N          -1.6874  -18.5231  -43.7459 N.am      9 UNK        -0.5000 
     30 C          -1.3908  -18.3227  -45.0382 C.2       8 UNK         0.5000 
     31 O          -1.8222  -19.0159  -45.9583 O.2       8 UNK        -0.5000 
     32 CA         -0.3964  -17.1898  -45.3500 C.3       8 UNK         0.1400 
     33 CB         -1.0815  -15.8191  -45.2500 C.3       8 UNK        -0.1800 
     34 N           0.7754  -17.2277  -44.4744 N.am      8 UNK        -0.5000 
     35 C           1.6340  -18.2562  -44.4072 C.2       7 UNK         0.5000 
     36 O           1.5564  -19.2629  -45.1102 O.2       7 UNK        -0.5000 
     37 CA          2.7368  -18.1702  -43.3424 C.3       7 UNK         0.1400 
     38 CB          3.9210  -17.3491  -43.8610 C.3       7 UNK        -0.1800 
     39 N           2.2433  -17.5912  -42.0948 N.am      7 UNK        -0.5000 
     40 C           1.4013  -18.2170  -41.2606 C.2       6 UNK         0.5000 
     41 O           0.9817  -19.3607  -41.4404 O.2       6 UNK        -0.5000 
     42 CA          0.9083  -17.4051  -40.0494 C.3       6 UNK         0.1400 
     43 CB          1.9683  -17.3832  -38.9379 C.3       6 UNK        -0.1800 
     44 N           0.5485  -16.0320  -40.4074 N.am      6 UNK        -0.5000 
     45 C          -0.4559  -15.7071  -41.2331 C.2       5 UNK         0.5000 
     46 O          -1.2060  -16.5322  -41.7511 O.2       5 UNK        -0.5000 
     47 CA         -0.6413  -14.2163  -41.5639 C.3       5 UNK         0.1400 
     48 CB         -1.6381  -13.5729  -40.5886 C.3       5 UNK        -0.1800 
     49 N           0.6000  -13.4394  -41.5649 N.am      5 UNK        -0.5000 
     50 C           1.6495  -13.6424  -42.3733 C.2       4 UNK         0.5000 
     51 O           1.7227  -14.5744  -43.1794 O.2       4 UNK        -0.5000 
     52 CA          2.7704  -12.5910  -42.2625 C.3       4 UNK         0.1400 
     53 CB          3.3499  -12.4996  -40.8335 C.3       4 UNK        -0.1800 
     54 N           3.8242  -12.7493  -43.2701 N.am      4 UNK        -0.5000 
     55 C           4.8307  -13.6354  -43.3129 C.2       3 UNK         0.5000 
     56 O           5.0305  -14.4931  -42.4521 O.2       3 UNK        -0.5000 
     57 CA          5.7968  -13.5375  -44.5179 C.3       3 UNK         0.1400 
     58 CB          5.9325  -14.8824  -45.2494 C.3       3 UNK        -0.1800 
     59 N           5.4031  -12.5250  -45.4999 N.am      3 UNK        -0.5000 
     60 C           5.6236  -11.2086  -45.4204 C.2       2 UNK         0.5000 
     61 O           6.2555  -10.6806  -44.5055 O.2       2 UNK        -0.5000 
     62 CA          4.9837  -10.3234  -46.5107 C.3       2 UNK         0.1400 
     63 CB          5.9426  -10.1210  -47.6992 C.3       2 UNK        -0.1800 
     64 N           3.6511  -10.7680  -46.9575 N.am      2 UNK        -0.5000 
     65 C           3.3089  -11.8614  -47.6604 C.2       1 UNK         0.5000 
     66 O           4.1234  -12.7038  -48.0374 O.2       1 UNK        -0.5000 
     67 C          -1.1752  -22.1735  -47.8344 C.2       11 UNK         0.5000 
     68 O          -1.3204  -23.0805  -48.6514 O.2       11 UNK        -0.5000 
     69 N          -2.2002  -21.5047  -47.2855 N.am      12 UNK        -0.5000 
     70 CA         -3.6105  -21.7807  -47.5640 C.3       12 UNK         0.1400 
     71 CB         -4.4980  -20.7459  -46.8586 C.3       12 UNK        -0.1800 
     72 C          -4.0308  -23.2100  -47.1804 C.2       12 UNK         0.5000 
     73 O          -4.7343  -23.8559  -47.9573 O.2       12 UNK        -0.5000 
     74 N          -3.5670  -23.6900  -46.0184 N.am      13 UNK        -0.5000 
     75 CA         -3.7725  -25.0583  -45.5440 C.3       13 UNK         0.1400 
     76 CB         -3.2806  -25.1860  -44.0946 C.3       13 UNK        -0.1800 
     77 C          -3.0989  -26.1033  -46.4515 C.2       13 UNK         0.5000 
     78 O          -3.7435  -27.0851  -46.8229 O.2       13 UNK        -0.5000 
     79 N          -1.8379  -25.8518  -46.8349 N.am      14 UNK        -0.5000 
     80 CA         -1.0710  -26.6775  -47.7738 C.3       14 UNK         0.1400 
     81 CB          0.3786  -26.1732  -47.8347 C.3       14 UNK        -0.1800 
     82 C          -1.6943  -26.7214  -49.1831 C.2       14 UNK         0.5000 
     83 O          -1.6755  -27.7698  -49.8281 O.2       14 UNK        -0.5000 
     84 N          -2.2820  -25.5964  -49.6072 N.am      15 UNK        -0.5000 
     85 CA         -3.0411  -25.4308  -50.8456 C.3       15 UNK         0.1400 
     86 CB         -2.9518  -23.9588  -51.2841 C.3       15 UNK        -0.1800 
     87 C          -4.5077  -25.9066  -50.7425 C.2       15 UNK         0.5000 
     88 O          -5.3044  -25.5543  -51.6106 O.2       15 UNK        -0.5000 
     89 N          -4.8509  -26.6871  -49.7054 N.am      16 UNK        -0.5000 
     90 CA         -6.1453  -27.3400  -49.4784 C.3       16 UNK         0.1400 
     91 CB         -6.3800  -28.4452  -50.5298 C.3       16 UNK        -0.1800 
     92 C          -7.3135  -26.3375  -49.3865 C.2       16 UNK         0.5000 
     93 O          -8.2857  -26.4408  -50.1367 O.2       16 UNK        -0.5000 
     94 N          -7.1680  -25.3739  -48.4675 N.am      17 UNK        -0.5000 
     95 CA         -8.0497  -24.2259  -48.2331 C.3       17 UNK         0.1400 
     96 CB         -9.4856  -24.6595  -47.8674 C.3       17 UNK        -0.1800 
     97 C          -7.9785  -23.2106  -49.3907 C.2       17 UNK         0.5000 
     98 O          -9.0070  -22.7176  -49.8570 O.2       17 UNK        -0.5000 
     99 N          -6.7389  -22.9124  -49.8059 N.am      18 UNK        -0.5000 
    100 CA        -6.3445  -21.9179  -50.8064 C.3       18 UNK         0.1400 
    101 CB        -6.6296  -20.4928  -50.2863 C.3       18 UNK        -0.1800 
    102 C         -6.9239  -22.1714  -52.2149 C.2       18 UNK         0.5000 
    103 O         -7.2871  -21.2193  -52.9088 O.2       18 UNK        -0.5000 
    104 N         -6.9887  -23.4441  -52.6291 N.am      19 UNK        -0.5000 
    105 CA        -7.4777  -23.8693  -53.9397 C.3       19 UNK         0.1400 
    106 CB        -7.7448  -25.3840  -53.9178 C.3       19 UNK        -0.1800 
    107 C         -6.4803  -23.4740  -55.0452 C.2       19 UNK         0.5000 
    108 O         -5.4665  -24.1503  -55.2280 O.2       19 UNK        -0.5000 
    109 N         -6.7750  -22.3561  -55.7253 N.am      20 UNK        -0.5000 
    110 CA        -5.9663  -21.7047  -56.7652 C.3       20 UNK         0.1400 
    111 CB        -5.8500  -22.6003  -58.0167 C.3       20 UNK        -0.1800 
    112 C         -4.5962  -21.2001  -56.2568 C.2       20 UNK         0.5000 
    113 O         -3.6410  -21.1169  -57.0330 O.2       20 UNK        -0.5000 
    114 N         -4.5222  -20.8630  -54.9611 N.am      21 UNK        -0.5000 
    115 CA        -3.3284  -20.3340  -54.3033 C.3       21 UNK         0.1400 
    116 CB        -3.5740  -20.2553  -52.7904 C.3       21 UNK        -0.1800 
    117 C         -2.9317  -18.9547  -54.8564 C.2       21 UNK         0.5000 
    118 O         -3.7940  -18.0851  -55.0012 O.2       21 UNK        -0.5000 
    119 N         -1.6340  -18.7847  -55.1369 N.am      22 UNK        -0.5000 
    120 CA        -1.0279  -17.5578  -55.6832 C.3       22 UNK         0.1400 
    121 C         -1.4099  -17.2392  -57.1642 C.2       22 UNK         0.5000 
    122 N         -2.0150  -18.1600  -57.9065 N.am      22 UNK        -0.7600 
    123 O         -1.1286  -16.1540  -57.6650 O.2       22 UNK        -0.5000 
    124 C124       -1.1990  -16.3442  -54.7203 C.3       23 UNK        -0.0398 
    125 S125        0.2662  -15.2573  -54.6238 S.3       23 UNK        -0.2404 
    126 C126        1.4369  -16.2364  -53.6220 C.3       23 UNK        -0.0205 
    127 H127       -0.4074   -8.7714  -47.3740 H         1 UNK         0.0600 
    128 H128       -0.6090   -8.4583  -49.0999 H         1 UNK         0.0600 
    129 H129        0.7320   -7.7192  -48.2184 H         1 UNK         0.0600 
    130 H130        0.4391  -10.7919  -46.9719 H         1 UNK         0.3000 
    131 H131        1.7437  -12.3352  -49.0258 H         1 UNK         0.0600 
    132 H132        1.5954  -13.2568  -46.1243 H         1 UNK         0.0800 
    133 H133        0.1252  -13.1152  -47.0365 H         1 UNK         0.0800 
    134 H134       -0.8504  -15.2969  -48.2847 H         1 UNK         0.0800 
    135 H135       -0.2589  -14.0723  -49.3817 H         1 UNK         0.0800 
    136 H136        0.9648  -14.6695  -51.4396 H         1 UNK         0.1150 
    137 H137        0.6745  -18.7212  -52.8029 H         1 UNK         0.1150 
    138 H138       -0.5803  -17.7017  -48.8311 H         1 UNK         0.1150 
    139 H139       -1.2145  -19.9147  -49.9033 H         1 UNK         0.0800 
    140 H140       -0.6033  -20.3099  -51.4868 H         1 UNK         0.0800 
    141 H141        0.1175  -19.6778  -47.8586 H         1 UNK         0.0800 
    142 H142        1.7391  -20.2483  -47.6061 H         1 UNK         0.0800 
    143 H143        0.9035  -22.6298  -47.6562 H         1 UNK         0.0600 
    144 H144        0.5654  -20.8064  -45.5240 H         1 UNK         0.3000 
    145 H145       -0.3983  -23.2079  -43.0360 H         1 UNK         0.0600 
    146 H146        1.5369  -22.1141  -41.9444 H         1 UNK         0.0600 
    147 H147        2.0925  -23.1999  -43.2093 H         1 UNK         0.0600 
    148 H148        2.0806  -21.4632  -43.4889 H         1 UNK         0.0600 
    149 H149       -0.1039  -20.3908  -42.8750 H         1 UNK         0.3000 
    150 H150       -3.4939  -19.5408  -43.7568 H         1 UNK         0.0600 
    151 H151       -3.4289  -20.1808  -41.3347 H         1 UNK         0.0600 
    152 H152       -3.3022  -18.4422  -41.5551 H         1 UNK         0.0600 
    153 H153       -1.8669  -19.3867  -41.1647 H         1 UNK         0.0600 
    154 H154       -1.3216  -17.8742  -43.0531 H         1 UNK         0.3000 
    155 H155       -0.0425  -17.3206  -46.3746 H         1 UNK         0.0600 
    156 H156       -1.5616  -15.6757  -44.2832 H         1 UNK         0.0600 
    157 H157       -0.3697  -15.0070  -45.3926 H         1 UNK         0.0600 
    158 H158       -1.8547  -15.7174  -46.0120 H         1 UNK         0.0600 
    159 H159        0.9405  -16.4189  -43.8859 H         1 UNK         0.3000 
    160 H160        3.0897  -19.1828  -43.1367 H         1 UNK         0.0600 
    161 H161        3.6192  -16.3280  -44.0929 H         1 UNK         0.0600 
    162 H162        4.3323  -17.7858  -44.7718 H         1 UNK         0.0600 
    163 H163        4.7251  -17.3045  -43.1264 H         1 UNK         0.0600 
    164 H164        2.4973  -16.6310  -41.9093 H         1 UNK         0.3000 
    165 H165        0.0149  -17.8982  -39.6602 H         1 UNK         0.0600 
    166 H166        1.5939  -16.8797  -38.0464 H         1 UNK         0.0600 
    167 H167        2.2467  -18.3964  -38.6450 H         1 UNK         0.0600 
    168 H168        2.8777  -16.8715  -39.2558 H         1 UNK         0.0600 
    169 H169        1.1184  -15.2914  -40.0267 H         1 UNK         0.3000 
    170 H170       -1.0641  -14.1535  -42.5677 H         1 UNK         0.0600 
    171 H171       -1.2565  -13.5690  -39.5668 H         1 UNK         0.0600 
    172 H172       -1.8579  -12.5429  -40.8700 H         1 UNK         0.0600 
    173 H173       -2.5849  -14.1151  -40.5834 H         1 UNK         0.0600 
    174 H174        0.6225  -12.6492  -40.9368 H         1 UNK         0.3000 
    175 H175        2.3072  -11.6292  -42.4877 H         1 UNK         0.0600 
    176 H176        4.1921  -11.8087  -40.7926 H         1 UNK         0.0600 
    177 H177        3.6926  -13.4680  -40.4681 H         1 UNK         0.0600 
    178 H178        2.6049  -12.1347  -40.1261 H         1 UNK         0.0600 
    179 H179        3.7597  -12.1180  -44.0539 H         1 UNK         0.3000 
    180 H180        6.7768  -13.2727  -44.1161 H         1 UNK         0.0600 
    181 H181        4.9898  -15.1876  -45.7048 H         1 UNK         0.0600 
    182 H182        6.2486  -15.6737  -44.5689 H         1 UNK         0.0600 
    183 H183        6.6793  -14.8236  -46.0414 H         1 UNK         0.0600 
    184 H184        4.9085  -12.8574  -46.3233 H         1 UNK         0.3000 
    185 H185        4.8243   -9.3445  -46.0556 H         1 UNK         0.0600 
    186 H186        6.8785   -9.6687  -47.3689 H         1 UNK         0.0600 
    187 H187        6.1939  -11.0621  -48.1887 H         1 UNK         0.0600 
    188 H188        5.5078   -9.4585  -48.4477 H         1 UNK         0.0600 
    189 H189        2.8939  -10.1545  -46.6912 H         1 UNK         0.3000 
    190 H190       -2.0070  -20.7365  -46.6467 H         1 UNK         0.3000 
    191 H191       -3.7593  -21.6729  -48.6400 H         1 UNK         0.0600 
    192 H192       -4.2888  -19.7382  -47.2179 H         1 UNK         0.0600 
    193 H193       -5.5547  -20.9452  -47.0409 H         1 UNK         0.0600 
    194 H194       -4.3464  -20.7540  -45.7795 H         1 UNK         0.0600 
    195 H195       -3.0404  -23.0705  -45.4082 H         1 UNK         0.3000 
    196 H196       -4.8466  -25.2549  -45.5534 H         1 UNK         0.0600 
    197 H197       -3.4385  -26.1964  -43.7156 H         1 UNK         0.0600 
    198 H198       -3.8180  -24.5034  -43.4361 H         1 UNK         0.0600 
    199 H199       -2.2169  -24.9639  -44.0070 H         1 UNK         0.0600 
    200 H200       -1.3655  -25.0335  -46.4608 H         1 UNK         0.3000 
    201 H201       -1.0602  -27.6979  -47.3856 H         1 UNK         0.0600 
    202 H202        0.8495  -26.2082  -46.8522 H         1 UNK         0.0600 
    203 H203        0.4326  -25.1453  -48.1941 H         1 UNK         0.0600 
    204 H204        0.9788  -26.7884  -48.5060 H         1 UNK         0.0600 
    205 H205       -2.1798  -24.7610  -49.0371 H         1 UNK         0.3000 
    206 H206       -2.5733  -26.0360  -51.6243 H         1 UNK         0.0600 
    207 H207       -1.9153  -23.6563  -51.4341 H         1 UNK         0.0600 
    208 H208       -3.4764  -23.7871  -52.2251 H         1 UNK         0.0600 
    209 H209       -3.3827  -23.2975  -50.5337 H         1 UNK         0.0600 
    210 H210       -4.1484  -26.8693  -48.9997 H         1 UNK         0.3000 
    211 H211       -6.0779  -27.8249  -48.5035 H         1 UNK         0.0600 
    212 H212       -6.4812  -28.0352  -51.5354 H         1 UNK         0.0600 
    213 H213       -7.2909  -29.0037  -50.3116 H         1 UNK         0.0600 
    214 H214       -5.5565  -29.1592  -50.5406 H         1 UNK         0.0600 
    215 H215       -6.2799  -25.3283  -47.9814 H         1 UNK         0.3000 
    216 H216       -7.6408  -23.7123  -47.3616 H         1 UNK         0.0600 
    217 H217      -10.0745  -23.8034  -47.5365 H         1 UNK         0.0600 
    218 H218       -9.4839  -25.3856  -47.0546 H         1 UNK         0.0600 
    219 H219      -10.0101  -25.1026  -48.7140 H         1 UNK         0.0600 
    220 H220       -5.9749  -23.3884  -49.3339 H         1 UNK         0.3000 
    221 H221       -5.2656  -22.0134  -50.9067 H         1 UNK         0.0600 
    222 H222       -7.6987  -20.3107  -50.1733 H         1 UNK         0.0600 
    223 H223       -6.1572  -20.3227  -49.3200 H         1 UNK         0.0600 
    224 H224       -6.2430  -19.7356  -50.9682 H         1 UNK         0.0600 
    225 H225       -6.5827  -24.1757  -52.0513 H         1 UNK         0.3000 
    226 H226       -8.4312  -23.3714  -54.1286 H         1 UNK         0.0600 
    227 H227       -8.4560  -25.6475  -53.1344 H         1 UNK         0.0600 
    228 H228       -8.1643  -25.7179  -54.8673 H         1 UNK         0.0600 
    229 H229       -6.8334  -25.9567  -53.7440 H         1 UNK         0.0600 
    230 H230       -7.6051  -21.8486  -55.4487 H         1 UNK         0.3000 
    231 H231       -6.5186  -20.8104  -57.0571 H         1 UNK         0.0600 
    232 H232       -5.2416  -23.4851  -57.8279 H         1 UNK         0.0600 
    233 H233       -5.3890  -22.0591  -58.8437 H         1 UNK         0.0600 
    234 H234       -6.8308  -22.9331  -58.3564 H         1 UNK         0.0600 
    235 H235       -5.3632  -20.9216  -54.4037 H         1 UNK         0.3000 
    236 H236       -2.5090  -21.0342  -54.4802 H         1 UNK         0.0600 
    237 H237       -3.6628  -21.2508  -52.3600 H         1 UNK         0.0600 
    238 H238       -2.7510  -19.7537  -52.2818 H         1 UNK         0.0600 
    239 H239       -4.4822  -19.6973  -52.5620 H         1 UNK         0.0600 
    240 H240       -1.0017  -19.5624  -55.0125 H         1 UNK         0.3000 
    241 H241        0.0340  -17.7972  -55.7330 H         1 UNK         0.0600 
    242 H242       -2.2662  -19.0580  -57.5190 H         1 UNK         0.3800 
    243 H243       -2.2464  -17.9481  -58.8644 H         1 UNK         0.3800 
    244 H244       -2.0610  -15.7408  -55.0096 H         1 UNK         0.0800 
    245 H245       -1.4265  -16.6806  -53.7087 H         1 UNK         0.0800 
    246 H246        1.7518  -17.1128  -54.1899 H         1 UNK         0.0800 
    247 H247        2.3392  -15.6443  -53.4627 H         1 UNK         0.0800 
@<TRIPOS>BOND
     1    1    2 1    
     2    1  127 1    
     3    1  128 1    
     4    1  129 1    
     5    2    3 2    
     6    2    4 am   BACKBONE|DICT|INTERRES
     7    4    5 1    
     8    4  130 1    
     9    5    6 1    
    10    5   65 1    
    11    5  131 1    
    12    6    7 1    
    13    6  132 1    
    14    6  133 1    
    15    7    8 1    
    16    8    9 1    
    17    8  134 1    
    18    8  135 1    
    19    9   10 ar   
    20    9   14 ar   
    21   10   11 ar   
    22   10  136 1    
    23   11   12 ar   
    24   11  126 1    
    25   12   13 ar   
    26   12  137 1    
    27   13   14 ar   
    28   13   15 1    
    29   14  138 1    
    30   15   16 1    
    31   15  139 1    
    32   15  140 1    
    33   16   17 1    
    34   17   18 1    
    35   17  141 1    
    36   17  142 1    
    37   18   19 1    
    38   18   67 1    
    39   18  143 1    
    40   19   20 am   BACKBONE|DICT|INTERRES
    41   19  144 1    
    42   20   21 2    
    43   20   22 1    
    44   22   23 1    
    45   22   24 1    
    46   22  145 1    
    47   23  146 1    
    48   23  147 1    
    49   23  148 1    
    50   24   25 am   BACKBONE|DICT|INTERRES
    51   24  149 1    
    52   25   26 2    
    53   25   27 1    
    54   27   28 1    
    55   27   29 1    
    56   27  150 1    
    57   28  151 1    
    58   28  152 1    
    59   28  153 1    
    60   29   30 am   BACKBONE|DICT|INTERRES
    61   29  154 1    
    62   30   31 2    
    63   30   32 1    
    64   32   33 1    
    65   32   34 1    
    66   32  155 1    
    67   33  156 1    
    68   33  157 1    
    69   33  158 1    
    70   34   35 am   BACKBONE|DICT|INTERRES
    71   34  159 1    
    72   35   36 2    
    73   35   37 1    
    74   37   38 1    
    75   37   39 1    
    76   37  160 1    
    77   38  161 1    
    78   38  162 1    
    79   38  163 1    
    80   39   40 am   BACKBONE|DICT|INTERRES
    81   39  164 1    
    82   40   41 2    
    83   40   42 1    
    84   42   43 1    
    85   42   44 1    
    86   42  165 1    
    87   43  166 1    
    88   43  167 1    
    89   43  168 1    
    90   44   45 am   BACKBONE|DICT|INTERRES
    91   44  169 1    
    92   45   46 2    
    93   45   47 1    
    94   47   48 1    
    95   47   49 1    
    96   47  170 1    
    97   48  171 1    
    98   48  172 1    
    99   48  173 1    
   100   49   50 am   BACKBONE|DICT|INTERRES
   101   49  174 1    
   102   50   51 2    
   103   50   52 1    
   104   52   53 1    
   105   52   54 1    
   106   52  175 1    
   107   53  176 1    
   108   53  177 1    
   109   53  178 1    
   110   54   55 am   BACKBONE|DICT|INTERRES
   111   54  179 1    
   112   55   56 2    
   113   55   57 1    
   114   57   58 1    
   115   57   59 1    
   116   57  180 1    
   117   58  181 1    
   118   58  182 1    
   119   58  183 1    
   120   59   60 am   BACKBONE|DICT|INTERRES
   121   59  184 1    
   122   60   61 2    
   123   60   62 1    
   124   62   63 1    
   125   62   64 1    
   126   62  185 1    
   127   63  186 1    
   128   63  187 1    
   129   63  188 1    
   130   64   65 am   BACKBONE|DICT|INTERRES
   131   64  189 1    
   132   65   66 2    
   133   67   68 2    
   134   67   69 am   BACKBONE|DICT|INTERRES
   135   69   70 1    
   136   69  190 1    
   137   70   71 1    
   138   70   72 1    
   139   70  191 1    
   140   71  192 1    
   141   71  193 1    
   142   71  194 1    
   143   72   73 2    
   144   72   74 am   BACKBONE|DICT|INTERRES
   145   74   75 1    
   146   74  195 1    
   147   75   76 1    
   148   75   77 1    
   149   75  196 1    
   150   76  197 1    
   151   76  198 1    
   152   76  199 1    
   153   77   78 2    
   154   77   79 am   BACKBONE|DICT|INTERRES
   155   79   80 1    
   156   79  200 1    
   157   80   81 1    
   158   80   82 1    
   159   80  201 1    
   160   81  202 1    
   161   81  203 1    
   162   81  204 1    
   163   82   83 2    
   164   82   84 am   BACKBONE|DICT|INTERRES
   165   84   85 1    
   166   84  205 1    
   167   85   86 1    
   168   85   87 1    
   169   85  206 1    
   170   86  207 1    
   171   86  208 1    
   172   86  209 1    
   173   87   88 2    
   174   87   89 am   BACKBONE|DICT|INTERRES
   175   89   90 1    
   176   89  210 1    
   177   90   91 1    
   178   90   92 1    
   179   90  211 1    
   180   91  212 1    
   181   91  213 1    
   182   91  214 1    
   183   92   93 2    
   184   92   94 am   BACKBONE|DICT|INTERRES
   185   94   95 1    
   186   94  215 1    
   187   95   96 1    
   188   95   97 1    
   189   95  216 1    
   190   96  217 1    
   191   96  218 1    
   192   96  219 1    
   193   97   98 2    
   194   97   99 am   BACKBONE|DICT|INTERRES
   195   99  100 1    
   196   99  220 1    
   197  100  101 1    
   198  100  102 1    
   199  100  221 1    
   200  101  222 1    
   201  101  223 1    
   202  101  224 1    
   203  102  103 2    
   204  102  104 am   BACKBONE|DICT|INTERRES
   205  104  105 1    
   206  104  225 1    
   207  105  106 1    
   208  105  107 1    
   209  105  226 1    
   210  106  227 1    
   211  106  228 1    
   212  106  229 1    
   213  107  108 2    
   214  107  109 am   BACKBONE|DICT|INTERRES
   215  109  110 1    
   216  109  230 1    
   217  110  111 1    
   218  110  112 1    
   219  110  231 1    
   220  111  232 1    
   221  111  233 1    
   222  111  234 1    
   223  112  113 2    
   224  112  114 am   BACKBONE|DICT|INTERRES
   225  114  115 1    
   226  114  235 1    
   227  115  116 1    
   228  115  117 1    
   229  115  236 1    
   230  116  237 1    
   231  116  238 1    
   232  116  239 1    
   233  117  118 2    
   234  117  119 am   BACKBONE|DICT|INTERRES
   235  119  120 1    
   236  119  240 1    
   237  120  121 1    
   238  120  124 1    
   239  120  241 1    
   240  121  122 am   BACKBONE|DICT|INTERRES
   241  121  123 2    
   242  122  242 1    
   243  122  243 1    
   244  124  125 1    
   245  124  244 1    
   246  124  245 1    
   247  125  126 1    
   248  126  246 1    
   249  126  247 1    
@<TRIPOS>SUBSTRUCTURE
     1 UNK         1 GROUP             0       ****    0 ROOT    
