@<TRIPOS>MOLECULE
3R540
247   249    1
SMALL
USER_CHARGES


@<TRIPOS>ATOM
      1 CA          0.9745  -12.0917  -51.7242 C.3       0 UNK        -0.1800 
      2 C           0.6539  -13.5809  -51.8708 C.2       0 UNK         0.5000 
      3 O           0.0266  -13.9679  -52.8542 O.2       0 UNK        -0.5000 
      4 N           1.0527  -14.4489  -50.9290 N.am      1 UNK        -0.5000 
      5 CA          1.8460  -14.1545  -49.7272 C.3       1 UNK         0.1400 
      6 C6          2.9097  -15.2525  -49.4565 C.3       23 UNK        -0.0398 
      7 S7          2.2349  -16.8580  -48.9087 S.3       23 UNK        -0.2404 
      8 C8          2.2070  -17.7978  -50.4620 C.3       23 UNK        -0.0205 
      9 C9          1.3755  -19.0557  -50.2913 C.ar      23 UNK        -0.0193 
     10 C10        -0.0144  -18.9603  -50.1890 C.ar      23 UNK        -0.1150 
     11 C11        -0.7939  -20.1009  -49.9844 C.ar      23 UNK        -0.0193 
     12 C12        -0.1690  -21.3438  -49.8780 C.ar      23 UNK        -0.1150 
     13 C13         1.2185  -21.4571  -49.9982 C.ar      23 UNK        -0.0193 
     14 C14         1.9869  -20.3090  -50.2124 C.ar      23 UNK        -0.1150 
     15 C15         1.8810  -22.8206  -49.8691 C.3       23 UNK        -0.0205 
     16 S16         3.0866  -22.9019  -48.5021 S.3       23 UNK        -0.2404 
     17 C17         2.1585  -22.1968  -47.0951 C.3       23 UNK        -0.0398 
     18 CA          1.4709  -23.2631  -46.2162 C.3       11 UNK         0.1400 
     19 N           1.2490  -22.7580  -44.8618 N.am      11 UNK        -0.5000 
     20 C           0.9274  -23.5145  -43.8056 C.2       10 UNK         0.5000 
     21 O           0.8288  -24.7404  -43.8479 O.2       10 UNK        -0.5000 
     22 CA          0.6243  -22.7677  -42.4950 C.3       10 UNK         0.1400 
     23 CB          1.9191  -22.4022  -41.7546 C.3       10 UNK        -0.1800 
     24 N          -0.1699  -21.5606  -42.7282 N.am      10 UNK        -0.5000 
     25 C          -1.4503  -21.5739  -43.1260 C.2       9 UNK         0.5000 
     26 O          -2.1078  -22.6049  -43.2712 O.2       9 UNK        -0.5000 
     27 CA         -2.1023  -20.2134  -43.4352 C.3       9 UNK         0.1400 
     28 CB         -2.7103  -19.6118  -42.1598 C.3       9 UNK        -0.1800 
     29 N          -1.1828  -19.2486  -44.0443 N.am      9 UNK        -0.5000 
     30 C          -0.6203  -19.3949  -45.2536 C.2       8 UNK         0.5000 
     31 O          -0.7995  -20.3763  -45.9711 O.2       8 UNK        -0.5000 
     32 CA          0.3641  -18.3031  -45.7087 C.3       8 UNK         0.1400 
     33 CB         -0.3731  -17.0283  -46.1427 C.3       8 UNK        -0.1800 
     34 N           1.3415  -17.9679  -44.6754 N.am      8 UNK        -0.5000 
     35 C           2.2130  -18.8291  -44.1319 C.2       7 UNK         0.5000 
     36 O           2.2873  -20.0209  -44.4369 O.2       7 UNK        -0.5000 
     37 CA          3.1265  -18.2673  -43.0314 C.3       7 UNK         0.1400 
     38 CB          4.2953  -17.4734  -43.6389 C.3       7 UNK        -0.1800 
     39 N           2.3710  -17.4134  -42.1149 N.am      7 UNK        -0.5000 
     40 C           1.6080  -17.8800  -41.1074 C.2       6 UNK         0.5000 
     41 O           1.5133  -19.0761  -40.8105 O.2       6 UNK        -0.5000 
     42 CA          0.7992  -16.8420  -40.3043 C.3       6 UNK         0.1400 
     43 CB          1.6309  -16.3031  -39.1256 C.3       6 UNK        -0.1800 
     44 N           0.3304  -15.7152  -41.1172 N.am      6 UNK        -0.5000 
     45 C          -0.5668  -15.8164  -42.1098 C.2       5 UNK         0.5000 
     46 O          -1.0950  -16.8746  -42.4505 O.2       5 UNK        -0.5000 
     47 CA         -0.9009  -14.5259  -42.8813 C.3       5 UNK         0.1400 
     48 CB         -1.9981  -13.7357  -42.1534 C.3       5 UNK        -0.1800 
     49 N           0.2417  -13.6414  -43.1331 N.am      5 UNK        -0.5000 
     50 C           1.3993  -13.9887  -43.7124 C.2       4 UNK         0.5000 
     51 O           1.7102  -15.1511  -43.9807 O.2       4 UNK        -0.5000 
     52 CA          2.3271  -12.8219  -44.0958 C.3       4 UNK         0.1400 
     53 CB          3.6820  -13.3012  -44.6495 C.3       4 UNK        -0.1800 
     54 N           1.6503  -12.0261  -45.1170 N.am      4 UNK        -0.5000 
     55 C           0.9248  -10.9201  -44.8979 C.2       3 UNK         0.5000 
     56 O           0.8544  -10.3584  -43.8043 O.2       3 UNK        -0.5000 
     57 CA          0.0961  -10.3792  -46.0846 C.3       3 UNK         0.1400 
     58 CB          0.9096   -9.3507  -46.8871 C.3       3 UNK        -0.1800 
     59 N          -0.3652  -11.4352  -46.9901 N.am      3 UNK        -0.5000 
     60 C          -1.2079  -12.4239  -46.6526 C.2       2 UNK         0.5000 
     61 O          -1.8089  -12.4641  -45.5775 O.2       2 UNK        -0.5000 
     62 CA         -1.4047  -13.5772  -47.6618 C.3       2 UNK         0.1400 
     63 CB         -2.7627  -13.4359  -48.3648 C.3       2 UNK        -0.1800 
     64 N          -0.3631  -13.7468  -48.6859 N.am      2 UNK        -0.5000 
     65 C           0.9615  -13.8603  -48.4925 C.2       1 UNK         0.5000 
     66 O           1.4995  -13.7258  -47.3948 O.2       1 UNK        -0.5000 
     67 C           0.1651  -23.7922  -46.8505 C.2       11 UNK         0.5000 
     68 O           0.1817  -24.8492  -47.4819 O.2       11 UNK        -0.5000 
     69 N          -0.9572  -23.0934  -46.6236 N.am      12 UNK        -0.5000 
     70 CA         -2.2960  -23.4607  -47.0943 C.3       12 UNK         0.1400 
     71 CB         -3.2948  -22.3488  -46.7454 C.3       12 UNK        -0.1800 
     72 C          -2.8034  -24.8180  -46.5714 C.2       12 UNK         0.5000 
     73 O          -3.6396  -25.4386  -47.2256 O.2       12 UNK        -0.5000 
     74 N          -2.2798  -25.2747  -45.4258 N.am      13 UNK        -0.5000 
     75 CA         -2.5407  -26.6080  -44.8831 C.3       13 UNK         0.1400 
     76 CB         -2.1019  -26.6506  -43.4117 C.3       13 UNK        -0.1800 
     77 C          -1.8550  -27.7308  -45.6905 C.2       13 UNK         0.5000 
     78 O          -2.3304  -28.8668  -45.6552 O.2       13 UNK        -0.5000 
     79 N          -0.7629  -27.4047  -46.3976 N.am      14 UNK        -0.5000 
     80 CA         -0.0199  -28.3261  -47.2559 C.3       14 UNK         0.1400 
     81 CB          1.4845  -28.0283  -47.1443 C.3       14 UNK        -0.1800 
     82 C          -0.4857  -28.2337  -48.7192 C.2       14 UNK         0.5000 
     83 O          -0.6446  -29.2701  -49.3655 O.2       14 UNK        -0.5000 
     84 N          -0.7006  -27.0086  -49.2157 N.am      15 UNK        -0.5000 
     85 CA         -1.1248  -26.7218  -50.5830 C.3       15 UNK         0.1400 
     86 CB          0.1120  -26.4524  -51.4592 C.3       15 UNK        -0.1800 
     87 C          -2.0842  -25.5268  -50.5525 C.2       15 UNK         0.5000 
     88 O          -1.6338  -24.3832  -50.4919 O.2       15 UNK        -0.5000 
     89 N          -3.3917  -25.8093  -50.5518 N.am      16 UNK        -0.5000 
     90 CA         -4.4766  -24.8360  -50.4112 C.3       16 UNK         0.1400 
     91 CB         -5.7557  -25.5854  -49.9949 C.3       16 UNK        -0.1800 
     92 C          -4.6906  -23.9740  -51.6733 C.2       16 UNK         0.5000 
     93 O          -5.7132  -24.1069  -52.3490 O.2       16 UNK        -0.5000 
     94 N          -3.7348  -23.0832  -51.9650 N.am      17 UNK        -0.5000 
     95 CA         -3.7639  -22.1081  -53.0616 C.3       17 UNK         0.1400 
     96 CB         -2.3222  -21.6639  -53.3697 C.3       17 UNK        -0.1800 
     97 C          -4.7207  -20.9208  -52.7932 C.2       17 UNK         0.5000 
     98 O          -4.3294  -19.7552  -52.9111 O.2       17 UNK        -0.5000 
     99 N          -5.9696  -21.2343  -52.4278 N.am      18 UNK        -0.5000 
    100 CA        -7.0666  -20.2884  -52.2302 C.3       18 UNK         0.1400 
    101 CB        -8.2995  -21.0478  -51.7202 C.3       18 UNK        -0.1800 
    102 C         -7.3870  -19.5304  -53.5298 C.2       18 UNK         0.5000 
    103 O         -7.3638  -20.1312  -54.6064 O.2       18 UNK        -0.5000 
    104 N         -7.6224  -18.2183  -53.4064 N.am      19 UNK        -0.5000 
    105 CA        -7.8030  -17.2147  -54.4668 C.3       19 UNK         0.1400 
    106 CB        -8.9888  -17.5580  -55.3892 C.3       19 UNK        -0.1800 
    107 C         -6.5249  -16.9163  -55.2805 C.2       19 UNK         0.5000 
    108 O         -6.3032  -15.7609  -55.6425 O.2       19 UNK        -0.5000 
    109 N         -5.7018  -17.9406  -55.5367 N.am      20 UNK        -0.5000 
    110 CA        -4.4292  -17.8518  -56.2488 C.3       20 UNK         0.1400 
    111 CB        -3.9541  -19.2664  -56.6149 C.3       20 UNK        -0.1800 
    112 C         -3.3494  -17.0987  -55.4513 C.2       20 UNK         0.5000 
    113 O         -2.6690  -16.2441  -56.0212 O.2       20 UNK        -0.5000 
    114 N         -3.2168  -17.4231  -54.1583 N.am      21 UNK        -0.5000 
    115 CA        -2.2235  -16.8314  -53.2574 C.3       21 UNK         0.1400 
    116 CB        -0.9686  -17.7170  -53.2419 C.3       21 UNK        -0.1800 
    117 C         -2.7592  -16.5921  -51.8327 C.2       21 UNK         0.5000 
    118 O         -2.1869  -15.7658  -51.1131 O.2       21 UNK        -0.5000 
    119 N         -3.8400  -17.2917  -51.4511 N.am      22 UNK        -0.5000 
    120 CA        -4.5562  -17.1295  -50.1706 C.3       22 UNK         0.1400 
    121 C         -5.9895  -16.5517  -50.3632 C.2       22 UNK         0.5000 
    122 N         -6.3147  -15.9585  -51.5058 N.am      22 UNK        -0.7600 
    123 O         -6.8224  -16.6220  -49.4638 O.2       22 UNK        -0.5000 
    124 C124       -4.5509  -18.4386  -49.3334 C.3       23 UNK        -0.0398 
    125 S125       -2.8932  -18.8223  -48.6811 S.3       23 UNK        -0.2404 
    126 C126       -2.3093  -19.9981  -49.9361 C.3       23 UNK        -0.0205 
    127 H127        0.4308  -11.5092  -52.4684 H         1 UNK         0.0600 
    128 H128        2.0408  -11.9116  -51.8747 H         1 UNK         0.0600 
    129 H129        0.6855  -11.7182  -50.7397 H         1 UNK         0.0600 
    130 H130        0.7731  -15.4168  -51.0232 H         1 UNK         0.3000 
    131 H131        2.4142  -13.2388  -49.8960 H         1 UNK         0.0600 
    132 H132        3.5252  -15.4019  -50.3446 H         1 UNK         0.0800 
    133 H133        3.6007  -14.9105  -48.6841 H         1 UNK         0.0800 
    134 H134        1.7893  -17.1917  -51.2650 H         1 UNK         0.0800 
    135 H135        3.2292  -18.0419  -50.7547 H         1 UNK         0.0800 
    136 H136       -0.4916  -17.9927  -50.2551 H         1 UNK         0.1150 
    137 H137       -0.7649  -22.2255  -49.7042 H         1 UNK         0.1150 
    138 H138        3.0620  -20.3915  -50.2890 H         1 UNK         0.1150 
    139 H139        1.1315  -23.6000  -49.7252 H         1 UNK         0.0800 
    140 H140        2.3894  -23.0579  -50.8043 H         1 UNK         0.0800 
    141 H141        1.4537  -21.4265  -47.4093 H         1 UNK         0.0800 
    142 H142        2.9028  -21.6661  -46.5001 H         1 UNK         0.0800 
    143 H143        2.1511  -24.1128  -46.1239 H         1 UNK         0.0600 
    144 H144        1.3474  -21.7552  -44.7315 H         1 UNK         0.3000 
    145 H145        0.0470  -23.4383  -41.8547 H         1 UNK         0.0600 
    146 H146        1.7033  -21.9343  -40.7942 H         1 UNK         0.0600 
    147 H147        2.5190  -23.2910  -41.5557 H         1 UNK         0.0600 
    148 H148        2.5360  -21.7117  -42.3302 H         1 UNK         0.0600 
    149 H149        0.3056  -20.6739  -42.6371 H         1 UNK         0.3000 
    150 H150       -2.9132  -20.3890  -44.1448 H         1 UNK         0.0600 
    151 H151       -3.4160  -20.3044  -41.6972 H         1 UNK         0.0600 
    152 H152       -3.2542  -18.6918  -42.3788 H         1 UNK         0.0600 
    153 H153       -1.9417  -19.3793  -41.4199 H         1 UNK         0.0600 
    154 H154       -0.9973  -18.4021  -43.5084 H         1 UNK         0.3000 
    155 H155        0.9148  -18.6864  -46.5705 H         1 UNK         0.0600 
    156 H156       -1.0020  -16.6342  -45.3453 H         1 UNK         0.0600 
    157 H157        0.3298  -16.2470  -46.4328 H         1 UNK         0.0600 
    158 H158       -1.0130  -17.2232  -47.0030 H         1 UNK         0.0600 
    159 H159        1.3755  -16.9954  -44.3794 H         1 UNK         0.3000 
    160 H160        3.5460  -19.1091  -42.4760 H         1 UNK         0.0600 
    161 H161        4.9625  -17.0959  -42.8622 H         1 UNK         0.0600 
    162 H162        3.9485  -16.6223  -44.2258 H         1 UNK         0.0600 
    163 H163        4.8903  -18.1051  -44.3012 H         1 UNK         0.0600 
    164 H164        2.3230  -16.4291  -42.3571 H         1 UNK         0.3000 
    165 H165       -0.0793  -17.3528  -39.8959 H         1 UNK         0.0600 
    166 H166        1.0410  -15.6325  -38.4999 H         1 UNK         0.0600 
    167 H167        1.9783  -17.1180  -38.4860 H         1 UNK         0.0600 
    168 H168        2.5118  -15.7549  -39.4709 H         1 UNK         0.0600 
    169 H169        0.7243  -14.8069  -40.9147 H         1 UNK         0.3000 
    170 H170       -1.2938  -14.8213  -43.8563 H         1 UNK         0.0600 
    171 H171       -2.8722  -14.3625  -41.9623 H         1 UNK         0.0600 
    172 H172       -1.6486  -13.3541  -41.1921 H         1 UNK         0.0600 
    173 H173       -2.3337  -12.8864  -42.7518 H         1 UNK         0.0600 
    174 H174        0.0775  -12.6566  -42.9752 H         1 UNK         0.3000 
    175 H175        2.5153  -12.2265  -43.2001 H         1 UNK         0.0600 
    176 H176        4.3215  -12.4573  -44.9098 H         1 UNK         0.0600 
    177 H177        3.5595  -13.9145  -45.5434 H         1 UNK         0.0600 
    178 H178        4.2161  -13.9004  -43.9102 H         1 UNK         0.0600 
    179 H179        1.5876  -12.4753  -46.0285 H         1 UNK         0.3000 
    180 H180       -0.7843   -9.8783  -45.6744 H         1 UNK         0.0600 
    181 H181        1.7957   -9.8014  -47.3386 H         1 UNK         0.0600 
    182 H182        1.2466   -8.5343  -46.2466 H         1 UNK         0.0600 
    183 H183        0.3119   -8.9092  -47.6855 H         1 UNK         0.0600 
    184 H184        0.0806  -11.4814  -47.8945 H         1 UNK         0.3000 
    185 H185       -1.4235  -14.4983  -47.0774 H         1 UNK         0.0600 
    186 H186       -3.5739  -13.3451  -47.6403 H         1 UNK         0.0600 
    187 H187       -2.7920  -12.5533  -49.0061 H         1 UNK         0.0600 
    188 H188       -2.9806  -14.3066  -48.9829 H         1 UNK         0.0600 
    189 H189       -0.7029  -13.9100  -49.6242 H         1 UNK         0.3000 
    190 H190       -0.8809  -22.1880  -46.1636 H         1 UNK         0.3000 
    191 H191       -2.2451  -23.5288  -48.1793 H         1 UNK         0.0600 
    192 H192       -2.9847  -21.3931  -47.1650 H         1 UNK         0.0600 
    193 H193       -4.2842  -22.5718  -47.1463 H         1 UNK         0.0600 
    194 H194       -3.3972  -22.2262  -45.6678 H         1 UNK         0.0600 
    195 H195       -1.6157  -24.6961  -44.9291 H         1 UNK         0.3000 
    196 H196       -3.6178  -26.7857  -44.9182 H         1 UNK         0.0600 
    197 H197       -2.3749  -27.6019  -42.9523 H         1 UNK         0.0600 
    198 H198       -2.5795  -25.8596  -42.8326 H         1 UNK         0.0600 
    199 H199       -1.0224  -26.5379  -43.3093 H         1 UNK         0.0600 
    200 H200       -0.4629  -26.4365  -46.4194 H         1 UNK         0.3000 
    201 H201       -0.1772  -29.3529  -46.9189 H         1 UNK         0.0600 
    202 H202        1.8287  -28.1257  -46.1145 H         1 UNK         0.0600 
    203 H203        1.7290  -27.0215  -47.4842 H         1 UNK         0.0600 
    204 H204        2.0648  -28.7265  -47.7486 H         1 UNK         0.0600 
    205 H205       -0.5273  -26.1969  -48.6270 H         1 UNK         0.3000 
    206 H206       -1.6620  -27.5754  -51.0021 H         1 UNK         0.0600 
    207 H207        0.7437  -27.3378  -51.5302 H         1 UNK         0.0600 
    208 H208       -0.1804  -26.1776  -52.4734 H         1 UNK         0.0600 
    209 H209        0.7212  -25.6409  -51.0598 H         1 UNK         0.0600 
    210 H210       -3.6759  -26.7764  -50.6062 H         1 UNK         0.3000 
    211 H211       -4.2218  -24.1516  -49.5998 H         1 UNK         0.0600 
    212 H212       -6.0634  -26.3109  -50.7490 H         1 UNK         0.0600 
    213 H213       -6.5849  -24.8924  -49.8462 H         1 UNK         0.0600 
    214 H214       -5.6117  -26.1199  -49.0558 H         1 UNK         0.0600 
    215 H215       -2.8947  -23.1042  -51.3961 H         1 UNK         0.3000 
    216 H216       -4.1437  -22.6095  -53.9539 H         1 UNK         0.0600 
    217 H217       -2.2924  -20.9379  -54.1826 H         1 UNK         0.0600 
    218 H218       -1.7097  -22.5125  -53.6746 H         1 UNK         0.0600 
    219 H219       -1.8423  -21.2081  -52.5056 H         1 UNK         0.0600 
    220 H220       -6.2057  -22.2209  -52.3926 H         1 UNK         0.3000 
    221 H221       -6.7595  -19.5712  -51.4672 H         1 UNK         0.0600 
    222 H222       -8.0879  -21.5568  -50.7795 H         1 UNK         0.0600 
    223 H223       -9.1322  -20.3664  -51.5414 H         1 UNK         0.0600 
    224 H224       -8.6350  -21.7968  -52.4388 H         1 UNK         0.0600 
    225 H225       -7.5864  -17.8257  -52.4755 H         1 UNK         0.3000 
    226 H226       -8.0590  -16.2893  -53.9488 H         1 UNK         0.0600 
    227 H227       -9.8972  -17.7368  -54.8140 H         1 UNK         0.0600 
    228 H228       -9.1950  -16.7353  -56.0747 H         1 UNK         0.0600 
    229 H229       -8.7953  -18.4418  -55.9972 H         1 UNK         0.0600 
    230 H230       -5.9963  -18.8610  -55.2281 H         1 UNK         0.3000 
    231 H231       -4.5996  -17.3026  -57.1771 H         1 UNK         0.0600 
    232 H232       -3.8284  -19.8907  -55.7307 H         1 UNK         0.0600 
    233 H233       -2.9964  -19.2355  -57.1359 H         1 UNK         0.0600 
    234 H234       -4.6671  -19.7623  -57.2736 H         1 UNK         0.0600 
    235 H235       -3.7709  -18.1907  -53.7893 H         1 UNK         0.3000 
    236 H236       -1.9371  -15.8466  -53.6327 H         1 UNK         0.0600 
    237 H237       -0.5482  -17.8243  -54.2418 H         1 UNK         0.0600 
    238 H238       -0.1943  -17.2789  -52.6138 H         1 UNK         0.0600 
    239 H239       -1.1867  -18.7153  -52.8617 H         1 UNK         0.0600 
    240 H240       -4.2035  -18.0153  -52.0649 H         1 UNK         0.3000 
    241 H241       -4.0556  -16.3698  -49.5688 H         1 UNK         0.0600 
    242 H242       -5.6192  -15.8196  -52.2217 H         1 UNK         0.3800 
    243 H243       -7.2203  -15.5239  -51.5886 H         1 UNK         0.3800 
    244 H244       -5.2057  -18.3515  -48.4651 H         1 UNK         0.0800 
    245 H245       -4.9302  -19.2795  -49.9148 H         1 UNK         0.0800 
    246 H246       -2.7679  -20.9710  -49.7537 H         1 UNK         0.0800 
    247 H247       -2.6454  -19.6714  -50.9173 H         1 UNK         0.0800 
@<TRIPOS>BOND
     1    1    2 1    
     2    1  127 1    
     3    1  128 1    
     4    1  129 1    
     5    2    3 2    
     6    2    4 am   BACKBONE|DICT|INTERRES
     7    4    5 1    
     8    4  130 1    
     9    5    6 1    
    10    5   65 1    
    11    5  131 1    
    12    6    7 1    
    13    6  132 1    
    14    6  133 1    
    15    7    8 1    
    16    8    9 1    
    17    8  134 1    
    18    8  135 1    
    19    9   10 ar   
    20    9   14 ar   
    21   10   11 ar   
    22   10  136 1    
    23   11   12 ar   
    24   11  126 1    
    25   12   13 ar   
    26   12  137 1    
    27   13   14 ar   
    28   13   15 1    
    29   14  138 1    
    30   15   16 1    
    31   15  139 1    
    32   15  140 1    
    33   16   17 1    
    34   17   18 1    
    35   17  141 1    
    36   17  142 1    
    37   18   19 1    
    38   18   67 1    
    39   18  143 1    
    40   19   20 am   BACKBONE|DICT|INTERRES
    41   19  144 1    
    42   20   21 2    
    43   20   22 1    
    44   22   23 1    
    45   22   24 1    
    46   22  145 1    
    47   23  146 1    
    48   23  147 1    
    49   23  148 1    
    50   24   25 am   BACKBONE|DICT|INTERRES
    51   24  149 1    
    52   25   26 2    
    53   25   27 1    
    54   27   28 1    
    55   27   29 1    
    56   27  150 1    
    57   28  151 1    
    58   28  152 1    
    59   28  153 1    
    60   29   30 am   BACKBONE|DICT|INTERRES
    61   29  154 1    
    62   30   31 2    
    63   30   32 1    
    64   32   33 1    
    65   32   34 1    
    66   32  155 1    
    67   33  156 1    
    68   33  157 1    
    69   33  158 1    
    70   34   35 am   BACKBONE|DICT|INTERRES
    71   34  159 1    
    72   35   36 2    
    73   35   37 1    
    74   37   38 1    
    75   37   39 1    
    76   37  160 1    
    77   38  161 1    
    78   38  162 1    
    79   38  163 1    
    80   39   40 am   BACKBONE|DICT|INTERRES
    81   39  164 1    
    82   40   41 2    
    83   40   42 1    
    84   42   43 1    
    85   42   44 1    
    86   42  165 1    
    87   43  166 1    
    88   43  167 1    
    89   43  168 1    
    90   44   45 am   BACKBONE|DICT|INTERRES
    91   44  169 1    
    92   45   46 2    
    93   45   47 1    
    94   47   48 1    
    95   47   49 1    
    96   47  170 1    
    97   48  171 1    
    98   48  172 1    
    99   48  173 1    
   100   49   50 am   BACKBONE|DICT|INTERRES
   101   49  174 1    
   102   50   51 2    
   103   50   52 1    
   104   52   53 1    
   105   52   54 1    
   106   52  175 1    
   107   53  176 1    
   108   53  177 1    
   109   53  178 1    
   110   54   55 am   BACKBONE|DICT|INTERRES
   111   54  179 1    
   112   55   56 2    
   113   55   57 1    
   114   57   58 1    
   115   57   59 1    
   116   57  180 1    
   117   58  181 1    
   118   58  182 1    
   119   58  183 1    
   120   59   60 am   BACKBONE|DICT|INTERRES
   121   59  184 1    
   122   60   61 2    
   123   60   62 1    
   124   62   63 1    
   125   62   64 1    
   126   62  185 1    
   127   63  186 1    
   128   63  187 1    
   129   63  188 1    
   130   64   65 am   BACKBONE|DICT|INTERRES
   131   64  189 1    
   132   65   66 2    
   133   67   68 2    
   134   67   69 am   BACKBONE|DICT|INTERRES
   135   69   70 1    
   136   69  190 1    
   137   70   71 1    
   138   70   72 1    
   139   70  191 1    
   140   71  192 1    
   141   71  193 1    
   142   71  194 1    
   143   72   73 2    
   144   72   74 am   BACKBONE|DICT|INTERRES
   145   74   75 1    
   146   74  195 1    
   147   75   76 1    
   148   75   77 1    
   149   75  196 1    
   150   76  197 1    
   151   76  198 1    
   152   76  199 1    
   153   77   78 2    
   154   77   79 am   BACKBONE|DICT|INTERRES
   155   79   80 1    
   156   79  200 1    
   157   80   81 1    
   158   80   82 1    
   159   80  201 1    
   160   81  202 1    
   161   81  203 1    
   162   81  204 1    
   163   82   83 2    
   164   82   84 am   BACKBONE|DICT|INTERRES
   165   84   85 1    
   166   84  205 1    
   167   85   86 1    
   168   85   87 1    
   169   85  206 1    
   170   86  207 1    
   171   86  208 1    
   172   86  209 1    
   173   87   88 2    
   174   87   89 am   BACKBONE|DICT|INTERRES
   175   89   90 1    
   176   89  210 1    
   177   90   91 1    
   178   90   92 1    
   179   90  211 1    
   180   91  212 1    
   181   91  213 1    
   182   91  214 1    
   183   92   93 2    
   184   92   94 am   BACKBONE|DICT|INTERRES
   185   94   95 1    
   186   94  215 1    
   187   95   96 1    
   188   95   97 1    
   189   95  216 1    
   190   96  217 1    
   191   96  218 1    
   192   96  219 1    
   193   97   98 2    
   194   97   99 am   BACKBONE|DICT|INTERRES
   195   99  100 1    
   196   99  220 1    
   197  100  101 1    
   198  100  102 1    
   199  100  221 1    
   200  101  222 1    
   201  101  223 1    
   202  101  224 1    
   203  102  103 2    
   204  102  104 am   BACKBONE|DICT|INTERRES
   205  104  105 1    
   206  104  225 1    
   207  105  106 1    
   208  105  107 1    
   209  105  226 1    
   210  106  227 1    
   211  106  228 1    
   212  106  229 1    
   213  107  108 2    
   214  107  109 am   BACKBONE|DICT|INTERRES
   215  109  110 1    
   216  109  230 1    
   217  110  111 1    
   218  110  112 1    
   219  110  231 1    
   220  111  232 1    
   221  111  233 1    
   222  111  234 1    
   223  112  113 2    
   224  112  114 am   BACKBONE|DICT|INTERRES
   225  114  115 1    
   226  114  235 1    
   227  115  116 1    
   228  115  117 1    
   229  115  236 1    
   230  116  237 1    
   231  116  238 1    
   232  116  239 1    
   233  117  118 2    
   234  117  119 am   BACKBONE|DICT|INTERRES
   235  119  120 1    
   236  119  240 1    
   237  120  121 1    
   238  120  124 1    
   239  120  241 1    
   240  121  122 am   BACKBONE|DICT|INTERRES
   241  121  123 2    
   242  122  242 1    
   243  122  243 1    
   244  124  125 1    
   245  124  244 1    
   246  124  245 1    
   247  125  126 1    
   248  126  246 1    
   249  126  247 1    
@<TRIPOS>SUBSTRUCTURE
     1 UNK         1 GROUP             0       ****    0 ROOT    
