@<TRIPOS>MOLECULE
3R540
247   249    1
SMALL
USER_CHARGES


@<TRIPOS>ATOM
      1 CA          1.6945  -19.4890  -51.5841 C.3       0 UNK        -0.1800 
      2 C           1.5146  -18.3907  -50.5462 C.2       0 UNK         0.5000 
      3 O           1.7285  -18.6344  -49.3601 O.2       0 UNK        -0.5000 
      4 N           1.1306  -17.1852  -50.9927 N.am      1 UNK        -0.5000 
      5 CA          0.8016  -16.0104  -50.1683 C.3       1 UNK         0.1400 
      6 C6          0.3471  -14.8270  -51.0645 C.3       23 UNK        -0.0398 
      7 S7         -0.3314  -13.3903  -50.1572 S.3       23 UNK        -0.2404 
      8 C8         -2.0957  -13.4062  -50.6333 C.3       23 UNK        -0.0205 
      9 C9         -2.9196  -14.5745  -50.0906 C.ar      23 UNK        -0.0193 
     10 C10        -4.1002  -14.9257  -50.7527 C.ar      23 UNK        -0.1150 
     11 C11        -4.9024  -15.9714  -50.2868 C.ar      23 UNK        -0.0193 
     12 C12        -4.5015  -16.6892  -49.1556 C.ar      23 UNK        -0.1150 
     13 C13        -3.3331  -16.3436  -48.4690 C.ar      23 UNK        -0.0193 
     14 C14        -2.5620  -15.2720  -48.9299 C.ar      23 UNK        -0.1150 
     15 C15        -2.9348  -17.0998  -47.2062 C.3       23 UNK        -0.0205 
     16 S16        -1.2014  -17.6626  -47.2364 S.3       23 UNK        -0.2404 
     17 C17        -1.1354  -18.6471  -45.7118 C.3       23 UNK        -0.0398 
     18 CA         -0.7476  -20.1247  -45.9521 C.3       11 UNK         0.1400 
     19 N          -0.2287  -20.7206  -44.7223 N.am      11 UNK        -0.5000 
     20 C           0.2831  -21.9509  -44.6092 C.2       10 UNK         0.5000 
     21 O           0.4552  -22.7156  -45.5553 O.2       10 UNK        -0.5000 
     22 CA          0.5923  -22.4295  -43.1820 C.3       10 UNK         0.1400 
     23 CB          1.9588  -21.9081  -42.7100 C.3       10 UNK        -0.1800 
     24 N          -0.4574  -22.0319  -42.2407 N.am      10 UNK        -0.5000 
     25 C          -1.7163  -22.4959  -42.2787 C.2       9 UNK         0.5000 
     26 O          -2.1076  -23.3429  -43.0812 O.2       9 UNK        -0.5000 
     27 CA         -2.7169  -21.8750  -41.2874 C.3       9 UNK         0.1400 
     28 CB         -2.5938  -22.5373  -39.9074 C.3       9 UNK        -0.1800 
     29 N          -2.5435  -20.4285  -41.1509 N.am      9 UNK        -0.5000 
     30 C          -2.7746  -19.5389  -42.1277 C.2       8 UNK         0.5000 
     31 O          -3.2189  -19.8411  -43.2340 O.2       8 UNK        -0.5000 
     32 CA         -2.3854  -18.0755  -41.8389 C.3       8 UNK         0.1400 
     33 CB         -3.5547  -17.3202  -41.1916 C.3       8 UNK        -0.1800 
     34 N          -1.1987  -17.9682  -40.9846 N.am      8 UNK        -0.5000 
     35 C           0.0190  -18.3944  -41.3420 C.2       7 UNK         0.5000 
     36 O           0.2727  -18.8688  -42.4508 O.2       7 UNK        -0.5000 
     37 CA          1.0944  -18.3801  -40.2506 C.3       7 UNK         0.1400 
     38 CB          1.0197  -19.6910  -39.4394 C.3       7 UNK        -0.1800 
     39 N           2.4143  -18.2178  -40.8552 N.am      7 UNK        -0.5000 
     40 C           3.5451  -17.9793  -40.1764 C.2       6 UNK         0.5000 
     41 O           3.6036  -17.8812  -38.9499 O.2       6 UNK        -0.5000 
     42 CA          4.8219  -17.7734  -41.0051 C.3       6 UNK         0.1400 
     43 CB          5.2407  -19.0614  -41.7353 C.3       6 UNK        -0.1800 
     44 N           4.6241  -16.6876  -41.9616 N.am      6 UNK        -0.5000 
     45 C           4.8025  -15.3888  -41.6753 C.2       5 UNK         0.5000 
     46 O           5.2628  -14.9833  -40.6072 O.2       5 UNK        -0.5000 
     47 CA          4.3975  -14.3597  -42.7509 C.3       5 UNK         0.1400 
     48 CB          5.6228  -13.9280  -43.5704 C.3       5 UNK        -0.1800 
     49 N           3.3679  -14.8577  -43.6615 N.am      5 UNK        -0.5000 
     50 C           2.0916  -15.0907  -43.3204 C.2       4 UNK         0.5000 
     51 O           1.6152  -14.8066  -42.2212 O.2       4 UNK        -0.5000 
     52 CA          1.2072  -15.7948  -44.3690 C.3       4 UNK         0.1400 
     53 CB          0.3456  -14.7648  -45.1140 C.3       4 UNK        -0.1800 
     54 N           1.9690  -16.5958  -45.3363 N.am      4 UNK        -0.5000 
     55 C           2.7445  -17.6434  -45.0094 C.2       3 UNK         0.5000 
     56 O           2.8443  -18.0687  -43.8591 O.2       3 UNK        -0.5000 
     57 CA          3.6134  -18.2864  -46.1074 C.3       3 UNK         0.1400 
     58 CB          3.1159  -19.6923  -46.4587 C.3       3 UNK        -0.1800 
     59 N           3.7222  -17.4845  -47.3270 N.am      3 UNK        -0.5000 
     60 C           4.4215  -16.3429  -47.4173 C.2       2 UNK         0.5000 
     61 O           5.0583  -15.8662  -46.4771 O.2       2 UNK        -0.5000 
     62 CA          4.3830  -15.5830  -48.7602 C.3       2 UNK         0.1400 
     63 CB          5.6293  -15.9114  -49.5958 C.3       2 UNK        -0.1800 
     64 N           3.1888  -15.8393  -49.5696 N.am      2 UNK        -0.5000 
     65 C           1.9259  -15.6030  -49.1843 C.2       1 UNK         0.5000 
     66 O           1.6357  -15.1338  -48.0836 O.2       1 UNK        -0.5000 
     67 C          -1.9022  -20.9550  -46.5550 C.2       11 UNK         0.5000 
     68 O          -1.8322  -21.3556  -47.7188 O.2       11 UNK        -0.5000 
     69 N          -2.9292  -21.2209  -45.7384 N.am      12 UNK        -0.5000 
     70 CA         -4.1402  -21.9300  -46.1381 C.3       12 UNK         0.1400 
     71 CB         -5.1986  -21.7876  -45.0335 C.3       12 UNK        -0.1800 
     72 C          -3.9143  -23.4123  -46.4834 C.2       12 UNK         0.5000 
     73 O          -4.3977  -23.8607  -47.5233 O.2       12 UNK        -0.5000 
     74 N          -3.2268  -24.1513  -45.6022 N.am      13 UNK        -0.5000 
     75 CA         -3.1208  -25.6074  -45.6862 C.3       13 UNK         0.1400 
     76 CB         -3.2519  -26.2170  -44.2799 C.3       13 UNK        -0.1800 
     77 C          -1.8222  -26.0681  -46.3625 C.2       13 UNK         0.5000 
     78 O          -1.8861  -26.8097  -47.3432 O.2       13 UNK        -0.5000 
     79 N          -0.6708  -25.6646  -45.8079 N.am      14 UNK        -0.5000 
     80 CA          0.6418  -26.1926  -46.1910 C.3       14 UNK         0.1400 
     81 CB          1.6680  -25.9098  -45.0814 C.3       14 UNK        -0.1800 
     82 C           1.1259  -25.6626  -47.5503 C.2       14 UNK         0.5000 
     83 O           1.5310  -26.4526  -48.4042 O.2       14 UNK        -0.5000 
     84 N           1.0630  -24.3383  -47.7290 N.am      15 UNK        -0.5000 
     85 CA          1.4272  -23.6539  -48.9695 C.3       15 UNK         0.1400 
     86 CB          1.7576  -22.1895  -48.6539 C.3       15 UNK        -0.1800 
     87 C           0.3217  -23.7393  -50.0361 C.2       15 UNK         0.5000 
     88 O           0.6257  -23.6160  -51.2230 O.2       15 UNK        -0.5000 
     89 N          -0.9276  -23.9500  -49.5913 N.am      16 UNK        -0.5000 
     90 CA         -2.1525  -24.0499  -50.3905 C.3       16 UNK         0.1400 
     91 CB         -2.1468  -25.3400  -51.2359 C.3       16 UNK        -0.1800 
     92 C          -2.4127  -22.7786  -51.2237 C.2       16 UNK         0.5000 
     93 O          -2.7427  -22.8644  -52.4088 O.2       16 UNK        -0.5000 
     94 N          -2.2495  -21.6119  -50.5819 N.am      17 UNK        -0.5000 
     95 CA         -2.3013  -20.2847  -51.2011 C.3       17 UNK         0.1400 
     96 CB         -1.9815  -19.2291  -50.1427 C.3       17 UNK        -0.1800 
     97 C          -3.6331  -19.9447  -51.8885 C.2       17 UNK         0.5000 
     98 O          -3.6353  -19.1332  -52.8107 O.2       17 UNK        -0.5000 
     99 N          -4.7232  -20.6096  -51.4777 N.am      18 UNK        -0.5000 
    100 CA        -6.0560  -20.5243  -52.0798 C.3       18 UNK         0.1400 
    101 CB        -7.0065  -21.4577  -51.3164 C.3       18 UNK        -0.1800 
    102 C         -6.0910  -20.8365  -53.5924 C.2       18 UNK         0.5000 
    103 O         -6.9696  -20.3353  -54.2953 O.2       18 UNK        -0.5000 
    104 N         -5.1216  -21.6300  -54.0718 N.am      19 UNK        -0.5000 
    105 CA        -4.9224  -21.9463  -55.4847 C.3       19 UNK         0.1400 
    106 CB        -3.9380  -23.1203  -55.5961 C.3       19 UNK        -0.1800 
    107 C         -4.4308  -20.7522  -56.3296 C.2       19 UNK         0.5000 
    108 O         -4.5925  -20.7842  -57.5502 O.2       19 UNK        -0.5000 
    109 N         -3.8605  -19.7136  -55.6986 N.am      20 UNK        -0.5000 
    110 CA        -3.3155  -18.5188  -56.3528 C.3       20 UNK         0.1400 
    111 CB        -2.2100  -17.9148  -55.4668 C.3       20 UNK        -0.1800 
    112 C         -4.4083  -17.4911  -56.7244 C.2       20 UNK         0.5000 
    113 O         -4.2570  -16.2995  -56.4495 O.2       20 UNK        -0.5000 
    114 N         -5.4853  -17.9773  -57.3578 N.am      21 UNK        -0.5000 
    115 CA        -6.6383  -17.2312  -57.8731 C.3       21 UNK         0.1400 
    116 CB        -6.2168  -16.3398  -59.0606 C.3       21 UNK        -0.1800 
    117 C         -7.4225  -16.4592  -56.7887 C.2       21 UNK         0.5000 
    118 O         -7.9309  -15.3683  -57.0562 O.2       21 UNK        -0.5000 
    119 N         -7.5245  -17.0431  -55.5871 N.am      22 UNK        -0.5000 
    120 CA        -8.2840  -16.4824  -54.4546 C.3       22 UNK         0.1400 
    121 C         -9.8325  -16.5840  -54.6023 C.2       22 UNK         0.5000 
    122 N        -10.3682  -17.3629  -55.5347 N.am      22 UNK        -0.7600 
    123 O        -10.5634  -15.9361  -53.8578 O.2       22 UNK        -0.5000 
    124 C124       -7.8325  -17.0868  -53.1026 C.3       23 UNK        -0.0398 
    125 S125       -6.0827  -16.7384  -52.7078 S.3       23 UNK        -0.2404 
    126 C126       -6.2385  -16.2736  -50.9539 C.3       23 UNK        -0.0205 
    127 H127        1.4832  -19.1345  -52.5931 H         1 UNK         0.0600 
    128 H128        1.0224  -20.3198  -51.3684 H         1 UNK         0.0600 
    129 H129        2.7178  -19.8632  -51.5603 H         1 UNK         0.0600 
    130 H130        0.9960  -17.0637  -51.9861 H         1 UNK         0.3000 
    131 H131       -0.0490  -16.3109  -49.5578 H         1 UNK         0.0600 
    132 H132        1.1804  -14.4761  -51.6755 H         1 UNK         0.0800 
    133 H133       -0.4102  -15.1743  -51.7689 H         1 UNK         0.0800 
    134 H134       -2.5509  -12.4806  -50.2790 H         1 UNK         0.0800 
    135 H135       -2.1590  -13.3810  -51.7224 H         1 UNK         0.0800 
    136 H136       -4.4104  -14.3705  -51.6270 H         1 UNK         0.1150 
    137 H137       -5.1177  -17.4982  -48.7892 H         1 UNK         0.1150 
    138 H138       -1.6776  -14.9911  -48.3766 H         1 UNK         0.1150 
    139 H139       -3.0857  -16.4498  -46.3434 H         1 UNK         0.0800 
    140 H140       -3.5811  -17.9675  -47.0643 H         1 UNK         0.0800 
    141 H141       -0.3880  -18.1760  -45.0759 H         1 UNK         0.0800 
    142 H142       -2.0755  -18.5625  -45.1678 H         1 UNK         0.0800 
    143 H143        0.0637  -20.1470  -46.6775 H         1 UNK         0.0600 
    144 H144       -0.2709  -20.1456  -43.8868 H         1 UNK         0.3000 
    145 H145        0.6333  -23.5205  -43.1962 H         1 UNK         0.0600 
    146 H146        2.2004  -22.2772  -41.7134 H         1 UNK         0.0600 
    147 H147        2.7519  -22.2423  -43.3800 H         1 UNK         0.0600 
    148 H148        1.9969  -20.8190  -42.6840 H         1 UNK         0.0600 
    149 H149       -0.2278  -21.3006  -41.5862 H         1 UNK         0.3000 
    150 H150       -3.7231  -22.0625  -41.6686 H         1 UNK         0.0600 
    151 H151       -2.7337  -23.6168  -39.9794 H         1 UNK         0.0600 
    152 H152       -3.3502  -22.1583  -39.2198 H         1 UNK         0.0600 
    153 H153       -1.6147  -22.3620  -39.4597 H         1 UNK         0.0600 
    154 H154       -2.1909  -20.0922  -40.2677 H         1 UNK         0.3000 
    155 H155       -2.1578  -17.5980  -42.7942 H         1 UNK         0.0600 
    156 H156       -3.3141  -16.2660  -41.0525 H         1 UNK         0.0600 
    157 H157       -3.8161  -17.7372  -40.2183 H         1 UNK         0.0600 
    158 H158       -4.4452  -17.3688  -41.8198 H         1 UNK         0.0600 
    159 H159       -1.3412  -17.5959  -40.0565 H         1 UNK         0.3000 
    160 H160        0.9075  -17.5294  -39.5923 H         1 UNK         0.0600 
    161 H161        1.2928  -20.5542  -40.0465 H         1 UNK         0.0600 
    162 H162        0.0139  -19.8633  -39.0546 H         1 UNK         0.0600 
    163 H163        1.6852  -19.6702  -38.5770 H         1 UNK         0.0600 
    164 H164        2.4307  -18.2668  -41.8720 H         1 UNK         0.3000 
    165 H165        5.6318  -17.5096  -40.3215 H         1 UNK         0.0600 
    166 H166        4.4656  -19.4334  -42.4044 H         1 UNK         0.0600 
    167 H167        6.1430  -18.9024  -42.3257 H         1 UNK         0.0600 
    168 H168        5.4565  -19.8557  -41.0199 H         1 UNK         0.0600 
    169 H169        4.1731  -16.9423  -42.8324 H         1 UNK         0.3000 
    170 H170        4.0022  -13.4809  -42.2371 H         1 UNK         0.0600 
    171 H171        6.3943  -13.5048  -42.9259 H         1 UNK         0.0600 
    172 H172        6.0662  -14.7698  -44.1037 H         1 UNK         0.0600 
    173 H173        5.3594  -13.1669  -44.3050 H         1 UNK         0.0600 
    174 H174        3.6760  -15.1235  -44.5876 H         1 UNK         0.3000 
    175 H175        0.5420  -16.4675  -43.8261 H         1 UNK         0.0600 
    176 H176       -0.2757  -14.1991  -44.4187 H         1 UNK         0.0600 
    177 H177        0.9603  -14.0494  -45.6614 H         1 UNK         0.0600 
    178 H178       -0.3230  -15.2439  -45.8278 H         1 UNK         0.0600 
    179 H179        1.9380  -16.2854  -46.3016 H         1 UNK         0.3000 
    180 H180        4.6146  -18.3922  -45.6841 H         1 UNK         0.0600 
    181 H181        2.1692  -19.6528  -46.9913 H         1 UNK         0.0600 
    182 H182        2.9702  -20.3013  -45.5653 H         1 UNK         0.0600 
    183 H183        3.8335  -20.2107  -47.0943 H         1 UNK         0.0600 
    184 H184        3.1750  -17.7970  -48.1233 H         1 UNK         0.3000 
    185 H185        4.3978  -14.5164  -48.5272 H         1 UNK         0.0600 
    186 H186        5.6666  -15.3094  -50.5039 H         1 UNK         0.0600 
    187 H187        6.5419  -15.7062  -49.0344 H         1 UNK         0.0600 
    188 H188        5.6519  -16.9624  -49.8866 H         1 UNK         0.0600 
    189 H189        3.3383  -16.2588  -50.4754 H         1 UNK         0.3000 
    190 H190       -2.9199  -20.8447  -44.7936 H         1 UNK         0.3000 
    191 H191       -4.5267  -21.4405  -47.0348 H         1 UNK         0.0600 
    192 H192       -6.1217  -22.3011  -45.3053 H         1 UNK         0.0600 
    193 H193       -5.4477  -20.7404  -44.8605 H         1 UNK         0.0600 
    194 H194       -4.8526  -22.2080  -44.0883 H         1 UNK         0.0600 
    195 H195       -2.8432  -23.7141  -44.7673 H         1 UNK         0.3000 
    196 H196       -3.9518  -26.0022  -46.2753 H         1 UNK         0.0600 
    197 H197       -3.2345  -27.3066  -44.3259 H         1 UNK         0.0600 
    198 H198       -4.1930  -25.9270  -43.8124 H         1 UNK         0.0600 
    199 H199       -2.4426  -25.9070  -43.6187 H         1 UNK         0.0600 
    200 H200       -0.6974  -25.0080  -45.0413 H         1 UNK         0.3000 
    201 H201        0.5517  -27.2779  -46.2777 H         1 UNK         0.0600 
    202 H202        1.3371  -26.3135  -44.1245 H         1 UNK         0.0600 
    203 H203        1.8508  -24.8440  -44.9515 H         1 UNK         0.0600 
    204 H204        2.6264  -26.3750  -45.3153 H         1 UNK         0.0600 
    205 H205        0.7521  -23.7514  -46.9543 H         1 UNK         0.3000 
    206 H206        2.3249  -24.1223  -49.3786 H         1 UNK         0.0600 
    207 H207        2.5248  -22.1216  -47.8838 H         1 UNK         0.0600 
    208 H208        2.1346  -21.6731  -49.5367 H         1 UNK         0.0600 
    209 H209        0.8803  -21.6450  -48.3056 H         1 UNK         0.0600 
    210 H210       -1.0524  -24.0071  -48.5907 H         1 UNK         0.3000 
    211 H211       -2.9781  -24.1268  -49.6843 H         1 UNK         0.0600 
    212 H212       -1.3701  -25.3213  -52.0009 H         1 UNK         0.0600 
    213 H213       -3.1023  -25.4781  -51.7433 H         1 UNK         0.0600 
    214 H214       -1.9816  -26.2176  -50.6105 H         1 UNK         0.0600 
    215 H215       -2.0077  -21.6292  -49.5930 H         1 UNK         0.3000 
    216 H216       -1.5222  -20.2524  -51.9651 H         1 UNK         0.0600 
    217 H217       -2.7511  -19.2012  -49.3711 H         1 UNK         0.0600 
    218 H218       -1.0310  -19.4380  -49.6537 H         1 UNK         0.0600 
    219 H219       -1.9160  -18.2318  -50.5804 H         1 UNK         0.0600 
    220 H220       -4.6109  -21.2677  -50.7212 H         1 UNK         0.3000 
    221 H221       -6.4054  -19.5022  -51.9433 H         1 UNK         0.0600 
    222 H222       -6.6862  -22.4984  -51.3825 H         1 UNK         0.0600 
    223 H223       -7.0620  -21.1887  -50.2613 H         1 UNK         0.0600 
    224 H224       -8.0187  -21.3988  -51.7189 H         1 UNK         0.0600 
    225 H225       -4.4242  -21.9904  -53.4294 H         1 UNK         0.3000 
    226 H226       -5.8813  -22.2657  -55.8978 H         1 UNK         0.0600 
    227 H227       -2.9547  -22.8574  -55.2039 H         1 UNK         0.0600 
    228 H228       -4.2959  -23.9904  -55.0454 H         1 UNK         0.0600 
    229 H229       -3.8066  -23.4245  -56.6353 H         1 UNK         0.0600 
    230 H230       -3.8220  -19.7114  -54.6832 H         1 UNK         0.3000 
    231 H231       -2.8433  -18.8253  -57.2884 H         1 UNK         0.0600 
    232 H232       -1.6813  -17.1190  -55.9927 H         1 UNK         0.0600 
    233 H233       -1.4708  -18.6650  -55.1856 H         1 UNK         0.0600 
    234 H234       -2.6171  -17.4837  -54.5517 H         1 UNK         0.0600 
    235 H235       -5.4874  -18.9753  -57.5415 H         1 UNK         0.3000 
    236 H236       -7.3300  -17.9804  -58.2605 H         1 UNK         0.0600 
    237 H237       -5.6892  -16.9176  -59.8196 H         1 UNK         0.0600 
    238 H238       -7.0861  -15.8921  -59.5436 H         1 UNK         0.0600 
    239 H239       -5.5635  -15.5262  -58.7439 H         1 UNK         0.0600 
    240 H240       -7.0754  -17.9347  -55.4301 H         1 UNK         0.3000 
    241 H241       -8.0654  -15.4133  -54.4155 H         1 UNK         0.0600 
    242 H242       -9.7834  -17.9076  -56.1477 H         1 UNK         0.3800 
    243 H243      -11.3712  -17.4151  -55.6219 H         1 UNK         0.3800 
    244 H244       -8.4526  -16.6962  -52.2937 H         1 UNK         0.0800 
    245 H245       -7.9893  -18.1654  -53.1009 H         1 UNK         0.0800 
    246 H246       -6.7537  -17.0768  -50.4247 H         1 UNK         0.0800 
    247 H247       -6.8749  -15.3911  -50.8729 H         1 UNK         0.0800 
@<TRIPOS>BOND
     1    1    2 1    
     2    1  127 1    
     3    1  128 1    
     4    1  129 1    
     5    2    3 2    
     6    2    4 am   BACKBONE|DICT|INTERRES
     7    4    5 1    
     8    4  130 1    
     9    5    6 1    
    10    5   65 1    
    11    5  131 1    
    12    6    7 1    
    13    6  132 1    
    14    6  133 1    
    15    7    8 1    
    16    8    9 1    
    17    8  134 1    
    18    8  135 1    
    19    9   10 ar   
    20    9   14 ar   
    21   10   11 ar   
    22   10  136 1    
    23   11   12 ar   
    24   11  126 1    
    25   12   13 ar   
    26   12  137 1    
    27   13   14 ar   
    28   13   15 1    
    29   14  138 1    
    30   15   16 1    
    31   15  139 1    
    32   15  140 1    
    33   16   17 1    
    34   17   18 1    
    35   17  141 1    
    36   17  142 1    
    37   18   19 1    
    38   18   67 1    
    39   18  143 1    
    40   19   20 am   BACKBONE|DICT|INTERRES
    41   19  144 1    
    42   20   21 2    
    43   20   22 1    
    44   22   23 1    
    45   22   24 1    
    46   22  145 1    
    47   23  146 1    
    48   23  147 1    
    49   23  148 1    
    50   24   25 am   BACKBONE|DICT|INTERRES
    51   24  149 1    
    52   25   26 2    
    53   25   27 1    
    54   27   28 1    
    55   27   29 1    
    56   27  150 1    
    57   28  151 1    
    58   28  152 1    
    59   28  153 1    
    60   29   30 am   BACKBONE|DICT|INTERRES
    61   29  154 1    
    62   30   31 2    
    63   30   32 1    
    64   32   33 1    
    65   32   34 1    
    66   32  155 1    
    67   33  156 1    
    68   33  157 1    
    69   33  158 1    
    70   34   35 am   BACKBONE|DICT|INTERRES
    71   34  159 1    
    72   35   36 2    
    73   35   37 1    
    74   37   38 1    
    75   37   39 1    
    76   37  160 1    
    77   38  161 1    
    78   38  162 1    
    79   38  163 1    
    80   39   40 am   BACKBONE|DICT|INTERRES
    81   39  164 1    
    82   40   41 2    
    83   40   42 1    
    84   42   43 1    
    85   42   44 1    
    86   42  165 1    
    87   43  166 1    
    88   43  167 1    
    89   43  168 1    
    90   44   45 am   BACKBONE|DICT|INTERRES
    91   44  169 1    
    92   45   46 2    
    93   45   47 1    
    94   47   48 1    
    95   47   49 1    
    96   47  170 1    
    97   48  171 1    
    98   48  172 1    
    99   48  173 1    
   100   49   50 am   BACKBONE|DICT|INTERRES
   101   49  174 1    
   102   50   51 2    
   103   50   52 1    
   104   52   53 1    
   105   52   54 1    
   106   52  175 1    
   107   53  176 1    
   108   53  177 1    
   109   53  178 1    
   110   54   55 am   BACKBONE|DICT|INTERRES
   111   54  179 1    
   112   55   56 2    
   113   55   57 1    
   114   57   58 1    
   115   57   59 1    
   116   57  180 1    
   117   58  181 1    
   118   58  182 1    
   119   58  183 1    
   120   59   60 am   BACKBONE|DICT|INTERRES
   121   59  184 1    
   122   60   61 2    
   123   60   62 1    
   124   62   63 1    
   125   62   64 1    
   126   62  185 1    
   127   63  186 1    
   128   63  187 1    
   129   63  188 1    
   130   64   65 am   BACKBONE|DICT|INTERRES
   131   64  189 1    
   132   65   66 2    
   133   67   68 2    
   134   67   69 am   BACKBONE|DICT|INTERRES
   135   69   70 1    
   136   69  190 1    
   137   70   71 1    
   138   70   72 1    
   139   70  191 1    
   140   71  192 1    
   141   71  193 1    
   142   71  194 1    
   143   72   73 2    
   144   72   74 am   BACKBONE|DICT|INTERRES
   145   74   75 1    
   146   74  195 1    
   147   75   76 1    
   148   75   77 1    
   149   75  196 1    
   150   76  197 1    
   151   76  198 1    
   152   76  199 1    
   153   77   78 2    
   154   77   79 am   BACKBONE|DICT|INTERRES
   155   79   80 1    
   156   79  200 1    
   157   80   81 1    
   158   80   82 1    
   159   80  201 1    
   160   81  202 1    
   161   81  203 1    
   162   81  204 1    
   163   82   83 2    
   164   82   84 am   BACKBONE|DICT|INTERRES
   165   84   85 1    
   166   84  205 1    
   167   85   86 1    
   168   85   87 1    
   169   85  206 1    
   170   86  207 1    
   171   86  208 1    
   172   86  209 1    
   173   87   88 2    
   174   87   89 am   BACKBONE|DICT|INTERRES
   175   89   90 1    
   176   89  210 1    
   177   90   91 1    
   178   90   92 1    
   179   90  211 1    
   180   91  212 1    
   181   91  213 1    
   182   91  214 1    
   183   92   93 2    
   184   92   94 am   BACKBONE|DICT|INTERRES
   185   94   95 1    
   186   94  215 1    
   187   95   96 1    
   188   95   97 1    
   189   95  216 1    
   190   96  217 1    
   191   96  218 1    
   192   96  219 1    
   193   97   98 2    
   194   97   99 am   BACKBONE|DICT|INTERRES
   195   99  100 1    
   196   99  220 1    
   197  100  101 1    
   198  100  102 1    
   199  100  221 1    
   200  101  222 1    
   201  101  223 1    
   202  101  224 1    
   203  102  103 2    
   204  102  104 am   BACKBONE|DICT|INTERRES
   205  104  105 1    
   206  104  225 1    
   207  105  106 1    
   208  105  107 1    
   209  105  226 1    
   210  106  227 1    
   211  106  228 1    
   212  106  229 1    
   213  107  108 2    
   214  107  109 am   BACKBONE|DICT|INTERRES
   215  109  110 1    
   216  109  230 1    
   217  110  111 1    
   218  110  112 1    
   219  110  231 1    
   220  111  232 1    
   221  111  233 1    
   222  111  234 1    
   223  112  113 2    
   224  112  114 am   BACKBONE|DICT|INTERRES
   225  114  115 1    
   226  114  235 1    
   227  115  116 1    
   228  115  117 1    
   229  115  236 1    
   230  116  237 1    
   231  116  238 1    
   232  116  239 1    
   233  117  118 2    
   234  117  119 am   BACKBONE|DICT|INTERRES
   235  119  120 1    
   236  119  240 1    
   237  120  121 1    
   238  120  124 1    
   239  120  241 1    
   240  121  122 am   BACKBONE|DICT|INTERRES
   241  121  123 2    
   242  122  242 1    
   243  122  243 1    
   244  124  125 1    
   245  124  244 1    
   246  124  245 1    
   247  125  126 1    
   248  126  246 1    
   249  126  247 1    
@<TRIPOS>SUBSTRUCTURE
     1 UNK         1 GROUP             0       ****    0 ROOT    
