@<TRIPOS>MOLECULE
3R540
247   249    1
SMALL
USER_CHARGES


@<TRIPOS>ATOM
      1 CA         -5.9291  -18.7880  -46.1486 C.3       0 UNK        -0.1800 
      2 C          -5.6958  -17.3268  -45.7927 C.2       0 UNK         0.5000 
      3 O          -6.2444  -16.8354  -44.8061 O.2       0 UNK        -0.5000 
      4 N          -4.8568  -16.6362  -46.5746 N.am      1 UNK        -0.5000 
      5 CA         -4.4159  -15.2494  -46.3813 C.3       1 UNK         0.1400 
      6 C6         -3.9543  -14.6277  -47.7318 C.3       23 UNK        -0.0398 
      7 S7         -2.4124  -15.3247  -48.4351 S.3       23 UNK        -0.2404 
      8 C8         -2.9963  -16.4549  -49.7352 C.3       23 UNK        -0.0205 
      9 C9         -1.8941  -17.4117  -50.1794 C.ar      23 UNK        -0.0193 
     10 C10        -0.6509  -16.9211  -50.5952 C.ar      23 UNK        -0.1150 
     11 C11         0.3586  -17.7861  -51.0293 C.ar      23 UNK        -0.0193 
     12 C12         0.1086  -19.1637  -51.0358 C.ar      23 UNK        -0.1150 
     13 C13        -1.1352  -19.6692  -50.6535 C.ar      23 UNK        -0.0193 
     14 C14        -2.1282  -18.7898  -50.2120 C.ar      23 UNK        -0.1150 
     15 C15        -1.4084  -21.1606  -50.7829 C.3       23 UNK        -0.0205 
     16 S16        -0.6822  -22.1167  -49.4187 S.3       23 UNK        -0.2404 
     17 C17        -1.8643  -21.7506  -48.0843 C.3       23 UNK        -0.0398 
     18 CA         -1.6765  -22.6728  -46.8570 C.3       11 UNK         0.1400 
     19 N          -0.3201  -22.5811  -46.3021 N.am      11 UNK        -0.5000 
     20 C           0.1888  -23.3144  -45.3035 C.2       10 UNK         0.5000 
     21 O          -0.4592  -24.1713  -44.7020 O.2       10 UNK        -0.5000 
     22 CA          1.6228  -22.9971  -44.8381 C.3       10 UNK         0.1400 
     23 CB          2.5008  -24.2620  -44.7648 C.3       10 UNK        -0.1800 
     24 N           2.2751  -21.9121  -45.5822 N.am      10 UNK        -0.5000 
     25 C           2.7828  -21.9175  -46.8239 C.2       9 UNK         0.5000 
     26 O           2.7863  -22.9009  -47.5631 O.2       9 UNK        -0.5000 
     27 CA          3.3710  -20.5851  -47.3375 C.3       9 UNK         0.1400 
     28 CB          2.4625  -19.9731  -48.4162 C.3       9 UNK        -0.1800 
     29 N           3.5816  -19.5943  -46.2766 N.am      9 UNK        -0.5000 
     30 C           4.5624  -19.6478  -45.3632 C.2       8 UNK         0.5000 
     31 O           5.4273  -20.5237  -45.3377 O.2       8 UNK        -0.5000 
     32 CA          4.5517  -18.5597  -44.2770 C.3       8 UNK         0.1400 
     33 CB          5.1884  -17.2614  -44.7977 C.3       8 UNK        -0.1800 
     34 N           3.1909  -18.2845  -43.8143 N.am      8 UNK        -0.5000 
     35 C           2.5613  -18.9666  -42.8462 C.2       7 UNK         0.5000 
     36 O           3.0774  -19.8889  -42.2155 O.2       7 UNK        -0.5000 
     37 CA          1.1036  -18.5661  -42.5399 C.3       7 UNK         0.1400 
     38 CB          1.0510  -17.5103  -41.4269 C.3       7 UNK        -0.1800 
     39 N           0.4065  -18.0572  -43.7211 N.am      7 UNK        -0.5000 
     40 C          -0.0148  -18.8356  -44.7252 C.2       6 UNK         0.5000 
     41 O           0.0235  -20.0640  -44.6906 O.2       6 UNK        -0.5000 
     42 CA         -0.5515  -18.1446  -45.9907 C.3       6 UNK         0.1400 
     43 CB         -2.0714  -18.3008  -46.0797 C.3       6 UNK        -0.1800 
     44 N          -0.1608  -16.7336  -46.1320 N.am      6 UNK        -0.5000 
     45 C           1.1067  -16.3574  -46.3631 C.2       5 UNK         0.5000 
     46 O           2.0480  -17.1517  -46.3329 O.2       5 UNK        -0.5000 
     47 CA          1.4115  -14.8855  -46.6753 C.3       5 UNK         0.1400 
     48 CB          1.5779  -14.6966  -48.1950 C.3       5 UNK        -0.1800 
     49 N           0.4312  -13.9282  -46.1529 N.am      5 UNK        -0.5000 
     50 C           0.7191  -12.6350  -45.9416 C.2       4 UNK         0.5000 
     51 O           1.8536  -12.1634  -46.0357 O.2       4 UNK        -0.5000 
     52 CA         -0.4443  -11.6961  -45.5923 C.3       4 UNK         0.1400 
     53 CB         -1.3865  -11.5302  -46.7954 C.3       4 UNK        -0.1800 
     54 N          -1.2049  -12.1772  -44.4421 N.am      4 UNK        -0.5000 
     55 C          -1.1410  -11.6495  -43.2115 C.2       3 UNK         0.5000 
     56 O          -0.3755  -10.7354  -42.9012 O.2       3 UNK        -0.5000 
     57 CA         -2.1105  -12.1987  -42.1440 C.3       3 UNK         0.1400 
     58 CB         -3.2488  -11.1974  -41.8907 C.3       3 UNK        -0.1800 
     59 N          -2.6983  -13.4903  -42.4980 N.am      3 UNK        -0.5000 
     60 C          -2.0599  -14.6622  -42.4034 C.2       2 UNK         0.5000 
     61 O          -0.9157  -14.7862  -41.9683 O.2       2 UNK        -0.5000 
     62 CA         -2.8134  -15.9014  -42.9194 C.3       2 UNK         0.1400 
     63 CB         -3.5926  -16.5790  -41.7835 C.3       2 UNK        -0.1800 
     64 N          -3.7229  -15.6489  -44.0447 N.am      2 UNK        -0.5000 
     65 C          -3.3726  -15.1428  -45.2352 C.2       1 UNK         0.5000 
     66 O          -2.2494  -14.6815  -45.4481 O.2       1 UNK        -0.5000 
     67 C          -2.7843  -22.4008  -45.8155 C.2       11 UNK         0.5000 
     68 O          -3.9072  -22.8694  -45.9932 O.2       11 UNK        -0.5000 
     69 N          -2.4540  -21.6871  -44.7290 N.am      12 UNK        -0.5000 
     70 CA         -3.3367  -21.4668  -43.5821 C.3       12 UNK         0.1400 
     71 CB         -2.7043  -20.4154  -42.6567 C.3       12 UNK        -0.1800 
     72 C          -3.6637  -22.7591  -42.8019 C.2       12 UNK         0.5000 
     73 O          -4.7036  -22.8116  -42.1444 O.2       12 UNK        -0.5000 
     74 N          -2.7881  -23.7705  -42.8939 N.am      13 UNK        -0.5000 
     75 CA         -2.9614  -25.0901  -42.2869 C.3       13 UNK         0.1400 
     76 CB         -1.7111  -25.4267  -41.4585 C.3       13 UNK        -0.1800 
     77 C          -3.2026  -26.1708  -43.3551 C.2       13 UNK         0.5000 
     78 O          -4.0533  -27.0389  -43.1585 O.2       13 UNK        -0.5000 
     79 N          -2.4517  -26.1059  -44.4629 N.am      14 UNK        -0.5000 
     80 CA         -2.4599  -27.0916  -45.5464 C.3       14 UNK         0.1400 
     81 CB         -1.1285  -26.9867  -46.3089 C.3       14 UNK        -0.1800 
     82 C          -3.6464  -26.9548  -46.5213 C.2       14 UNK         0.5000 
     83 O          -3.8498  -27.8569  -47.3354 O.2       14 UNK        -0.5000 
     84 N          -4.3889  -25.8414  -46.4377 N.am      15 UNK        -0.5000 
     85 CA         -5.4501  -25.4123  -47.3534 C.3       15 UNK         0.1400 
     86 CB         -6.6192  -26.4234  -47.3861 C.3       15 UNK        -0.1800 
     87 C          -4.8877  -25.0454  -48.7450 C.2       15 UNK         0.5000 
     88 O          -3.7266  -24.6431  -48.8429 O.2       15 UNK        -0.5000 
     89 N          -5.7289  -25.1434  -49.7868 N.am      16 UNK        -0.5000 
     90 CA         -5.4516  -24.7606  -51.1797 C.3       16 UNK         0.1400 
     91 CB         -4.3675  -25.6662  -51.8013 C.3       16 UNK        -0.1800 
     92 C          -5.1378  -23.2559  -51.3314 C.2       16 UNK         0.5000 
     93 O          -4.2882  -22.8714  -52.1360 O.2       16 UNK        -0.5000 
     94 N          -5.8507  -22.4259  -50.5543 N.am      17 UNK        -0.5000 
     95 CA         -5.6566  -20.9776  -50.4231 C.3       17 UNK         0.1400 
     96 CB         -6.6134  -20.4457  -49.3462 C.3       17 UNK        -0.1800 
     97 C          -5.8061  -20.1682  -51.7279 C.2       17 UNK         0.5000 
     98 O          -5.3093  -19.0447  -51.7990 O.2       17 UNK        -0.5000 
     99 N          -6.4703  -20.7521  -52.7345 N.am      18 UNK        -0.5000 
    100 CA        -6.6159  -20.2016  -54.0815 C.3       18 UNK         0.1400 
    101 CB        -7.6649  -21.0255  -54.8435 C.3       18 UNK        -0.1800 
    102 C         -5.2943  -20.1481  -54.8756 C.2       18 UNK         0.5000 
    103 O         -5.1783  -19.3274  -55.7867 O.2       18 UNK        -0.5000 
    104 N         -4.3101  -20.9883  -54.5196 N.am      19 UNK        -0.5000 
    105 CA        -2.9811  -21.0505  -55.1378 C.3       19 UNK         0.1400 
    106 CB        -2.4010  -22.4604  -54.9246 C.3       19 UNK        -0.1800 
    107 C         -2.0433  -19.9380  -54.6161 C.2       19 UNK         0.5000 
    108 O         -0.9092  -20.2128  -54.2248 O.2       19 UNK        -0.5000 
    109 N         -2.5430  -18.6967  -54.6093 N.am      20 UNK        -0.5000 
    110 CA        -1.9100  -17.5266  -54.0007 C.3       20 UNK         0.1400 
    111 CB        -3.0061  -16.5065  -53.6548 C.3       20 UNK        -0.1800 
    112 C         -0.8012  -16.8768  -54.8515 C.2       20 UNK         0.5000 
    113 O         -0.1629  -15.9294  -54.3888 O.2       20 UNK        -0.5000 
    114 N         -0.5945  -17.3659  -56.0810 N.am      21 UNK        -0.5000 
    115 CA         0.3748  -16.8663  -57.0587 C.3       21 UNK         0.1400 
    116 CB        -0.0562  -17.3440  -58.4575 C.3       21 UNK        -0.1800 
    117 C          1.8318  -17.2561  -56.7180 C.2       21 UNK         0.5000 
    118 O          2.4955  -17.9291  -57.5092 O.2       21 UNK        -0.5000 
    119 N          2.3024  -16.8300  -55.5410 N.am      22 UNK        -0.5000 
    120 CA         3.6639  -17.0718  -55.0302 C.3       22 UNK         0.1400 
    121 C          4.7596  -16.1551  -55.6510 C.2       22 UNK         0.5000 
    122 N          4.4178  -15.1284  -56.4203 N.am      22 UNK        -0.7600 
    123 O          5.9469  -16.3854  -55.4373 O.2       22 UNK        -0.5000 
    124 C124        3.7221  -17.0255  -53.4806 C.3       23 UNK        -0.0398 
    125 S125        2.5887  -18.2307  -52.7104 S.3       23 UNK        -0.2404 
    126 C126        1.6834  -17.1925  -51.5089 C.3       23 UNK        -0.0205 
    127 H127       -5.2296  -19.1345  -46.9097 H         1 UNK         0.0600 
    128 H128       -6.9435  -18.9265  -46.5223 H         1 UNK         0.0600 
    129 H129       -5.8008  -19.4145  -45.2660 H         1 UNK         0.0600 
    130 H130       -4.4268  -17.1062  -47.3560 H         1 UNK         0.3000 
    131 H131       -5.2820  -14.6717  -46.0520 H         1 UNK         0.0600 
    132 H132       -3.8068  -13.5552  -47.6042 H         1 UNK         0.0800 
    133 H133       -4.7519  -14.7163  -48.4706 H         1 UNK         0.0800 
    134 H134       -3.3339  -15.8723  -50.5929 H         1 UNK         0.0800 
    135 H135       -3.8625  -17.0110  -49.3755 H         1 UNK         0.0800 
    136 H136       -0.4760  -15.8547  -50.5958 H         1 UNK         0.1150 
    137 H137        0.8662  -19.8562  -51.3717 H         1 UNK         0.1150 
    138 H138       -3.0931  -19.1733  -49.9188 H         1 UNK         0.1150 
    139 H139       -2.4778  -21.3567  -50.8488 H         1 UNK         0.0800 
    140 H140       -0.9846  -21.5199  -51.7218 H         1 UNK         0.0800 
    141 H141       -2.8733  -21.8623  -48.4863 H         1 UNK         0.0800 
    142 H142       -1.7485  -20.7025  -47.8099 H         1 UNK         0.0800 
    143 H143       -1.8106  -23.7044  -47.1870 H         1 UNK         0.0600 
    144 H144        0.2821  -21.8888  -46.7204 H         1 UNK         0.3000 
    145 H145        1.5186  -22.6189  -43.8201 H         1 UNK         0.0600 
    146 H146        3.5092  -24.0241  -44.4263 H         1 UNK         0.0600 
    147 H147        2.0840  -24.9833  -44.0609 H         1 UNK         0.0600 
    148 H148        2.5770  -24.7629  -45.7300 H         1 UNK         0.0600 
    149 H149        2.2846  -21.0252  -45.0980 H         1 UNK         0.3000 
    150 H150        4.3369  -20.8087  -47.7948 H         1 UNK         0.0600 
    151 H151        2.3581  -20.6472  -49.2674 H         1 UNK         0.0600 
    152 H152        2.8686  -19.0348  -48.7950 H         1 UNK         0.0600 
    153 H153        1.4610  -19.7750  -48.0376 H         1 UNK         0.0600 
    154 H154        2.9509  -18.7965  -46.2648 H         1 UNK         0.3000 
    155 H155        5.1540  -18.9142  -43.4376 H         1 UNK         0.0600 
    156 H156        4.6438  -16.8523  -45.6492 H         1 UNK         0.0600 
    157 H157        6.2160  -17.4346  -45.1197 H         1 UNK         0.0600 
    158 H158        5.2161  -16.4978  -44.0203 H         1 UNK         0.0600 
    159 H159        2.6762  -17.5885  -44.3376 H         1 UNK         0.3000 
    160 H160        0.5835  -19.4578  -42.1829 H         1 UNK         0.0600 
    161 H161        1.5169  -16.5736  -41.7356 H         1 UNK         0.0600 
    162 H162        1.5696  -17.8576  -40.5324 H         1 UNK         0.0600 
    163 H163        0.0215  -17.2944  -41.1405 H         1 UNK         0.0600 
    164 H164        0.3346  -17.0551  -43.8179 H         1 UNK         0.3000 
    165 H165       -0.1313  -18.6811  -46.8422 H         1 UNK         0.0600 
    166 H166       -2.4514  -17.8796  -47.0076 H         1 UNK         0.0600 
    167 H167       -2.3633  -19.3481  -46.0678 H         1 UNK         0.0600 
    168 H168       -2.5755  -17.8317  -45.2398 H         1 UNK         0.0600 
    169 H169       -0.9070  -16.0496  -46.1610 H         1 UNK         0.3000 
    170 H170        2.3749  -14.6843  -46.2016 H         1 UNK         0.0600 
    171 H171        2.2700  -15.4298  -48.6113 H         1 UNK         0.0600 
    172 H172        0.6270  -14.8091  -48.7153 H         1 UNK         0.0600 
    173 H173        1.9744  -13.7101  -48.4343 H         1 UNK         0.0600 
    174 H174       -0.5245  -14.2472  -46.0226 H         1 UNK         0.3000 
    175 H175       -0.0206  -10.7124  -45.3787 H         1 UNK         0.0600 
    176 H176       -2.2026  -10.8449  -46.5665 H         1 UNK         0.0600 
    177 H177       -0.8515  -11.1250  -47.6552 H         1 UNK         0.0600 
    178 H178       -1.8215  -12.4800  -47.1023 H         1 UNK         0.0600 
    179 H179       -1.7992  -12.9824  -44.6044 H         1 UNK         0.3000 
    180 H180       -1.5458  -12.3123  -41.2161 H         1 UNK         0.0600 
    181 H181       -3.9080  -11.5423  -41.0938 H         1 UNK         0.0600 
    182 H182       -3.8539  -11.0414  -42.7847 H         1 UNK         0.0600 
    183 H183       -2.8560  -10.2261  -41.5869 H         1 UNK         0.0600 
    184 H184       -3.6348  -13.4809  -42.8748 H         1 UNK         0.3000 
    185 H185       -2.0563  -16.6052  -43.2676 H         1 UNK         0.0600 
    186 H186       -4.0460  -17.5123  -42.1181 H         1 UNK         0.0600 
    187 H187       -2.9353  -16.8198  -40.9469 H         1 UNK         0.0600 
    188 H188       -4.3883  -15.9367  -41.4044 H         1 UNK         0.0600 
    189 H189       -4.6613  -16.0301  -43.9664 H         1 UNK         0.3000 
    190 H190       -1.5126  -21.3112  -44.6611 H         1 UNK         0.3000 
    191 H191       -4.2808  -21.0658  -43.9563 H         1 UNK         0.0600 
    192 H192       -3.3318  -20.2320  -41.7837 H         1 UNK         0.0600 
    193 H193       -2.5809  -19.4620  -43.1696 H         1 UNK         0.0600 
    194 H194       -1.7248  -20.7337  -42.2978 H         1 UNK         0.0600 
    195 H195       -1.9667  -23.6510  -43.4761 H         1 UNK         0.3000 
    196 H196       -3.8211  -25.0951  -41.6137 H         1 UNK         0.0600 
    197 H197       -0.8087  -25.4333  -42.0715 H         1 UNK         0.0600 
    198 H198       -1.5649  -24.7017  -40.6577 H         1 UNK         0.0600 
    199 H199       -1.8019  -26.4098  -40.9948 H         1 UNK         0.0600 
    200 H200       -1.7437  -25.3775  -44.5359 H         1 UNK         0.3000 
    201 H201       -2.5174  -28.0885  -45.1044 H         1 UNK         0.0600 
    202 H202       -1.0238  -26.0202  -46.8029 H         1 UNK         0.0600 
    203 H203       -1.0550  -27.7565  -47.0781 H         1 UNK         0.0600 
    204 H204       -0.2775  -27.1143  -45.6396 H         1 UNK         0.0600 
    205 H205       -4.0963  -25.1346  -45.7762 H         1 UNK         0.3000 
    206 H206       -5.8408  -24.4837  -46.9360 H         1 UNK         0.0600 
    207 H207       -6.9107  -26.7168  -46.3774 H         1 UNK         0.0600 
    208 H208       -7.5027  -25.9919  -47.8571 H         1 UNK         0.0600 
    209 H209       -6.3629  -27.3302  -47.9347 H         1 UNK         0.0600 
    210 H210       -6.6611  -25.4901  -49.6085 H         1 UNK         0.3000 
    211 H211       -6.3754  -24.9321  -51.7339 H         1 UNK         0.0600 
    212 H212       -4.2672  -25.4770  -52.8707 H         1 UNK         0.0600 
    213 H213       -4.6168  -26.7203  -51.6805 H         1 UNK         0.0600 
    214 H214       -3.3893  -25.4987  -51.3495 H         1 UNK         0.0600 
    215 H215       -6.5384  -22.8363  -49.9400 H         1 UNK         0.3000 
    216 H216       -4.6378  -20.8267  -50.0682 H         1 UNK         0.0600 
    217 H217       -7.6564  -20.6077  -49.6210 H         1 UNK         0.0600 
    218 H218       -6.4773  -19.3739  -49.1956 H         1 UNK         0.0600 
    219 H219       -6.4383  -20.9333  -48.3869 H         1 UNK         0.0600 
    220 H220       -6.8464  -21.6754  -52.5797 H         1 UNK         0.3000 
    221 H221       -6.9842  -19.1777  -53.9901 H         1 UNK         0.0600 
    222 H222       -8.6280  -21.0083  -54.3329 H         1 UNK         0.0600 
    223 H223       -7.3585  -22.0669  -54.9502 H         1 UNK         0.0600 
    224 H224       -7.8233  -20.6256  -55.8460 H         1 UNK         0.0600 
    225 H225       -4.4532  -21.6000  -53.7220 H         1 UNK         0.3000 
    226 H226       -3.0878  -20.8997  -56.2140 H         1 UNK         0.0600 
    227 H227       -2.2192  -22.6648  -53.8688 H         1 UNK         0.0600 
    228 H228       -3.0769  -23.2278  -55.3021 H         1 UNK         0.0600 
    229 H229       -1.4521  -22.5773  -55.4494 H         1 UNK         0.0600 
    230 H230       -3.4788  -18.5687  -54.9787 H         1 UNK         0.3000 
    231 H231       -1.4451  -17.8497  -53.0723 H         1 UNK         0.0600 
    232 H232       -3.5183  -16.1480  -54.5484 H         1 UNK         0.0600 
    233 H233       -2.5878  -15.6392  -53.1422 H         1 UNK         0.0600 
    234 H234       -3.7523  -16.9434  -52.9906 H         1 UNK         0.0600 
    235 H235       -1.1451  -18.1632  -56.3622 H         1 UNK         0.3000 
    236 H236        0.3306  -15.7752  -57.0578 H         1 UNK         0.0600 
    237 H237       -1.0603  -16.9960  -58.7012 H         1 UNK         0.0600 
    238 H238        0.6135  -16.9583  -59.2274 H         1 UNK         0.0600 
    239 H239       -0.0512  -18.4322  -58.5310 H         1 UNK         0.0600 
    240 H240        1.6660  -16.3250  -54.9317 H         1 UNK         0.3000 
    241 H241        3.9413  -18.0860  -55.3243 H         1 UNK         0.0600 
    242 H242        5.1369  -14.5458  -56.8203 H         1 UNK         0.3800 
    243 H243        3.4484  -14.9254  -56.6033 H         1 UNK         0.3800 
    244 H244        3.4990  -16.0186  -53.1249 H         1 UNK         0.0800 
    245 H245        4.7289  -17.2555  -53.1275 H         1 UNK         0.0800 
    246 H246        2.3227  -17.0077  -50.6451 H         1 UNK         0.0800 
    247 H247        1.4846  -16.2235  -51.9695 H         1 UNK         0.0800 
@<TRIPOS>BOND
     1    1    2 1    
     2    1  127 1    
     3    1  128 1    
     4    1  129 1    
     5    2    3 2    
     6    2    4 am   BACKBONE|DICT|INTERRES
     7    4    5 1    
     8    4  130 1    
     9    5    6 1    
    10    5   65 1    
    11    5  131 1    
    12    6    7 1    
    13    6  132 1    
    14    6  133 1    
    15    7    8 1    
    16    8    9 1    
    17    8  134 1    
    18    8  135 1    
    19    9   10 ar   
    20    9   14 ar   
    21   10   11 ar   
    22   10  136 1    
    23   11   12 ar   
    24   11  126 1    
    25   12   13 ar   
    26   12  137 1    
    27   13   14 ar   
    28   13   15 1    
    29   14  138 1    
    30   15   16 1    
    31   15  139 1    
    32   15  140 1    
    33   16   17 1    
    34   17   18 1    
    35   17  141 1    
    36   17  142 1    
    37   18   19 1    
    38   18   67 1    
    39   18  143 1    
    40   19   20 am   BACKBONE|DICT|INTERRES
    41   19  144 1    
    42   20   21 2    
    43   20   22 1    
    44   22   23 1    
    45   22   24 1    
    46   22  145 1    
    47   23  146 1    
    48   23  147 1    
    49   23  148 1    
    50   24   25 am   BACKBONE|DICT|INTERRES
    51   24  149 1    
    52   25   26 2    
    53   25   27 1    
    54   27   28 1    
    55   27   29 1    
    56   27  150 1    
    57   28  151 1    
    58   28  152 1    
    59   28  153 1    
    60   29   30 am   BACKBONE|DICT|INTERRES
    61   29  154 1    
    62   30   31 2    
    63   30   32 1    
    64   32   33 1    
    65   32   34 1    
    66   32  155 1    
    67   33  156 1    
    68   33  157 1    
    69   33  158 1    
    70   34   35 am   BACKBONE|DICT|INTERRES
    71   34  159 1    
    72   35   36 2    
    73   35   37 1    
    74   37   38 1    
    75   37   39 1    
    76   37  160 1    
    77   38  161 1    
    78   38  162 1    
    79   38  163 1    
    80   39   40 am   BACKBONE|DICT|INTERRES
    81   39  164 1    
    82   40   41 2    
    83   40   42 1    
    84   42   43 1    
    85   42   44 1    
    86   42  165 1    
    87   43  166 1    
    88   43  167 1    
    89   43  168 1    
    90   44   45 am   BACKBONE|DICT|INTERRES
    91   44  169 1    
    92   45   46 2    
    93   45   47 1    
    94   47   48 1    
    95   47   49 1    
    96   47  170 1    
    97   48  171 1    
    98   48  172 1    
    99   48  173 1    
   100   49   50 am   BACKBONE|DICT|INTERRES
   101   49  174 1    
   102   50   51 2    
   103   50   52 1    
   104   52   53 1    
   105   52   54 1    
   106   52  175 1    
   107   53  176 1    
   108   53  177 1    
   109   53  178 1    
   110   54   55 am   BACKBONE|DICT|INTERRES
   111   54  179 1    
   112   55   56 2    
   113   55   57 1    
   114   57   58 1    
   115   57   59 1    
   116   57  180 1    
   117   58  181 1    
   118   58  182 1    
   119   58  183 1    
   120   59   60 am   BACKBONE|DICT|INTERRES
   121   59  184 1    
   122   60   61 2    
   123   60   62 1    
   124   62   63 1    
   125   62   64 1    
   126   62  185 1    
   127   63  186 1    
   128   63  187 1    
   129   63  188 1    
   130   64   65 am   BACKBONE|DICT|INTERRES
   131   64  189 1    
   132   65   66 2    
   133   67   68 2    
   134   67   69 am   BACKBONE|DICT|INTERRES
   135   69   70 1    
   136   69  190 1    
   137   70   71 1    
   138   70   72 1    
   139   70  191 1    
   140   71  192 1    
   141   71  193 1    
   142   71  194 1    
   143   72   73 2    
   144   72   74 am   BACKBONE|DICT|INTERRES
   145   74   75 1    
   146   74  195 1    
   147   75   76 1    
   148   75   77 1    
   149   75  196 1    
   150   76  197 1    
   151   76  198 1    
   152   76  199 1    
   153   77   78 2    
   154   77   79 am   BACKBONE|DICT|INTERRES
   155   79   80 1    
   156   79  200 1    
   157   80   81 1    
   158   80   82 1    
   159   80  201 1    
   160   81  202 1    
   161   81  203 1    
   162   81  204 1    
   163   82   83 2    
   164   82   84 am   BACKBONE|DICT|INTERRES
   165   84   85 1    
   166   84  205 1    
   167   85   86 1    
   168   85   87 1    
   169   85  206 1    
   170   86  207 1    
   171   86  208 1    
   172   86  209 1    
   173   87   88 2    
   174   87   89 am   BACKBONE|DICT|INTERRES
   175   89   90 1    
   176   89  210 1    
   177   90   91 1    
   178   90   92 1    
   179   90  211 1    
   180   91  212 1    
   181   91  213 1    
   182   91  214 1    
   183   92   93 2    
   184   92   94 am   BACKBONE|DICT|INTERRES
   185   94   95 1    
   186   94  215 1    
   187   95   96 1    
   188   95   97 1    
   189   95  216 1    
   190   96  217 1    
   191   96  218 1    
   192   96  219 1    
   193   97   98 2    
   194   97   99 am   BACKBONE|DICT|INTERRES
   195   99  100 1    
   196   99  220 1    
   197  100  101 1    
   198  100  102 1    
   199  100  221 1    
   200  101  222 1    
   201  101  223 1    
   202  101  224 1    
   203  102  103 2    
   204  102  104 am   BACKBONE|DICT|INTERRES
   205  104  105 1    
   206  104  225 1    
   207  105  106 1    
   208  105  107 1    
   209  105  226 1    
   210  106  227 1    
   211  106  228 1    
   212  106  229 1    
   213  107  108 2    
   214  107  109 am   BACKBONE|DICT|INTERRES
   215  109  110 1    
   216  109  230 1    
   217  110  111 1    
   218  110  112 1    
   219  110  231 1    
   220  111  232 1    
   221  111  233 1    
   222  111  234 1    
   223  112  113 2    
   224  112  114 am   BACKBONE|DICT|INTERRES
   225  114  115 1    
   226  114  235 1    
   227  115  116 1    
   228  115  117 1    
   229  115  236 1    
   230  116  237 1    
   231  116  238 1    
   232  116  239 1    
   233  117  118 2    
   234  117  119 am   BACKBONE|DICT|INTERRES
   235  119  120 1    
   236  119  240 1    
   237  120  121 1    
   238  120  124 1    
   239  120  241 1    
   240  121  122 am   BACKBONE|DICT|INTERRES
   241  121  123 2    
   242  122  242 1    
   243  122  243 1    
   244  124  125 1    
   245  124  244 1    
   246  124  245 1    
   247  125  126 1    
   248  126  246 1    
   249  126  247 1    
@<TRIPOS>SUBSTRUCTURE
     1 UNK         1 GROUP             0       ****    0 ROOT    
