@<TRIPOS>MOLECULE
3R540
247   249    1
SMALL
USER_CHARGES


@<TRIPOS>ATOM
      1 CA         -5.9093  -18.6902  -45.7797 C.3       0 UNK        -0.1800 
      2 C          -4.6076  -18.1378  -46.3410 C.2       0 UNK         0.5000 
      3 O          -3.6069  -18.8497  -46.3770 O.2       0 UNK        -0.5000 
      4 N          -4.6227  -16.8705  -46.7754 N.am      1 UNK        -0.5000 
      5 CA         -3.4636  -16.1115  -47.2626 C.3       1 UNK         0.1400 
      6 C6         -2.8580  -16.6832  -48.5766 C.3       23 UNK        -0.0398 
      7 S7         -2.3171  -15.3619  -49.7180 S.3       23 UNK        -0.2404 
      8 C8         -0.5027  -15.3899  -49.5594 C.3       23 UNK        -0.0205 
      9 C9          0.1134  -16.6636  -50.1197 C.ar      23 UNK        -0.0193 
     10 C10         0.1690  -16.8768  -51.5005 C.ar      23 UNK        -0.1150 
     11 C11         0.7406  -18.0445  -52.0142 C.ar      23 UNK        -0.0193 
     12 C12         1.2625  -18.9967  -51.1344 C.ar      23 UNK        -0.1150 
     13 C13         1.2192  -18.7992  -49.7513 C.ar      23 UNK        -0.0193 
     14 C14         0.6484  -17.6203  -49.2535 C.ar      23 UNK        -0.1150 
     15 C15         1.8251  -19.8712  -48.8438 C.3       23 UNK        -0.0205 
     16 S16         1.2700  -19.8447  -47.1069 S.3       23 UNK        -0.2404 
     17 C17        -0.5105  -20.2195  -47.2636 C.3       23 UNK        -0.0398 
     18 CA         -0.8449  -21.6227  -46.7108 C.3       11 UNK         0.1400 
     19 N          -0.4589  -21.7502  -45.3028 N.am      11 UNK        -0.5000 
     20 C          -0.5417  -22.8404  -44.5293 C.2       10 UNK         0.5000 
     21 O          -0.9165  -23.9421  -44.9346 O.2       10 UNK        -0.5000 
     22 CA         -0.2104  -22.6414  -43.0372 C.3       10 UNK         0.1400 
     23 CB          1.2253  -23.0999  -42.7439 C.3       10 UNK        -0.1800 
     24 N          -0.3731  -21.2573  -42.5716 N.am      10 UNK        -0.5000 
     25 C          -1.5174  -20.5536  -42.5846 C.2       9 UNK         0.5000 
     26 O          -2.5781  -20.9981  -43.0251 O.2       9 UNK        -0.5000 
     27 CA         -1.4435  -19.1019  -42.0626 C.3       9 UNK         0.1400 
     28 CB         -2.8017  -18.5777  -41.5536 C.3       9 UNK        -0.1800 
     29 N          -0.3814  -18.9011  -41.0674 N.am      9 UNK        -0.5000 
     30 C          -0.3033  -19.4346  -39.8371 C.2       8 UNK         0.5000 
     31 O          -1.1767  -20.1480  -39.3429 O.2       8 UNK        -0.5000 
     32 CA          0.9826  -19.1570  -39.0311 C.3       8 UNK         0.1400 
     33 CB          1.6953  -20.4747  -38.6828 C.3       8 UNK        -0.1800 
     34 N           1.9285  -18.3061  -39.7551 N.am      8 UNK        -0.5000 
     35 C           1.9975  -16.9730  -39.6911 C.2       7 UNK         0.5000 
     36 O           1.2607  -16.2832  -38.9864 O.2       7 UNK        -0.5000 
     37 CA          3.0587  -16.2964  -40.5807 C.3       7 UNK         0.1400 
     38 CB          4.4879  -16.6266  -40.1098 C.3       7 UNK        -0.1800 
     39 N           2.8994  -16.5594  -42.0161 N.am      7 UNK        -0.5000 
     40 C           2.9910  -17.7146  -42.6938 C.2       6 UNK         0.5000 
     41 O           3.1953  -18.8135  -42.1771 O.2       6 UNK        -0.5000 
     42 CA          2.8186  -17.6143  -44.2167 C.3       6 UNK         0.1400 
     43 CB          1.3347  -17.4434  -44.5793 C.3       6 UNK        -0.1800 
     44 N           3.5858  -16.4908  -44.7520 N.am      6 UNK        -0.5000 
     45 C           4.8919  -16.5384  -45.0518 C.2       5 UNK         0.5000 
     46 O           5.5764  -17.5583  -44.9643 O.2       5 UNK        -0.5000 
     47 CA          5.5502  -15.2303  -45.5359 C.3       5 UNK         0.1400 
     48 CB          5.5230  -15.1573  -47.0706 C.3       5 UNK        -0.1800 
     49 N           4.9091  -14.0317  -44.9943 N.am      5 UNK        -0.5000 
     50 C           5.0047  -13.6174  -43.7225 C.2       4 UNK         0.5000 
     51 O           5.7256  -14.1522  -42.8804 O.2       4 UNK        -0.5000 
     52 CA          4.1141  -12.4234  -43.3156 C.3       4 UNK         0.1400 
     53 CB          4.8965  -11.1060  -43.4246 C.3       4 UNK        -0.1800 
     54 N           2.8769  -12.3157  -44.1003 N.am      4 UNK        -0.5000 
     55 C           1.9213  -13.2532  -44.1396 C.2       3 UNK         0.5000 
     56 O           1.9845  -14.3055  -43.4989 O.2       3 UNK        -0.5000 
     57 CA          0.7542  -13.0085  -45.1141 C.3       3 UNK         0.1400 
     58 CB          1.2269  -13.1755  -46.5683 C.3       3 UNK        -0.1800 
     59 N          -0.3370  -13.9510  -44.8858 N.am      3 UNK        -0.5000 
     60 C          -1.1963  -13.9261  -43.8631 C.2       2 UNK         0.5000 
     61 O          -1.2445  -13.0096  -43.0402 O.2       2 UNK        -0.5000 
     62 CA         -2.1650  -15.1272  -43.7604 C.3       2 UNK         0.1400 
     63 CB         -3.1700  -14.9792  -42.6041 C.3       2 UNK        -0.1800 
     64 N          -2.9146  -15.3761  -44.9954 N.am      2 UNK        -0.5000 
     65 C          -2.4319  -15.9025  -46.1306 C.2       1 UNK         0.5000 
     66 O          -1.2532  -16.2294  -46.2763 O.2       1 UNK        -0.5000 
     67 C          -2.3201  -21.9906  -46.9811 C.2       11 UNK         0.5000 
     68 O          -2.6375  -22.3622  -48.1114 O.2       11 UNK        -0.5000 
     69 N          -3.1762  -21.9673  -45.9463 N.am      12 UNK        -0.5000 
     70 CA         -4.5477  -22.4797  -45.9701 C.3       12 UNK         0.1400 
     71 CB         -5.1971  -22.2518  -44.5979 C.3       12 UNK        -0.1800 
     72 C          -4.6332  -23.9679  -46.3615 C.2       12 UNK         0.5000 
     73 O          -5.5842  -24.3618  -47.0364 O.2       12 UNK        -0.5000 
     74 N          -3.6217  -24.7490  -45.9611 N.am      13 UNK        -0.5000 
     75 CA         -3.4489  -26.1461  -46.3423 C.3       13 UNK         0.1400 
     76 CB         -3.0768  -26.9673  -45.0974 C.3       13 UNK        -0.1800 
     77 C          -2.3662  -26.2788  -47.4240 C.2       13 UNK         0.5000 
     78 O          -2.6028  -26.9328  -48.4395 O.2       13 UNK        -0.5000 
     79 N          -1.2011  -25.6545  -47.1946 N.am      14 UNK        -0.5000 
     80 CA          0.0109  -25.8295  -48.0004 C.3       14 UNK         0.1400 
     81 CB          1.2112  -25.2415  -47.2415 C.3       14 UNK        -0.1800 
     82 C          -0.0681  -25.2529  -49.4269 C.2       14 UNK         0.5000 
     83 O           0.6468  -25.7380  -50.3046 O.2       14 UNK        -0.5000 
     84 N          -0.9247  -24.2469  -49.6393 N.am      15 UNK        -0.5000 
     85 CA         -1.1591  -23.6063  -50.9347 C.3       15 UNK         0.1400 
     86 CB         -0.4475  -22.2423  -50.9621 C.3       15 UNK        -0.1800 
     87 C          -2.6632  -23.4802  -51.2347 C.2       15 UNK         0.5000 
     88 O          -3.0421  -22.6683  -52.0773 O.2       15 UNK        -0.5000 
     89 N          -3.4987  -24.2610  -50.5298 N.am      16 UNK        -0.5000 
     90 CA         -4.9628  -24.3177  -50.6408 C.3       16 UNK         0.1400 
     91 CB         -5.3617  -25.0159  -51.9576 C.3       16 UNK        -0.1800 
     92 C          -5.6637  -22.9502  -50.4574 C.2       16 UNK         0.5000 
     93 O          -6.6786  -22.6896  -51.1051 O.2       16 UNK        -0.5000 
     94 N          -5.0938  -22.1006  -49.5891 N.am      17 UNK        -0.5000 
     95 CA         -5.4901  -20.7180  -49.2970 C.3       17 UNK         0.1400 
     96 CB         -6.9424  -20.6347  -48.7781 C.3       17 UNK        -0.1800 
     97 C          -5.2061  -19.7319  -50.4485 C.2       17 UNK         0.5000 
     98 O          -5.7863  -18.6454  -50.4697 O.2       17 UNK        -0.5000 
     99 N          -4.2903  -20.1062  -51.3536 N.am      18 UNK        -0.5000 
    100 CA        -3.8157  -19.3420  -52.5047 C.3       18 UNK         0.1400 
    101 CB        -3.0495  -18.0833  -52.0467 C.3       18 UNK        -0.1800 
    102 C         -4.9453  -19.0703  -53.5167 C.2       18 UNK         0.5000 
    103 O         -5.5437  -20.0261  -54.0149 O.2       18 UNK        -0.5000 
    104 N         -5.1962  -17.7908  -53.8332 N.am      19 UNK        -0.5000 
    105 CA        -6.1522  -17.3043  -54.8313 C.3       19 UNK         0.1400 
    106 CB        -7.6042  -17.5472  -54.3605 C.3       19 UNK        -0.1800 
    107 C         -5.8237  -17.8897  -56.2189 C.2       19 UNK         0.5000 
    108 O         -4.7392  -17.6214  -56.7368 O.2       19 UNK        -0.5000 
    109 N         -6.7158  -18.7183  -56.7738 N.am      20 UNK        -0.5000 
    110 CA        -6.5345  -19.4114  -58.0509 C.3       20 UNK         0.1400 
    111 CB        -7.8450  -20.1274  -58.4132 C.3       20 UNK        -0.1800 
    112 C         -5.3516  -20.4041  -58.0812 C.2       20 UNK         0.5000 
    113 O         -4.8847  -20.7368  -59.1716 O.2       20 UNK        -0.5000 
    114 N         -4.8894  -20.8671  -56.9092 N.am      21 UNK        -0.5000 
    115 CA        -3.7885  -21.8231  -56.7895 C.3       21 UNK         0.1400 
    116 CB        -3.8166  -22.4718  -55.3975 C.3       21 UNK        -0.1800 
    117 C         -2.4012  -21.2128  -57.0668 C.2       21 UNK         0.5000 
    118 O         -1.5287  -21.9359  -57.5508 O.2       21 UNK        -0.5000 
    119 N         -2.2017  -19.9229  -56.7561 N.am      22 UNK        -0.5000 
    120 CA        -0.8869  -19.2603  -56.8573 C.3       22 UNK         0.1400 
    121 C         -0.9092  -17.7075  -56.9568 C.2       22 UNK         0.5000 
    122 N         -2.0491  -17.0315  -56.9934 N.am      22 UNK        -0.7600 
    123 O          0.1477  -17.0866  -57.0330 O.2       22 UNK        -0.5000 
    124 C124        0.1347  -19.7746  -55.8008 C.3       23 UNK        -0.0398 
    125 S125       -0.3849  -19.5237  -54.0673 S.3       23 UNK        -0.2404 
    126 C126        0.8204  -18.2770  -53.5157 C.3       23 UNK        -0.0205 
    127 H127       -5.8548  -18.7360  -44.6922 H         1 UNK         0.0600 
    128 H128       -6.7637  -18.0720  -46.0557 H         1 UNK         0.0600 
    129 H129       -6.0859  -19.6975  -46.1527 H         1 UNK         0.0600 
    130 H130       -5.4880  -16.3507  -46.7274 H         1 UNK         0.3000 
    131 H131       -3.8641  -15.1203  -47.4816 H         1 UNK         0.0600 
    132 H132       -3.6219  -17.2464  -49.1134 H         1 UNK         0.0800 
    133 H133       -2.0596  -17.4026  -48.3908 H         1 UNK         0.0800 
    134 H134       -0.2271  -15.2509  -48.5137 H         1 UNK         0.0800 
    135 H135       -0.0923  -14.5330  -50.0950 H         1 UNK         0.0800 
    136 H136       -0.2396  -16.1352  -52.1724 H         1 UNK         0.1150 
    137 H137        1.7064  -19.8980  -51.5336 H         1 UNK         0.1150 
    138 H138        0.6132  -17.4358  -48.1895 H         1 UNK         0.1150 
    139 H139        1.6209  -20.8619  -49.2498 H         1 UNK         0.0800 
    140 H140        2.9091  -19.7521  -48.8554 H         1 UNK         0.0800 
    141 H141       -0.8141  -20.1287  -48.3074 H         1 UNK         0.0800 
    142 H142       -1.0630  -19.4500  -46.7220 H         1 UNK         0.0800 
    143 H143       -0.2494  -22.3446  -47.2701 H         1 UNK         0.0600 
    144 H144       -0.1226  -20.9029  -44.8717 H         1 UNK         0.3000 
    145 H145       -0.8981  -23.2679  -42.4659 H         1 UNK         0.0600 
    146 H146        1.4457  -23.0498  -41.6773 H         1 UNK         0.0600 
    147 H147        1.3775  -24.1337  -43.0577 H         1 UNK         0.0600 
    148 H148        1.9589  -22.4860  -43.2683 H         1 UNK         0.0600 
    149 H149        0.4506  -20.8155  -42.1911 H         1 UNK         0.3000 
    150 H150       -1.1695  -18.4908  -42.9229 H         1 UNK         0.0600 
    151 H151       -3.5285  -18.5288  -42.3655 H         1 UNK         0.0600 
    152 H152       -2.7073  -17.5747  -41.1385 H         1 UNK         0.0600 
    153 H153       -3.2220  -19.2211  -40.7803 H         1 UNK         0.0600 
    154 H154        0.3945  -18.3255  -41.3591 H         1 UNK         0.3000 
    155 H155        0.6875  -18.6694  -38.0998 H         1 UNK         0.0600 
    156 H156        1.9945  -21.0196  -39.5793 H         1 UNK         0.0600 
    157 H157        1.0486  -21.1312  -38.0992 H         1 UNK         0.0600 
    158 H158        2.5902  -20.2923  -38.0875 H         1 UNK         0.0600 
    159 H159        2.5429  -18.7676  -40.4221 H         1 UNK         0.3000 
    160 H160        2.9220  -15.2198  -40.4660 H         1 UNK         0.0600 
    161 H161        4.7212  -17.6867  -40.2120 H         1 UNK         0.0600 
    162 H162        4.6226  -16.3625  -39.0603 H         1 UNK         0.0600 
    163 H163        5.2267  -16.0664  -40.6833 H         1 UNK         0.0600 
    164 H164        2.6578  -15.7334  -42.5608 H         1 UNK         0.3000 
    165 H165        3.1742  -18.5418  -44.6710 H         1 UNK         0.0600 
    166 H166        1.2103  -17.2485  -45.6442 H         1 UNK         0.0600 
    167 H167        0.7748  -18.3494  -44.3491 H         1 UNK         0.0600 
    168 H168        0.8652  -16.6219  -44.0395 H         1 UNK         0.0600 
    169 H169        3.1114  -15.5989  -44.7798 H         1 UNK         0.3000 
    170 H170        6.5928  -15.2417  -45.2111 H         1 UNK         0.0600 
    171 H171        6.0166  -16.0245  -47.5114 H         1 UNK         0.0600 
    172 H172        4.5025  -15.1305  -47.4552 H         1 UNK         0.0600 
    173 H173        6.0428  -14.2702  -47.4330 H         1 UNK         0.0600 
    174 H174        4.3105  -13.5150  -45.6207 H         1 UNK         0.3000 
    175 H175        3.8329  -12.5693  -42.2704 H         1 UNK         0.0600 
    176 H176        5.1828  -10.8918  -44.4550 H         1 UNK         0.0600 
    177 H177        4.3077  -10.2654  -43.0568 H         1 UNK         0.0600 
    178 H178        5.8109  -11.1444  -42.8310 H         1 UNK         0.0600 
    179 H179        2.7693  -11.4794  -44.6565 H         1 UNK         0.3000 
    180 H180        0.3835  -11.9919  -44.9688 H         1 UNK         0.0600 
    181 H181        1.6157  -14.1782  -46.7532 H         1 UNK         0.0600 
    182 H182        2.0158  -12.4646  -46.8159 H         1 UNK         0.0600 
    183 H183        0.4091  -13.0023  -47.2683 H         1 UNK         0.0600 
    184 H184       -0.3815  -14.7583  -45.5016 H         1 UNK         0.3000 
    185 H185       -1.5540  -16.0079  -43.5535 H         1 UNK         0.0600 
    186 H186       -2.6551  -14.8873  -41.6469 H         1 UNK         0.0600 
    187 H187       -3.7975  -14.0957  -42.7274 H         1 UNK         0.0600 
    188 H188       -3.8267  -15.8465  -42.5363 H         1 UNK         0.0600 
    189 H189       -3.8926  -15.1281  -44.9685 H         1 UNK         0.3000 
    190 H190       -2.8477  -21.6239  -45.0505 H         1 UNK         0.3000 
    191 H191       -5.1050  -21.9071  -46.7090 H         1 UNK         0.0600 
    192 H192       -5.1709  -21.1992  -44.3170 H         1 UNK         0.0600 
    193 H193       -6.2424  -22.5630  -44.6030 H         1 UNK         0.0600 
    194 H194       -4.6881  -22.8152  -43.8147 H         1 UNK         0.0600 
    195 H195       -2.8608  -24.3281  -45.4397 H         1 UNK         0.3000 
    196 H196       -4.3785  -26.5529  -46.7459 H         1 UNK         0.0600 
    197 H197       -2.9235  -28.0166  -45.3528 H         1 UNK         0.0600 
    198 H198       -3.8704  -26.9272  -44.3512 H         1 UNK         0.0600 
    199 H199       -2.1608  -26.6048  -44.6288 H         1 UNK         0.0600 
    200 H200       -1.0919  -25.1176  -46.3374 H         1 UNK         0.3000 
    201 H201        0.1795  -26.9036  -48.1029 H         1 UNK         0.0600 
    202 H202        1.3212  -25.7025  -46.2598 H         1 UNK         0.0600 
    203 H203        1.1148  -24.1666  -47.0953 H         1 UNK         0.0600 
    204 H204        2.1403  -25.4143  -47.7863 H         1 UNK         0.0600 
    205 H205       -1.4796  -23.8890  -48.8704 H         1 UNK         0.3000 
    206 H206       -0.7494  -24.2182  -51.7405 H         1 UNK         0.0600 
    207 H207        0.6218  -22.3575  -50.7888 H         1 UNK         0.0600 
    208 H208       -0.5637  -21.7541  -51.9301 H         1 UNK         0.0600 
    209 H209       -0.8454  -21.5665  -50.2056 H         1 UNK         0.0600 
    210 H210       -3.0880  -24.9098  -49.8729 H         1 UNK         0.3000 
    211 H211       -5.3064  -24.9446  -49.8168 H         1 UNK         0.0600 
    212 H212       -5.0917  -24.4169  -52.8282 H         1 UNK         0.0600 
    213 H213       -6.4373  -25.1907  -52.0004 H         1 UNK         0.0600 
    214 H214       -4.8737  -25.9858  -52.0533 H         1 UNK         0.0600 
    215 H215       -4.2338  -22.3980  -49.1343 H         1 UNK         0.3000 
    216 H216       -4.8366  -20.3960  -48.4860 H         1 UNK         0.0600 
    217 H217       -7.1615  -19.6396  -48.3901 H         1 UNK         0.0600 
    218 H218       -7.1196  -21.3452  -47.9710 H         1 UNK         0.0600 
    219 H219       -7.6681  -20.8348  -49.5662 H         1 UNK         0.0600 
    220 H220       -3.9287  -21.0536  -51.3073 H         1 UNK         0.3000 
    221 H221       -3.1034  -19.9902  -53.0145 H         1 UNK         0.0600 
    222 H222       -3.7013  -17.3524  -51.5690 H         1 UNK         0.0600 
    223 H223       -2.2711  -18.3477  -51.3310 H         1 UNK         0.0600 
    224 H224       -2.5576  -17.5926  -52.8872 H         1 UNK         0.0600 
    225 H225       -4.6368  -17.0797  -53.3846 H         1 UNK         0.3000 
    226 H226       -6.0042  -16.2265  -54.9102 H         1 UNK         0.0600 
    227 H227       -7.7854  -17.0587  -53.4030 H         1 UNK         0.0600 
    228 H228       -8.3222  -17.1347  -55.0703 H         1 UNK         0.0600 
    229 H229       -7.8304  -18.6062  -54.2327 H         1 UNK         0.0600 
    230 H230       -7.5634  -18.9221  -56.2646 H         1 UNK         0.3000 
    231 H231       -6.3377  -18.6543  -58.8127 H         1 UNK         0.0600 
    232 H232       -8.1080  -20.8824  -57.6713 H         1 UNK         0.0600 
    233 H233       -7.7634  -20.6298  -59.3781 H         1 UNK         0.0600 
    234 H234       -8.6737  -19.4228  -58.4856 H         1 UNK         0.0600 
    235 H235       -5.3157  -20.5504  -56.0447 H         1 UNK         0.3000 
    236 H236       -3.9506  -22.6154  -57.5236 H         1 UNK         0.0600 
    237 H237       -4.7914  -22.9073  -55.1775 H         1 UNK         0.0600 
    238 H238       -3.0784  -23.2712  -55.3241 H         1 UNK         0.0600 
    239 H239       -3.5870  -21.7508  -54.6138 H         1 UNK         0.0600 
    240 H240       -2.9625  -19.3734  -56.3850 H         1 UNK         0.3000 
    241 H241       -0.4873  -19.5490  -57.8314 H         1 UNK         0.0600 
    242 H242       -2.9710  -17.4593  -56.9573 H         1 UNK         0.3800 
    243 H243       -1.9969  -16.0287  -57.0714 H         1 UNK         0.3800 
    244 H244        1.1144  -19.3233  -55.9646 H         1 UNK         0.0800 
    245 H245        0.2986  -20.8437  -55.9363 H         1 UNK         0.0800 
    246 H246        0.6501  -17.3471  -54.0606 H         1 UNK         0.0800 
    247 H247        1.8291  -18.6060  -53.7698 H         1 UNK         0.0800 
@<TRIPOS>BOND
     1    1    2 1    
     2    1  127 1    
     3    1  128 1    
     4    1  129 1    
     5    2    3 2    
     6    2    4 am   BACKBONE|DICT|INTERRES
     7    4    5 1    
     8    4  130 1    
     9    5    6 1    
    10    5   65 1    
    11    5  131 1    
    12    6    7 1    
    13    6  132 1    
    14    6  133 1    
    15    7    8 1    
    16    8    9 1    
    17    8  134 1    
    18    8  135 1    
    19    9   10 ar   
    20    9   14 ar   
    21   10   11 ar   
    22   10  136 1    
    23   11   12 ar   
    24   11  126 1    
    25   12   13 ar   
    26   12  137 1    
    27   13   14 ar   
    28   13   15 1    
    29   14  138 1    
    30   15   16 1    
    31   15  139 1    
    32   15  140 1    
    33   16   17 1    
    34   17   18 1    
    35   17  141 1    
    36   17  142 1    
    37   18   19 1    
    38   18   67 1    
    39   18  143 1    
    40   19   20 am   BACKBONE|DICT|INTERRES
    41   19  144 1    
    42   20   21 2    
    43   20   22 1    
    44   22   23 1    
    45   22   24 1    
    46   22  145 1    
    47   23  146 1    
    48   23  147 1    
    49   23  148 1    
    50   24   25 am   BACKBONE|DICT|INTERRES
    51   24  149 1    
    52   25   26 2    
    53   25   27 1    
    54   27   28 1    
    55   27   29 1    
    56   27  150 1    
    57   28  151 1    
    58   28  152 1    
    59   28  153 1    
    60   29   30 am   BACKBONE|DICT|INTERRES
    61   29  154 1    
    62   30   31 2    
    63   30   32 1    
    64   32   33 1    
    65   32   34 1    
    66   32  155 1    
    67   33  156 1    
    68   33  157 1    
    69   33  158 1    
    70   34   35 am   BACKBONE|DICT|INTERRES
    71   34  159 1    
    72   35   36 2    
    73   35   37 1    
    74   37   38 1    
    75   37   39 1    
    76   37  160 1    
    77   38  161 1    
    78   38  162 1    
    79   38  163 1    
    80   39   40 am   BACKBONE|DICT|INTERRES
    81   39  164 1    
    82   40   41 2    
    83   40   42 1    
    84   42   43 1    
    85   42   44 1    
    86   42  165 1    
    87   43  166 1    
    88   43  167 1    
    89   43  168 1    
    90   44   45 am   BACKBONE|DICT|INTERRES
    91   44  169 1    
    92   45   46 2    
    93   45   47 1    
    94   47   48 1    
    95   47   49 1    
    96   47  170 1    
    97   48  171 1    
    98   48  172 1    
    99   48  173 1    
   100   49   50 am   BACKBONE|DICT|INTERRES
   101   49  174 1    
   102   50   51 2    
   103   50   52 1    
   104   52   53 1    
   105   52   54 1    
   106   52  175 1    
   107   53  176 1    
   108   53  177 1    
   109   53  178 1    
   110   54   55 am   BACKBONE|DICT|INTERRES
   111   54  179 1    
   112   55   56 2    
   113   55   57 1    
   114   57   58 1    
   115   57   59 1    
   116   57  180 1    
   117   58  181 1    
   118   58  182 1    
   119   58  183 1    
   120   59   60 am   BACKBONE|DICT|INTERRES
   121   59  184 1    
   122   60   61 2    
   123   60   62 1    
   124   62   63 1    
   125   62   64 1    
   126   62  185 1    
   127   63  186 1    
   128   63  187 1    
   129   63  188 1    
   130   64   65 am   BACKBONE|DICT|INTERRES
   131   64  189 1    
   132   65   66 2    
   133   67   68 2    
   134   67   69 am   BACKBONE|DICT|INTERRES
   135   69   70 1    
   136   69  190 1    
   137   70   71 1    
   138   70   72 1    
   139   70  191 1    
   140   71  192 1    
   141   71  193 1    
   142   71  194 1    
   143   72   73 2    
   144   72   74 am   BACKBONE|DICT|INTERRES
   145   74   75 1    
   146   74  195 1    
   147   75   76 1    
   148   75   77 1    
   149   75  196 1    
   150   76  197 1    
   151   76  198 1    
   152   76  199 1    
   153   77   78 2    
   154   77   79 am   BACKBONE|DICT|INTERRES
   155   79   80 1    
   156   79  200 1    
   157   80   81 1    
   158   80   82 1    
   159   80  201 1    
   160   81  202 1    
   161   81  203 1    
   162   81  204 1    
   163   82   83 2    
   164   82   84 am   BACKBONE|DICT|INTERRES
   165   84   85 1    
   166   84  205 1    
   167   85   86 1    
   168   85   87 1    
   169   85  206 1    
   170   86  207 1    
   171   86  208 1    
   172   86  209 1    
   173   87   88 2    
   174   87   89 am   BACKBONE|DICT|INTERRES
   175   89   90 1    
   176   89  210 1    
   177   90   91 1    
   178   90   92 1    
   179   90  211 1    
   180   91  212 1    
   181   91  213 1    
   182   91  214 1    
   183   92   93 2    
   184   92   94 am   BACKBONE|DICT|INTERRES
   185   94   95 1    
   186   94  215 1    
   187   95   96 1    
   188   95   97 1    
   189   95  216 1    
   190   96  217 1    
   191   96  218 1    
   192   96  219 1    
   193   97   98 2    
   194   97   99 am   BACKBONE|DICT|INTERRES
   195   99  100 1    
   196   99  220 1    
   197  100  101 1    
   198  100  102 1    
   199  100  221 1    
   200  101  222 1    
   201  101  223 1    
   202  101  224 1    
   203  102  103 2    
   204  102  104 am   BACKBONE|DICT|INTERRES
   205  104  105 1    
   206  104  225 1    
   207  105  106 1    
   208  105  107 1    
   209  105  226 1    
   210  106  227 1    
   211  106  228 1    
   212  106  229 1    
   213  107  108 2    
   214  107  109 am   BACKBONE|DICT|INTERRES
   215  109  110 1    
   216  109  230 1    
   217  110  111 1    
   218  110  112 1    
   219  110  231 1    
   220  111  232 1    
   221  111  233 1    
   222  111  234 1    
   223  112  113 2    
   224  112  114 am   BACKBONE|DICT|INTERRES
   225  114  115 1    
   226  114  235 1    
   227  115  116 1    
   228  115  117 1    
   229  115  236 1    
   230  116  237 1    
   231  116  238 1    
   232  116  239 1    
   233  117  118 2    
   234  117  119 am   BACKBONE|DICT|INTERRES
   235  119  120 1    
   236  119  240 1    
   237  120  121 1    
   238  120  124 1    
   239  120  241 1    
   240  121  122 am   BACKBONE|DICT|INTERRES
   241  121  123 2    
   242  122  242 1    
   243  122  243 1    
   244  124  125 1    
   245  124  244 1    
   246  124  245 1    
   247  125  126 1    
   248  126  246 1    
   249  126  247 1    
@<TRIPOS>SUBSTRUCTURE
     1 UNK         1 GROUP             0       ****    0 ROOT    
