@<TRIPOS>MOLECULE
3R540
247   249    1
SMALL
USER_CHARGES


@<TRIPOS>ATOM
      1 CA         -4.6086  -17.1821  -47.7048 C.3       0 UNK        -0.1800 
      2 C          -3.4172  -16.3785  -47.2035 C.2       0 UNK         0.5000 
      3 O          -2.4187  -16.9642  -46.7888 O.2       0 UNK        -0.5000 
      4 N          -3.5300  -15.0417  -47.2288 N.am      1 UNK        -0.5000 
      5 CA         -2.5343  -14.0775  -46.7318 C.3       1 UNK         0.1400 
      6 C6         -1.2345  -14.0352  -47.5806 C.3       23 UNK        -0.0398 
      7 S7         -1.5093  -13.3142  -49.2301 S.3       23 UNK        -0.2404 
      8 C8         -0.0782  -13.9921  -50.1420 C.3       23 UNK        -0.0205 
      9 C9         -0.2737  -15.3702  -50.7796 C.ar      23 UNK        -0.0193 
     10 C10         0.7433  -15.8624  -51.6041 C.ar      23 UNK        -0.1150 
     11 C11         0.6024  -17.0831  -52.2712 C.ar      23 UNK        -0.0193 
     12 C12        -0.5620  -17.8308  -52.0882 C.ar      23 UNK        -0.1150 
     13 C13        -1.5823  -17.3679  -51.2537 C.ar      23 UNK        -0.0193 
     14 C14        -1.4311  -16.1411  -50.6024 C.ar      23 UNK        -0.1150 
     15 C15        -2.8655  -18.1696  -51.0761 C.3       23 UNK        -0.0205 
     16 S16        -2.5730  -19.8860  -50.5472 S.3       23 UNK        -0.2404 
     17 C17        -1.5748  -19.6635  -49.0380 C.3       23 UNK        -0.0398 
     18 CA         -1.6752  -20.8911  -48.1021 C.3       11 UNK         0.1400 
     19 N          -0.4411  -21.1205  -47.3530 N.am      11 UNK        -0.5000 
     20 C          -0.0670  -22.3163  -46.8813 C.2       10 UNK         0.5000 
     21 O          -0.8240  -23.2819  -46.7997 O.2       10 UNK        -0.5000 
     22 CA          1.4027  -22.4688  -46.4626 C.3       10 UNK         0.1400 
     23 CB          2.3640  -22.0449  -47.5876 C.3       10 UNK        -0.1800 
     24 N           1.6627  -21.6680  -45.2766 N.am      10 UNK        -0.5000 
     25 C           1.7858  -22.1573  -44.0366 C.2       9 UNK         0.5000 
     26 O           1.8280  -23.3599  -43.7748 O.2       9 UNK        -0.5000 
     27 CA          1.8665  -21.1384  -42.8812 C.3       9 UNK         0.1400 
     28 CB          3.3132  -21.0154  -42.3783 C.3       9 UNK        -0.1800 
     29 N           1.3645  -19.8025  -43.2133 N.am      9 UNK        -0.5000 
     30 C           0.1156  -19.5172  -43.6090 C.2       8 UNK         0.5000 
     31 O          -0.7742  -20.3580  -43.7358 O.2       8 UNK        -0.5000 
     32 CA         -0.1658  -18.0538  -43.9862 C.3       8 UNK         0.1400 
     33 CB         -0.4282  -17.2314  -42.7179 C.3       8 UNK        -0.1800 
     34 N           0.9193  -17.4370  -44.7486 N.am      8 UNK        -0.5000 
     35 C           1.4056  -17.8711  -45.9206 C.2       7 UNK         0.5000 
     36 O           1.0107  -18.8834  -46.4998 O.2       7 UNK        -0.5000 
     37 CA          2.5624  -17.0611  -46.5236 C.3       7 UNK         0.1400 
     38 CB          2.0354  -15.8159  -47.2517 C.3       7 UNK        -0.1800 
     39 N           3.5118  -16.6633  -45.4850 N.am      7 UNK        -0.5000 
     40 C           4.5172  -17.4351  -45.0502 C.2       6 UNK         0.5000 
     41 O           4.7976  -18.5304  -45.5379 O.2       6 UNK        -0.5000 
     42 CA          5.3491  -16.9047  -43.8652 C.3       6 UNK         0.1400 
     43 CB          6.5439  -16.0834  -44.3730 C.3       6 UNK        -0.1800 
     44 N           4.5794  -16.0937  -42.9199 N.am      6 UNK        -0.5000 
     45 C           3.5947  -16.5616  -42.1408 C.2       5 UNK         0.5000 
     46 O           3.2238  -17.7352  -42.1370 O.2       5 UNK        -0.5000 
     47 CA          2.8713  -15.5349  -41.2457 C.3       5 UNK         0.1400 
     48 CB          3.6427  -15.3351  -39.9326 C.3       5 UNK        -0.1800 
     49 N           2.6201  -14.2249  -41.8611 N.am      5 UNK        -0.5000 
     50 C           2.0720  -14.0094  -43.0646 C.2       4 UNK         0.5000 
     51 O           1.8150  -14.9023  -43.8714 O.2       4 UNK        -0.5000 
     52 CA          1.7250  -12.5570  -43.4090 C.3       4 UNK         0.1400 
     53 CB          1.9349  -12.2598  -44.9041 C.3       4 UNK        -0.1800 
     54 N           0.3209  -12.3432  -43.0764 N.am      4 UNK        -0.5000 
     55 C          -0.1236  -11.6493  -42.0206 C.2       3 UNK         0.5000 
     56 O           0.6220  -11.0984  -41.2093 O.2       3 UNK        -0.5000 
     57 CA         -1.6506  -11.5268  -41.8320 C.3       3 UNK         0.1400 
     58 CB         -2.1390  -10.1544  -42.3213 C.3       3 UNK        -0.1800 
     59 N          -2.4165  -12.5674  -42.5190 N.am      3 UNK        -0.5000 
     60 C          -2.5223  -13.8376  -42.1072 C.2       2 UNK         0.5000 
     61 O          -2.0198  -14.2607  -41.0659 O.2       2 UNK        -0.5000 
     62 CA         -3.3146  -14.8042  -43.0141 C.3       2 UNK         0.1400 
     63 CB         -4.7631  -14.9372  -42.5209 C.3       2 UNK        -0.1800 
     64 N          -3.3305  -14.4627  -44.4417 N.am      2 UNK        -0.5000 
     65 C          -2.2556  -14.2756  -45.2238 C.2       1 UNK         0.5000 
     66 O          -1.1027  -14.2511  -44.7967 O.2       1 UNK        -0.5000 
     67 C          -2.9327  -20.8698  -47.2173 C.2       11 UNK         0.5000 
     68 O          -3.9058  -21.5460  -47.5533 O.2       11 UNK        -0.5000 
     69 N          -2.8982  -20.1389  -46.0932 N.am      12 UNK        -0.5000 
     70 CA         -4.0149  -20.0875  -45.1422 C.3       12 UNK         0.1400 
     71 CB         -3.8376  -18.9354  -44.1394 C.3       12 UNK        -0.1800 
     72 C          -4.2067  -21.4301  -44.4154 C.2       12 UNK         0.5000 
     73 O          -5.3447  -21.8605  -44.2311 O.2       12 UNK        -0.5000 
     74 N          -3.0918  -22.0924  -44.0755 N.am      13 UNK        -0.5000 
     75 CA         -3.0486  -23.4325  -43.4876 C.3       13 UNK         0.1400 
     76 CB         -1.5965  -23.7777  -43.1275 C.3       13 UNK        -0.1800 
     77 C          -3.6567  -24.5153  -44.4015 C.2       13 UNK         0.5000 
     78 O          -4.3711  -25.3911  -43.9129 O.2       13 UNK        -0.5000 
     79 N          -3.3951  -24.4149  -45.7120 N.am      14 UNK        -0.5000 
     80 CA         -3.9672  -25.2775  -46.7486 C.3       14 UNK         0.1400 
     81 CB         -3.0490  -25.2444  -47.9808 C.3       14 UNK        -0.1800 
     82 C          -5.4032  -24.8866  -47.1536 C.2       14 UNK         0.5000 
     83 O          -6.0134  -25.6051  -47.9449 O.2       14 UNK        -0.5000 
     84 N          -5.9051  -23.7459  -46.6556 N.am      15 UNK        -0.5000 
     85 CA         -7.1780  -23.1078  -47.0133 C.3       15 UNK         0.1400 
     86 CB         -8.3705  -23.9419  -46.5017 C.3       15 UNK        -0.1800 
     87 C          -7.2668  -22.7785  -48.5204 C.2       15 UNK         0.5000 
     88 O          -8.3214  -22.9450  -49.1349 O.2       15 UNK        -0.5000 
     89 N          -6.1291  -22.3466  -49.0840 N.am      16 UNK        -0.5000 
     90 CA         -5.8686  -22.0070  -50.4857 C.3       16 UNK         0.1400 
     91 CB         -6.7452  -20.8205  -50.9357 C.3       16 UNK        -0.1800 
     92 C          -5.9268  -23.1902  -51.4772 C.2       16 UNK         0.5000 
     93 O          -5.7662  -22.9658  -52.6777 O.2       16 UNK        -0.5000 
     94 N          -6.1189  -24.4263  -50.9935 N.am      17 UNK        -0.5000 
     95 CA         -6.1301  -25.6348  -51.8167 C.3       17 UNK         0.1400 
     96 CB         -6.7479  -26.7958  -51.0227 C.3       17 UNK        -0.1800 
     97 C          -4.7036  -25.9740  -52.2786 C.2       17 UNK         0.5000 
     98 O          -3.8401  -26.2234  -51.4358 O.2       17 UNK        -0.5000 
     99 N          -4.4731  -25.9292  -53.5983 N.am      18 UNK        -0.5000 
    100 CA        -3.2186  -26.1782  -54.3301 C.3       18 UNK         0.1400 
    101 CB        -2.7215  -27.6190  -54.1057 C.3       18 UNK        -0.1800 
    102 C         -2.0853  -25.1594  -54.0738 C.2       18 UNK         0.5000 
    103 O         -1.3145  -24.8751  -54.9908 O.2       18 UNK        -0.5000 
    104 N         -2.0071  -24.6172  -52.8533 N.am      19 UNK        -0.5000 
    105 CA        -1.0216  -23.6361  -52.3982 C.3       19 UNK         0.1400 
    106 CB        -1.1392  -23.5022  -50.8735 C.3       19 UNK        -0.1800 
    107 C         -1.1505  -22.2546  -53.0689 C.2       19 UNK         0.5000 
    108 O         -0.1761  -21.5004  -53.0844 O.2       19 UNK        -0.5000 
    109 N         -2.3305  -21.9444  -53.6250 N.am      20 UNK        -0.5000 
    110 CA        -2.6496  -20.7035  -54.3351 C.3       20 UNK         0.1400 
    111 CB        -4.1764  -20.5283  -54.3661 C.3       20 UNK        -0.1800 
    112 C         -2.0052  -20.6285  -55.7380 C.2       20 UNK         0.5000 
    113 O         -2.7010  -20.4359  -56.7363 O.2       20 UNK        -0.5000 
    114 N         -0.6781  -20.7915  -55.7875 N.am      21 UNK        -0.5000 
    115 CA         0.1451  -20.6968  -56.9935 C.3       21 UNK         0.1400 
    116 CB         1.4806  -21.4108  -56.7353 C.3       21 UNK        -0.1800 
    117 C          0.3873  -19.2397  -57.4323 C.2       21 UNK         0.5000 
    118 O          0.6454  -18.9961  -58.6119 O.2       21 UNK        -0.5000 
    119 N          0.3058  -18.3046  -56.4778 N.am      22 UNK        -0.5000 
    120 CA         0.3927  -16.8553  -56.6954 C.3       22 UNK         0.1400 
    121 C         -0.8306  -16.3124  -57.4854 C.2       22 UNK         0.5000 
    122 N         -0.6140  -15.4301  -58.4512 N.am      22 UNK        -0.7600 
    123 O         -1.9769  -16.6501  -57.1989 O.2       22 UNK        -0.5000 
    124 C124        0.5417  -16.0978  -55.3533 C.3       23 UNK        -0.0398 
    125 S125        2.1379  -16.4238  -54.5239 S.3       23 UNK        -0.2404 
    126 C126        1.6960  -17.5994  -53.1985 C.3       23 UNK        -0.0205 
    127 H127       -5.1624  -16.6384  -48.4703 H         1 UNK         0.0600 
    128 H128       -5.2840  -17.4013  -46.8781 H         1 UNK         0.0600 
    129 H129       -4.2813  -18.1302  -48.1305 H         1 UNK         0.0600 
    130 H130       -4.3778  -14.6312  -47.5943 H         1 UNK         0.3000 
    131 H131       -3.0020  -13.0942  -46.8019 H         1 UNK         0.0600 
    132 H132       -0.4707  -13.4197  -47.1038 H         1 UNK         0.0800 
    133 H133       -0.8081  -15.0339  -47.6784 H         1 UNK         0.0800 
    134 H134        0.7912  -14.0180  -49.4838 H         1 UNK         0.0800 
    135 H135        0.1643  -13.2847  -50.9362 H         1 UNK         0.0800 
    136 H136        1.6419  -15.2793  -51.7510 H         1 UNK         0.1150 
    137 H137       -0.6719  -18.7803  -52.5900 H         1 UNK         0.1150 
    138 H138       -2.2323  -15.7890  -49.9711 H         1 UNK         0.1150 
    139 H139       -3.5289  -17.6876  -50.3586 H         1 UNK         0.0800 
    140 H140       -3.4036  -18.1842  -52.0246 H         1 UNK         0.0800 
    141 H141       -1.8509  -18.7413  -48.5291 H         1 UNK         0.0800 
    142 H142       -0.5437  -19.5221  -49.3659 H         1 UNK         0.0800 
    143 H143       -1.7873  -21.7681  -48.7403 H         1 UNK         0.0600 
    144 H144        0.1956  -20.3310  -47.2681 H         1 UNK         0.3000 
    145 H145        1.5780  -23.5279  -46.2620 H         1 UNK         0.0600 
    146 H146        3.3974  -22.2628  -47.3177 H         1 UNK         0.0600 
    147 H147        2.1483  -22.5855  -48.5101 H         1 UNK         0.0600 
    148 H148        2.2997  -20.9787  -47.8072 H         1 UNK         0.0600 
    149 H149        1.5972  -20.6644  -45.3938 H         1 UNK         0.3000 
    150 H150        1.2514  -21.5277  -42.0677 H         1 UNK         0.0600 
    151 H151        3.7295  -21.9924  -42.1295 H         1 UNK         0.0600 
    152 H152        3.3659  -20.4042  -41.4773 H         1 UNK         0.0600 
    153 H153        3.9607  -20.5616  -43.1300 H         1 UNK         0.0600 
    154 H154        2.0218  -19.0368  -43.0976 H         1 UNK         0.3000 
    155 H155       -1.0570  -18.0214  -44.6143 H         1 UNK         0.0600 
    156 H156       -1.3415  -17.5605  -42.2217 H         1 UNK         0.0600 
    157 H157       -0.5346  -16.1715  -42.9450 H         1 UNK         0.0600 
    158 H158        0.3841  -17.3346  -42.0001 H         1 UNK         0.0600 
    159 H159        1.2816  -16.5603  -44.3785 H         1 UNK         0.3000 
    160 H160        3.0684  -17.6894  -47.2598 H         1 UNK         0.0600 
    161 H161        1.4872  -15.1556  -46.5791 H         1 UNK         0.0600 
    162 H162        1.3597  -16.1006  -48.0592 H         1 UNK         0.0600 
    163 H163        2.8494  -15.2426  -47.6952 H         1 UNK         0.0600 
    164 H164        3.2863  -15.8188  -44.9725 H         1 UNK         0.3000 
    165 H165        5.7366  -17.7708  -43.3243 H         1 UNK         0.0600 
    166 H166        7.1893  -15.7751  -43.5503 H         1 UNK         0.0600 
    167 H167        7.1549  -16.6679  -45.0622 H         1 UNK         0.0600 
    168 H168        6.2198  -15.1860  -44.9015 H         1 UNK         0.0600 
    169 H169        4.8052  -15.1112  -42.8703 H         1 UNK         0.3000 
    170 H170        1.8968  -15.9543  -40.9943 H         1 UNK         0.0600 
    171 H171        3.8278  -16.2897  -39.4380 H         1 UNK         0.0600 
    172 H172        4.6097  -14.8599  -40.1022 H         1 UNK         0.0600 
    173 H173        3.0809  -14.7141  -39.2346 H         1 UNK         0.0600 
    174 H174        2.7831  -13.4245  -41.2670 H         1 UNK         0.3000 
    175 H175        2.3763  -11.8913  -42.8390 H         1 UNK         0.0600 
    176 H176        1.2919  -12.8741  -45.5345 H         1 UNK         0.0600 
    177 H177        1.7203  -11.2152  -45.1297 H         1 UNK         0.0600 
    178 H178        2.9666  -12.4532  -45.1999 H         1 UNK         0.0600 
    179 H179       -0.3400  -12.8647  -43.6460 H         1 UNK         0.3000 
    180 H180       -1.8545  -11.5972  -40.7614 H         1 UNK         0.0600 
    181 H181       -1.9712  -10.0258  -43.3914 H         1 UNK         0.0600 
    182 H182       -1.6155   -9.3468  -41.8078 H         1 UNK         0.0600 
    183 H183       -3.2039  -10.0225  -42.1290 H         1 UNK         0.0600 
    184 H184       -2.8610  -12.3078  -43.3869 H         1 UNK         0.3000 
    185 H185       -2.8484  -15.7853  -42.9284 H         1 UNK         0.0600 
    186 H186       -4.7941  -15.2198  -41.4677 H         1 UNK         0.0600 
    187 H187       -5.3107  -13.9998  -42.6258 H         1 UNK         0.0600 
    188 H188       -5.3005  -15.7062  -43.0764 H         1 UNK         0.0600 
    189 H189       -4.2379  -14.4589  -44.8838 H         1 UNK         0.3000 
    190 H190       -2.0612  -19.6247  -45.8595 H         1 UNK         0.3000 
    191 H191       -4.9247  -19.8872  -45.7125 H         1 UNK         0.0600 
    192 H192       -3.6664  -17.9849  -44.6421 H         1 UNK         0.0600 
    193 H193       -4.7343  -18.8183  -43.5300 H         1 UNK         0.0600 
    194 H194       -3.0097  -19.1099  -43.4549 H         1 UNK         0.0600 
    195 H195       -2.2005  -21.6224  -44.2071 H         1 UNK         0.3000 
    196 H196       -3.6333  -23.4079  -42.5658 H         1 UNK         0.0600 
    197 H197       -1.5334  -24.7546  -42.6470 H         1 UNK         0.0600 
    198 H198       -1.1750  -23.0464  -42.4374 H         1 UNK         0.0600 
    199 H199       -0.9607  -23.8055  -44.0131 H         1 UNK         0.0600 
    200 H200       -2.7433  -23.7059  -46.0300 H         1 UNK         0.3000 
    201 H201       -4.0005  -26.3036  -46.3769 H         1 UNK         0.0600 
    202 H202       -2.0398  -25.5719  -47.7316 H         1 UNK         0.0600 
    203 H203       -2.9827  -24.2412  -48.4035 H         1 UNK         0.0600 
    204 H204       -3.4172  -25.9070  -48.7647 H         1 UNK         0.0600 
    205 H205       -5.3247  -23.2184  -46.0162 H         1 UNK         0.3000 
    206 H206       -7.1959  -22.1501  -46.4912 H         1 UNK         0.0600 
    207 H207       -8.2774  -24.1471  -45.4352 H         1 UNK         0.0600 
    208 H208       -9.3108  -23.4094  -46.6482 H         1 UNK         0.0600 
    209 H209       -8.4516  -24.8969  -47.0216 H         1 UNK         0.0600 
    210 H210       -5.3263  -22.2202  -48.4683 H         1 UNK         0.3000 
    211 H211       -4.8327  -21.6716  -50.5084 H         1 UNK         0.0600 
    212 H212       -6.4637  -20.4750  -51.9301 H         1 UNK         0.0600 
    213 H213       -6.6355  -19.9731  -50.2588 H         1 UNK         0.0600 
    214 H214       -7.8014  -21.0870  -50.9747 H         1 UNK         0.0600 
    215 H215       -6.2035  -24.5595  -49.9938 H         1 UNK         0.3000 
    216 H216       -6.7613  -25.4535  -52.6894 H         1 UNK         0.0600 
    217 H217       -6.8400  -27.6858  -51.6461 H         1 UNK         0.0600 
    218 H218       -7.7458  -26.5431  -50.6635 H         1 UNK         0.0600 
    219 H219       -6.1395  -27.0652  -50.1589 H         1 UNK         0.0600 
    220 H220       -5.2465  -25.6533  -54.1878 H         1 UNK         0.3000 
    221 H221       -3.4761  -26.0852  -55.3863 H         1 UNK         0.0600 
    222 H222       -2.4169  -27.7901  -53.0729 H         1 UNK         0.0600 
    223 H223       -3.4950  -28.3462  -54.3528 H         1 UNK         0.0600 
    224 H224       -1.8591  -27.8351  -54.7375 H         1 UNK         0.0600 
    225 H225       -2.6516  -24.9775  -52.1548 H         1 UNK         0.3000 
    226 H226       -0.0279  -24.0213  -52.6352 H         1 UNK         0.0600 
    227 H227       -0.9484  -24.4529  -50.3752 H         1 UNK         0.0600 
    228 H228       -0.4179  -22.7815  -50.4855 H         1 UNK         0.0600 
    229 H229       -2.1357  -23.1671  -50.5836 H         1 UNK         0.0600 
    230 H230       -3.0688  -22.6317  -53.5783 H         1 UNK         0.3000 
    231 H231       -2.2463  -19.8686  -53.7625 H         1 UNK         0.0600 
    232 H232       -4.6666  -21.3475  -54.8935 H         1 UNK         0.0600 
    233 H233       -4.4575  -19.5979  -54.8610 H         1 UNK         0.0600 
    234 H234       -4.5807  -20.4891  -53.3554 H         1 UNK         0.0600 
    235 H235       -0.1995  -20.9897  -54.9128 H         1 UNK         0.3000 
    236 H236       -0.3674  -21.2108  -57.8094 H         1 UNK         0.0600 
    237 H237        1.3233  -22.4587  -56.4784 H         1 UNK         0.0600 
    238 H238        2.1156  -21.3852  -57.6218 H         1 UNK         0.0600 
    239 H239        2.0349  -20.9448  -55.9195 H         1 UNK         0.0600 
    240 H240        0.0661  -18.6008  -55.5454 H         1 UNK         0.3000 
    241 H241        1.2883  -16.6683  -57.2916 H         1 UNK         0.0600 
    242 H242       -1.4012  -15.0586  -58.9605 H         1 UNK         0.3800 
    243 H243        0.3177  -15.1335  -58.6990 H         1 UNK         0.3800 
    244 H244        0.4975  -15.0204  -55.5232 H         1 UNK         0.0800 
    245 H245       -0.2931  -16.3248  -54.6893 H         1 UNK         0.0800 
    246 H246        1.4063  -18.5485  -53.6521 H         1 UNK         0.0800 
    247 H247        2.5867  -17.8072  -52.6045 H         1 UNK         0.0800 
@<TRIPOS>BOND
     1    1    2 1    
     2    1  127 1    
     3    1  128 1    
     4    1  129 1    
     5    2    3 2    
     6    2    4 am   BACKBONE|DICT|INTERRES
     7    4    5 1    
     8    4  130 1    
     9    5    6 1    
    10    5   65 1    
    11    5  131 1    
    12    6    7 1    
    13    6  132 1    
    14    6  133 1    
    15    7    8 1    
    16    8    9 1    
    17    8  134 1    
    18    8  135 1    
    19    9   10 ar   
    20    9   14 ar   
    21   10   11 ar   
    22   10  136 1    
    23   11   12 ar   
    24   11  126 1    
    25   12   13 ar   
    26   12  137 1    
    27   13   14 ar   
    28   13   15 1    
    29   14  138 1    
    30   15   16 1    
    31   15  139 1    
    32   15  140 1    
    33   16   17 1    
    34   17   18 1    
    35   17  141 1    
    36   17  142 1    
    37   18   19 1    
    38   18   67 1    
    39   18  143 1    
    40   19   20 am   BACKBONE|DICT|INTERRES
    41   19  144 1    
    42   20   21 2    
    43   20   22 1    
    44   22   23 1    
    45   22   24 1    
    46   22  145 1    
    47   23  146 1    
    48   23  147 1    
    49   23  148 1    
    50   24   25 am   BACKBONE|DICT|INTERRES
    51   24  149 1    
    52   25   26 2    
    53   25   27 1    
    54   27   28 1    
    55   27   29 1    
    56   27  150 1    
    57   28  151 1    
    58   28  152 1    
    59   28  153 1    
    60   29   30 am   BACKBONE|DICT|INTERRES
    61   29  154 1    
    62   30   31 2    
    63   30   32 1    
    64   32   33 1    
    65   32   34 1    
    66   32  155 1    
    67   33  156 1    
    68   33  157 1    
    69   33  158 1    
    70   34   35 am   BACKBONE|DICT|INTERRES
    71   34  159 1    
    72   35   36 2    
    73   35   37 1    
    74   37   38 1    
    75   37   39 1    
    76   37  160 1    
    77   38  161 1    
    78   38  162 1    
    79   38  163 1    
    80   39   40 am   BACKBONE|DICT|INTERRES
    81   39  164 1    
    82   40   41 2    
    83   40   42 1    
    84   42   43 1    
    85   42   44 1    
    86   42  165 1    
    87   43  166 1    
    88   43  167 1    
    89   43  168 1    
    90   44   45 am   BACKBONE|DICT|INTERRES
    91   44  169 1    
    92   45   46 2    
    93   45   47 1    
    94   47   48 1    
    95   47   49 1    
    96   47  170 1    
    97   48  171 1    
    98   48  172 1    
    99   48  173 1    
   100   49   50 am   BACKBONE|DICT|INTERRES
   101   49  174 1    
   102   50   51 2    
   103   50   52 1    
   104   52   53 1    
   105   52   54 1    
   106   52  175 1    
   107   53  176 1    
   108   53  177 1    
   109   53  178 1    
   110   54   55 am   BACKBONE|DICT|INTERRES
   111   54  179 1    
   112   55   56 2    
   113   55   57 1    
   114   57   58 1    
   115   57   59 1    
   116   57  180 1    
   117   58  181 1    
   118   58  182 1    
   119   58  183 1    
   120   59   60 am   BACKBONE|DICT|INTERRES
   121   59  184 1    
   122   60   61 2    
   123   60   62 1    
   124   62   63 1    
   125   62   64 1    
   126   62  185 1    
   127   63  186 1    
   128   63  187 1    
   129   63  188 1    
   130   64   65 am   BACKBONE|DICT|INTERRES
   131   64  189 1    
   132   65   66 2    
   133   67   68 2    
   134   67   69 am   BACKBONE|DICT|INTERRES
   135   69   70 1    
   136   69  190 1    
   137   70   71 1    
   138   70   72 1    
   139   70  191 1    
   140   71  192 1    
   141   71  193 1    
   142   71  194 1    
   143   72   73 2    
   144   72   74 am   BACKBONE|DICT|INTERRES
   145   74   75 1    
   146   74  195 1    
   147   75   76 1    
   148   75   77 1    
   149   75  196 1    
   150   76  197 1    
   151   76  198 1    
   152   76  199 1    
   153   77   78 2    
   154   77   79 am   BACKBONE|DICT|INTERRES
   155   79   80 1    
   156   79  200 1    
   157   80   81 1    
   158   80   82 1    
   159   80  201 1    
   160   81  202 1    
   161   81  203 1    
   162   81  204 1    
   163   82   83 2    
   164   82   84 am   BACKBONE|DICT|INTERRES
   165   84   85 1    
   166   84  205 1    
   167   85   86 1    
   168   85   87 1    
   169   85  206 1    
   170   86  207 1    
   171   86  208 1    
   172   86  209 1    
   173   87   88 2    
   174   87   89 am   BACKBONE|DICT|INTERRES
   175   89   90 1    
   176   89  210 1    
   177   90   91 1    
   178   90   92 1    
   179   90  211 1    
   180   91  212 1    
   181   91  213 1    
   182   91  214 1    
   183   92   93 2    
   184   92   94 am   BACKBONE|DICT|INTERRES
   185   94   95 1    
   186   94  215 1    
   187   95   96 1    
   188   95   97 1    
   189   95  216 1    
   190   96  217 1    
   191   96  218 1    
   192   96  219 1    
   193   97   98 2    
   194   97   99 am   BACKBONE|DICT|INTERRES
   195   99  100 1    
   196   99  220 1    
   197  100  101 1    
   198  100  102 1    
   199  100  221 1    
   200  101  222 1    
   201  101  223 1    
   202  101  224 1    
   203  102  103 2    
   204  102  104 am   BACKBONE|DICT|INTERRES
   205  104  105 1    
   206  104  225 1    
   207  105  106 1    
   208  105  107 1    
   209  105  226 1    
   210  106  227 1    
   211  106  228 1    
   212  106  229 1    
   213  107  108 2    
   214  107  109 am   BACKBONE|DICT|INTERRES
   215  109  110 1    
   216  109  230 1    
   217  110  111 1    
   218  110  112 1    
   219  110  231 1    
   220  111  232 1    
   221  111  233 1    
   222  111  234 1    
   223  112  113 2    
   224  112  114 am   BACKBONE|DICT|INTERRES
   225  114  115 1    
   226  114  235 1    
   227  115  116 1    
   228  115  117 1    
   229  115  236 1    
   230  116  237 1    
   231  116  238 1    
   232  116  239 1    
   233  117  118 2    
   234  117  119 am   BACKBONE|DICT|INTERRES
   235  119  120 1    
   236  119  240 1    
   237  120  121 1    
   238  120  124 1    
   239  120  241 1    
   240  121  122 am   BACKBONE|DICT|INTERRES
   241  121  123 2    
   242  122  242 1    
   243  122  243 1    
   244  124  125 1    
   245  124  244 1    
   246  124  245 1    
   247  125  126 1    
   248  126  246 1    
   249  126  247 1    
@<TRIPOS>SUBSTRUCTURE
     1 UNK         1 GROUP             0       ****    0 ROOT    
