@<TRIPOS>MOLECULE
3R540
247   249    1
SMALL
USER_CHARGES


@<TRIPOS>ATOM
      1 CA         -4.0963  -14.8208  -47.3475 C.3       0 UNK        -0.1800 
      2 C          -3.3260  -13.5750  -47.7600 C.2       0 UNK         0.5000 
      3 O          -3.7259  -12.4661  -47.4036 O.2       0 UNK        -0.5000 
      4 N          -2.2322  -13.7473  -48.5127 N.am      1 UNK        -0.5000 
      5 CA         -1.3323  -12.6682  -48.9270 C.3       1 UNK         0.1400 
      6 C6         -0.4399  -13.0756  -50.1295 C.3       23 UNK        -0.0398 
      7 S7          0.7042  -14.4684  -49.8091 S.3       23 UNK        -0.2404 
      8 C8          0.0948  -15.7540  -50.9438 C.3       23 UNK        -0.0205 
      9 C9         -1.2464  -16.3183  -50.5043 C.ar      23 UNK        -0.0193 
     10 C10        -2.4274  -15.8804  -51.1096 C.ar      23 UNK        -0.1150 
     11 C11        -3.6634  -16.4173  -50.7345 C.ar      23 UNK        -0.0193 
     12 C12        -3.7075  -17.3870  -49.7289 C.ar      23 UNK        -0.1150 
     13 C13        -2.5346  -17.8258  -49.1071 C.ar      23 UNK        -0.0193 
     14 C14        -1.3056  -17.2910  -49.5024 C.ar      23 UNK        -0.1150 
     15 C15        -2.6067  -18.8436  -47.9806 C.3       23 UNK        -0.0205 
     16 S16        -3.1104  -20.4850  -48.5737 S.3       23 UNK        -0.2404 
     17 C17        -3.4304  -21.3518  -47.0011 C.3       23 UNK        -0.0398 
     18 CA         -2.2662  -22.2978  -46.6089 C.3       11 UNK         0.1400 
     19 N          -1.2913  -21.6691  -45.7128 N.am      11 UNK        -0.5000 
     20 C          -0.1011  -22.2038  -45.4011 C.2       10 UNK         0.5000 
     21 O           0.3164  -23.2601  -45.8734 O.2       10 UNK        -0.5000 
     22 CA          0.7341  -21.4777  -44.3320 C.3       10 UNK         0.1400 
     23 CB          1.3912  -20.2125  -44.9053 C.3       10 UNK        -0.1800 
     24 N          -0.0577  -21.1445  -43.1473 N.am      10 UNK        -0.5000 
     25 C          -0.6517  -22.0451  -42.3505 C.2       9 UNK         0.5000 
     26 O          -0.5565  -23.2623  -42.5033 O.2       9 UNK        -0.5000 
     27 CA         -1.5380  -21.4978  -41.2194 C.3       9 UNK         0.1400 
     28 CB         -0.7041  -21.1874  -39.9670 C.3       9 UNK        -0.1800 
     29 N          -2.2742  -20.3051  -41.6350 N.am      9 UNK        -0.5000 
     30 C          -3.3130  -20.3159  -42.4818 C.2       8 UNK         0.5000 
     31 O          -3.7840  -21.3412  -42.9746 O.2       8 UNK        -0.5000 
     32 CA         -3.8887  -18.9440  -42.8832 C.3       8 UNK         0.1400 
     33 CB         -4.8427  -18.4152  -41.8020 C.3       8 UNK        -0.1800 
     34 N          -2.8499  -17.9458  -43.1474 N.am      8 UNK        -0.5000 
     35 C          -1.9455  -18.0508  -44.1302 C.2       7 UNK         0.5000 
     36 O          -1.9106  -18.9918  -44.9207 O.2       7 UNK        -0.5000 
     37 CA         -0.8696  -16.9533  -44.2195 C.3       7 UNK         0.1400 
     38 CB         -1.4011  -15.7557  -45.0183 C.3       7 UNK        -0.1800 
     39 N          -0.3416  -16.4865  -42.9330 N.am      7 UNK        -0.5000 
     40 C           0.1324  -17.2598  -41.9446 C.2       6 UNK         0.5000 
     41 O           0.0675  -18.4894  -41.9448 O.2       6 UNK        -0.5000 
     42 CA          0.8348  -16.5168  -40.7894 C.3       6 UNK         0.1400 
     43 CB          1.2829  -17.4556  -39.6492 C.3       6 UNK        -0.1800 
     44 N           1.9588  -15.7100  -41.2809 N.am      6 UNK        -0.5000 
     45 C           3.0258  -16.1535  -41.9629 C.2       5 UNK         0.5000 
     46 O           3.2698  -17.3410  -42.1879 O.2       5 UNK        -0.5000 
     47 CA          3.9669  -15.0792  -42.5346 C.3       5 UNK         0.1400 
     48 CB          5.3942  -15.2349  -41.9859 C.3       5 UNK        -0.1800 
     49 N           3.9934  -15.1777  -43.9930 N.am      5 UNK        -0.5000 
     50 C           2.9688  -14.8407  -44.7855 C.2       4 UNK         0.5000 
     51 O           1.9411  -14.2965  -44.3768 O.2       4 UNK        -0.5000 
     52 CA          3.1151  -15.1726  -46.2782 C.3       4 UNK         0.1400 
     53 CB          1.9927  -16.1064  -46.7600 C.3       4 UNK        -0.1800 
     54 N           3.0896  -13.9404  -47.0576 N.am      4 UNK        -0.5000 
     55 C           4.1688  -13.1888  -47.3122 C.2       3 UNK         0.5000 
     56 O           5.3088  -13.4917  -46.9566 O.2       3 UNK        -0.5000 
     57 CA          3.9515  -11.8816  -48.0990 C.3       3 UNK         0.1400 
     58 CB          4.1804  -12.1156  -49.6002 C.3       3 UNK        -0.1800 
     59 N           2.6220  -11.3032  -47.9083 N.am      3 UNK        -0.5000 
     60 C           2.1883  -10.7246  -46.7793 C.2       2 UNK         0.5000 
     61 O           2.8882  -10.5734  -45.7775 O.2       2 UNK        -0.5000 
     62 CA          0.7282  -10.2246  -46.7682 C.3       2 UNK         0.1400 
     63 CB          0.6796   -8.7029  -46.9762 C.3       2 UNK        -0.1800 
     64 N          -0.1222  -10.8689  -47.7755 N.am      2 UNK        -0.5000 
     65 C          -0.4911  -12.1563  -47.7376 C.2       1 UNK         0.5000 
     66 O          -0.1517  -12.9313  -46.8415 O.2       1 UNK        -0.5000 
     67 C          -2.7951  -23.6320  -46.0480 C.2       11 UNK         0.5000 
     68 O          -2.9489  -24.5727  -46.8251 O.2       11 UNK        -0.5000 
     69 N          -3.0357  -23.7207  -44.7315 N.am      12 UNK        -0.5000 
     70 CA         -3.4570  -24.9601  -44.0717 C.3       12 UNK         0.1400 
     71 CB         -3.8401  -24.6810  -42.6110 C.3       12 UNK        -0.1800 
     72 C          -2.3935  -26.0714  -44.1620 C.2       12 UNK         0.5000 
     73 O          -2.7337  -27.2098  -44.4852 O.2       12 UNK        -0.5000 
     74 N          -1.1252  -25.7127  -43.9195 N.am      13 UNK        -0.5000 
     75 CA          0.0297  -26.6050  -44.0287 C.3       13 UNK         0.1400 
     76 CB          1.2620  -25.9187  -43.4199 C.3       13 UNK        -0.1800 
     77 C           0.3136  -27.0453  -45.4771 C.2       13 UNK         0.5000 
     78 O           0.6246  -28.2144  -45.7072 O.2       13 UNK        -0.5000 
     79 N           0.1881  -26.1083  -46.4262 N.am      14 UNK        -0.5000 
     80 CA          0.4069  -26.3331  -47.8564 C.3       14 UNK         0.1400 
     81 CB          0.6751  -24.9783  -48.5311 C.3       14 UNK        -0.1800 
     82 C          -0.7582  -27.0522  -48.5642 C.2       14 UNK         0.5000 
     83 O          -0.5985  -27.4362  -49.7219 O.2       14 UNK        -0.5000 
     84 N          -1.9125  -27.1824  -47.8933 N.am      15 UNK        -0.5000 
     85 CA         -3.1901  -27.6752  -48.4230 C.3       15 UNK         0.1400 
     86 CB         -3.1042  -29.1718  -48.7882 C.3       15 UNK        -0.1800 
     87 C          -3.7036  -26.7870  -49.5776 C.2       15 UNK         0.5000 
     88 O          -4.0547  -27.2831  -50.6488 O.2       15 UNK        -0.5000 
     89 N          -3.6871  -25.4713  -49.3240 N.am      16 UNK        -0.5000 
     90 CA         -4.0626  -24.3482  -50.1894 C.3       16 UNK         0.1400 
     91 CB         -5.5179  -24.4750  -50.6817 C.3       16 UNK        -0.1800 
     92 C          -3.0845  -24.0608  -51.3469 C.2       16 UNK         0.5000 
     93 O          -3.2950  -23.0882  -52.0703 O.2       16 UNK        -0.5000 
     94 N          -2.0095  -24.8503  -51.4931 N.am      17 UNK        -0.5000 
     95 CA         -1.0116  -24.7016  -52.5605 C.3       17 UNK         0.1400 
     96 CB         -0.1333  -25.9604  -52.6172 C.3       17 UNK        -0.1800 
     97 C          -0.1396  -23.4333  -52.4429 C.2       17 UNK         0.5000 
     98 O           0.5250  -23.0688  -53.4133 O.2       17 UNK        -0.5000 
     99 N          -0.1567  -22.7811  -51.2715 N.am      18 UNK        -0.5000 
    100 CA         0.4973  -21.4952  -51.0269 C.3       18 UNK         0.1400 
    101 CB         0.6335  -21.2755  -49.5110 C.3       18 UNK        -0.1800 
    102 C         -0.2328  -20.3080  -51.6893 C.2       18 UNK         0.5000 
    103 O          0.3986  -19.2749  -51.9151 O.2       18 UNK        -0.5000 
    104 N         -1.5305  -20.4642  -51.9916 N.am      19 UNK        -0.5000 
    105 CA        -2.3406  -19.4546  -52.6686 C.3       19 UNK         0.1400 
    106 CB        -3.8275  -19.7642  -52.4522 C.3       19 UNK        -0.1800 
    107 C         -2.0199  -19.3935  -54.1712 C.2       19 UNK         0.5000 
    108 O         -1.7395  -20.4254  -54.7858 O.2       19 UNK        -0.5000 
    109 N         -2.0924  -18.1855  -54.7429 N.am      20 UNK        -0.5000 
    110 CA        -1.8136  -17.9299  -56.1585 C.3       20 UNK         0.1400 
    111 CB        -1.5495  -16.4279  -56.3459 C.3       20 UNK        -0.1800 
    112 C         -2.9441  -18.3961  -57.0974 C.2       20 UNK         0.5000 
    113 O         -2.6662  -18.7786  -58.2341 O.2       20 UNK        -0.5000 
    114 N         -4.1846  -18.3460  -56.5972 N.am      21 UNK        -0.5000 
    115 CA        -5.4534  -18.6651  -57.2664 C.3       21 UNK         0.1400 
    116 CB        -5.6185  -17.8992  -58.5971 C.3       21 UNK        -0.1800 
    117 C         -6.6277  -18.3138  -56.3354 C.2       21 UNK         0.5000 
    118 O         -7.6785  -18.9522  -56.4029 O.2       21 UNK        -0.5000 
    119 N         -6.4102  -17.2993  -55.4892 N.am      22 UNK        -0.5000 
    120 CA        -7.2698  -16.8223  -54.3972 C.3       22 UNK         0.1400 
    121 C         -7.7253  -17.9135  -53.3825 C.2       22 UNK         0.5000 
    122 N         -8.8293  -17.6863  -52.6832 N.am      22 UNK        -0.7600 
    123 O         -7.0831  -18.9436  -53.1974 O.2       22 UNK        -0.5000 
    124 C124       -6.5918  -15.6225  -53.6781 C.3       23 UNK        -0.0398 
    125 S125       -4.8481  -15.9354  -53.2090 S.3       23 UNK        -0.2404 
    126 C126       -4.9543  -15.9428  -51.3910 C.3       23 UNK        -0.0205 
    127 H127       -4.9952  -14.9262  -47.9547 H         1 UNK         0.0600 
    128 H128       -4.3934  -14.7532  -46.3010 H         1 UNK         0.0600 
    129 H129       -3.4951  -15.7200  -47.4656 H         1 UNK         0.0600 
    130 H130       -1.9335  -14.6796  -48.7643 H         1 UNK         0.3000 
    131 H131       -1.9586  -11.8384  -49.2621 H         1 UNK         0.0600 
    132 H132        0.1592  -12.2239  -50.4552 H         1 UNK         0.0800 
    133 H133       -1.0729  -13.3136  -50.9840 H         1 UNK         0.0800 
    134 H134        0.8270  -16.5620  -50.9837 H         1 UNK         0.0800 
    135 H135        0.0342  -15.3526  -51.9565 H         1 UNK         0.0800 
    136 H136       -2.3860  -15.1266  -51.8828 H         1 UNK         0.1150 
    137 H137       -4.6570  -17.8017  -49.4206 H         1 UNK         0.1150 
    138 H138       -0.3928  -17.6264  -49.0302 H         1 UNK         0.1150 
    139 H139       -1.6387  -18.9340  -47.4865 H         1 UNK         0.0800 
    140 H140       -3.3143  -18.4883  -47.2304 H         1 UNK         0.0800 
    141 H141       -4.3605  -21.9022  -47.1577 H         1 UNK         0.0800 
    142 H142       -3.6504  -20.6413  -46.2031 H         1 UNK         0.0800 
    143 H143       -1.7248  -22.5691  -47.5173 H         1 UNK         0.0600 
    144 H144       -1.5516  -20.7737  -45.3048 H         1 UNK         0.3000 
    145 H145        1.5290  -22.1547  -44.0123 H         1 UNK         0.0600 
    146 H146        1.9448  -19.6688  -44.1391 H         1 UNK         0.0600 
    147 H147        2.0951  -20.4694  -45.6976 H         1 UNK         0.0600 
    148 H148        0.6574  -19.5331  -45.3357 H         1 UNK         0.0600 
    149 H149       -0.1486  -20.1607  -42.9109 H         1 UNK         0.3000 
    150 H150       -2.2621  -22.2709  -40.9551 H         1 UNK         0.0600 
    151 H151       -0.1999  -22.0846  -39.6062 H         1 UNK         0.0600 
    152 H152       -1.3319  -20.8186  -39.1558 H         1 UNK         0.0600 
    153 H153        0.0643  -20.4397  -40.1636 H         1 UNK         0.0600 
    154 H154       -1.8776  -19.4158  -41.3628 H         1 UNK         0.3000 
    155 H155       -4.4606  -19.0831  -43.8032 H         1 UNK         0.0600 
    156 H156       -4.3224  -18.2231  -40.8628 H         1 UNK         0.0600 
    157 H157       -5.6363  -19.1349  -41.5966 H         1 UNK         0.0600 
    158 H158       -5.3205  -17.4875  -42.1174 H         1 UNK         0.0600 
    159 H159       -2.8039  -17.1502  -42.5282 H         1 UNK         0.3000 
    160 H160       -0.0236  -17.3699  -44.7662 H         1 UNK         0.0600 
    161 H161       -2.2947  -15.3268  -44.5636 H         1 UNK         0.0600 
    162 H162       -1.6540  -16.0551  -46.0354 H         1 UNK         0.0600 
    163 H163       -0.6556  -14.9647  -45.0938 H         1 UNK         0.0600 
    164 H164       -0.2045  -15.4886  -42.8570 H         1 UNK         0.3000 
    165 H165        0.1039  -15.8214  -40.3743 H         1 UNK         0.0600 
    166 H166        1.9895  -18.2112  -39.9938 H         1 UNK         0.0600 
    167 H167        1.7571  -16.8971  -38.8424 H         1 UNK         0.0600 
    168 H168        0.4285  -17.9816  -39.2219 H         1 UNK         0.0600 
    169 H169        1.8494  -14.7108  -41.1758 H         1 UNK         0.3000 
    170 H170        3.6018  -14.0882  -42.2564 H         1 UNK         0.0600 
    171 H171        5.8278  -16.1999  -42.2515 H         1 UNK         0.0600 
    172 H172        6.0515  -14.4548  -42.3705 H         1 UNK         0.0600 
    173 H173        5.4023  -15.1599  -40.8978 H         1 UNK         0.0600 
    174 H174        4.7998  -15.6317  -44.3966 H         1 UNK         0.3000 
    175 H175        4.0631  -15.6906  -46.4395 H         1 UNK         0.0600 
    176 H176        1.0153  -15.6271  -46.7014 H         1 UNK         0.0600 
    177 H177        2.1510  -16.4073  -47.7956 H         1 UNK         0.0600 
    178 H178        1.9558  -17.0162  -46.1600 H         1 UNK         0.0600 
    179 H179        2.1747  -13.5952  -47.3160 H         1 UNK         0.3000 
    180 H180        4.6917  -11.1588  -47.7494 H         1 UNK         0.0600 
    181 H181        4.1016  -11.1848  -50.1621 H         1 UNK         0.0600 
    182 H182        3.4572  -12.8204  -50.0129 H         1 UNK         0.0600 
    183 H183        5.1758  -12.5219  -49.7848 H         1 UNK         0.0600 
    184 H184        1.9817  -11.3750  -48.6840 H         1 UNK         0.3000 
    185 H185        0.3156  -10.4480  -45.7819 H         1 UNK         0.0600 
    186 H186       -0.3397   -8.3251  -46.8937 H         1 UNK         0.0600 
    187 H187        1.2773   -8.1861  -46.2240 H         1 UNK         0.0600 
    188 H188        1.0668   -8.4177  -47.9552 H         1 UNK         0.0600 
    189 H189       -0.4359  -10.2838  -48.5368 H         1 UNK         0.3000 
    190 H190       -2.9363  -22.8992  -44.1462 H         1 UNK         0.3000 
    191 H191       -4.3511  -25.3190  -44.5861 H         1 UNK         0.0600 
    192 H192       -4.1962  -25.5887  -42.1223 H         1 UNK         0.0600 
    193 H193       -4.6399  -23.9432  -42.5465 H         1 UNK         0.0600 
    194 H194       -2.9938  -24.3109  -42.0338 H         1 UNK         0.0600 
    195 H195       -0.9351  -24.7608  -43.6154 H         1 UNK         0.3000 
    196 H196       -0.1823  -27.5025  -43.4439 H         1 UNK         0.0600 
    197 H197        1.5030  -24.9904  -43.9394 H         1 UNK         0.0600 
    198 H198        1.0994  -25.6791  -42.3689 H         1 UNK         0.0600 
    199 H199        2.1385  -26.5653  -43.4753 H         1 UNK         0.0600 
    200 H200       -0.0048  -25.1503  -46.1456 H         1 UNK         0.3000 
    201 H201        1.2960  -26.9549  -47.9787 H         1 UNK         0.0600 
    202 H202        0.9116  -25.1017  -49.5877 H         1 UNK         0.0600 
    203 H203       -0.1898  -24.3182  -48.4600 H         1 UNK         0.0600 
    204 H204        1.5231  -24.4706  -48.0714 H         1 UNK         0.0600 
    205 H205       -1.9516  -26.7914  -46.9611 H         1 UNK         0.3000 
    206 H206       -3.9145  -27.5758  -47.6132 H         1 UNK         0.0600 
    207 H207       -2.7465  -29.7619  -47.9445 H         1 UNK         0.0600 
    208 H208       -4.0849  -29.5604  -49.0643 H         1 UNK         0.0600 
    209 H209       -2.4352  -29.3506  -49.6303 H         1 UNK         0.0600 
    210 H210       -3.3664  -25.1927  -48.3956 H         1 UNK         0.3000 
    211 H211       -4.0178  -23.4674  -49.5473 H         1 UNK         0.0600 
    212 H212       -5.8401  -23.5614  -51.1827 H         1 UNK         0.0600 
    213 H213       -6.2023  -24.6463  -49.8508 H         1 UNK         0.0600 
    214 H214       -5.6381  -25.2926  -51.3925 H         1 UNK         0.0600 
    215 H215       -1.9001  -25.6440  -50.8764 H         1 UNK         0.3000 
    216 H216       -1.5515  -24.6297  -53.5070 H         1 UNK         0.0600 
    217 H217        0.4927  -26.0565  -51.7307 H         1 UNK         0.0600 
    218 H218        0.5313  -25.9324  -53.4816 H         1 UNK         0.0600 
    219 H219       -0.7379  -26.8636  -52.7020 H         1 UNK         0.0600 
    220 H220       -0.7289  -23.1518  -50.5292 H         1 UNK         0.3000 
    221 H221        1.5029  -21.5349  -51.4510 H         1 UNK         0.0600 
    222 H222        1.2361  -22.0573  -49.0491 H         1 UNK         0.0600 
    223 H223       -0.3357  -21.2632  -49.0158 H         1 UNK         0.0600 
    224 H224        1.1199  -20.3231  -49.2959 H         1 UNK         0.0600 
    225 H225       -1.9718  -21.3632  -51.8445 H         1 UNK         0.3000 
    226 H226       -2.1230  -18.4849  -52.2206 H         1 UNK         0.0600 
    227 H227       -4.0681  -19.8490  -51.3931 H         1 UNK         0.0600 
    228 H228       -4.4475  -18.9666  -52.8602 H         1 UNK         0.0600 
    229 H229       -4.1255  -20.6922  -52.9406 H         1 UNK         0.0600 
    230 H230       -2.3299  -17.3845  -54.1749 H         1 UNK         0.3000 
    231 H231       -0.9066  -18.4709  -56.4371 H         1 UNK         0.0600 
    232 H232       -2.4147  -15.8273  -56.0620 H         1 UNK         0.0600 
    233 H233       -1.3180  -16.1988  -57.3869 H         1 UNK         0.0600 
    234 H234       -0.7009  -16.0988  -55.7457 H         1 UNK         0.0600 
    235 H235       -4.2726  -18.1075  -55.6197 H         1 UNK         0.3000 
    236 H236       -5.4818  -19.7390  -57.4589 H         1 UNK         0.0600 
    237 H237       -4.9238  -18.2519  -59.3583 H         1 UNK         0.0600 
    238 H238       -6.6211  -18.0347  -59.0054 H         1 UNK         0.0600 
    239 H239       -5.4604  -16.8281  -58.4663 H         1 UNK         0.0600 
    240 H240       -5.5339  -16.8064  -55.5641 H         1 UNK         0.3000 
    241 H241       -8.1788  -16.4532  -54.8754 H         1 UNK         0.0600 
    242 H242       -9.1324  -18.3788  -52.0162 H         1 UNK         0.3800 
    243 H243       -9.3804  -16.8517  -52.8122 H         1 UNK         0.3800 
    244 H244       -7.1673  -15.3046  -52.8070 H         1 UNK         0.0800 
    245 H245       -6.5928  -14.7620  -54.3484 H         1 UNK         0.0800 
    246 H246       -5.7868  -16.5822  -51.0926 H         1 UNK         0.0800 
    247 H247       -5.1844  -14.9371  -51.0370 H         1 UNK         0.0800 
@<TRIPOS>BOND
     1    1    2 1    
     2    1  127 1    
     3    1  128 1    
     4    1  129 1    
     5    2    3 2    
     6    2    4 am   BACKBONE|DICT|INTERRES
     7    4    5 1    
     8    4  130 1    
     9    5    6 1    
    10    5   65 1    
    11    5  131 1    
    12    6    7 1    
    13    6  132 1    
    14    6  133 1    
    15    7    8 1    
    16    8    9 1    
    17    8  134 1    
    18    8  135 1    
    19    9   10 ar   
    20    9   14 ar   
    21   10   11 ar   
    22   10  136 1    
    23   11   12 ar   
    24   11  126 1    
    25   12   13 ar   
    26   12  137 1    
    27   13   14 ar   
    28   13   15 1    
    29   14  138 1    
    30   15   16 1    
    31   15  139 1    
    32   15  140 1    
    33   16   17 1    
    34   17   18 1    
    35   17  141 1    
    36   17  142 1    
    37   18   19 1    
    38   18   67 1    
    39   18  143 1    
    40   19   20 am   BACKBONE|DICT|INTERRES
    41   19  144 1    
    42   20   21 2    
    43   20   22 1    
    44   22   23 1    
    45   22   24 1    
    46   22  145 1    
    47   23  146 1    
    48   23  147 1    
    49   23  148 1    
    50   24   25 am   BACKBONE|DICT|INTERRES
    51   24  149 1    
    52   25   26 2    
    53   25   27 1    
    54   27   28 1    
    55   27   29 1    
    56   27  150 1    
    57   28  151 1    
    58   28  152 1    
    59   28  153 1    
    60   29   30 am   BACKBONE|DICT|INTERRES
    61   29  154 1    
    62   30   31 2    
    63   30   32 1    
    64   32   33 1    
    65   32   34 1    
    66   32  155 1    
    67   33  156 1    
    68   33  157 1    
    69   33  158 1    
    70   34   35 am   BACKBONE|DICT|INTERRES
    71   34  159 1    
    72   35   36 2    
    73   35   37 1    
    74   37   38 1    
    75   37   39 1    
    76   37  160 1    
    77   38  161 1    
    78   38  162 1    
    79   38  163 1    
    80   39   40 am   BACKBONE|DICT|INTERRES
    81   39  164 1    
    82   40   41 2    
    83   40   42 1    
    84   42   43 1    
    85   42   44 1    
    86   42  165 1    
    87   43  166 1    
    88   43  167 1    
    89   43  168 1    
    90   44   45 am   BACKBONE|DICT|INTERRES
    91   44  169 1    
    92   45   46 2    
    93   45   47 1    
    94   47   48 1    
    95   47   49 1    
    96   47  170 1    
    97   48  171 1    
    98   48  172 1    
    99   48  173 1    
   100   49   50 am   BACKBONE|DICT|INTERRES
   101   49  174 1    
   102   50   51 2    
   103   50   52 1    
   104   52   53 1    
   105   52   54 1    
   106   52  175 1    
   107   53  176 1    
   108   53  177 1    
   109   53  178 1    
   110   54   55 am   BACKBONE|DICT|INTERRES
   111   54  179 1    
   112   55   56 2    
   113   55   57 1    
   114   57   58 1    
   115   57   59 1    
   116   57  180 1    
   117   58  181 1    
   118   58  182 1    
   119   58  183 1    
   120   59   60 am   BACKBONE|DICT|INTERRES
   121   59  184 1    
   122   60   61 2    
   123   60   62 1    
   124   62   63 1    
   125   62   64 1    
   126   62  185 1    
   127   63  186 1    
   128   63  187 1    
   129   63  188 1    
   130   64   65 am   BACKBONE|DICT|INTERRES
   131   64  189 1    
   132   65   66 2    
   133   67   68 2    
   134   67   69 am   BACKBONE|DICT|INTERRES
   135   69   70 1    
   136   69  190 1    
   137   70   71 1    
   138   70   72 1    
   139   70  191 1    
   140   71  192 1    
   141   71  193 1    
   142   71  194 1    
   143   72   73 2    
   144   72   74 am   BACKBONE|DICT|INTERRES
   145   74   75 1    
   146   74  195 1    
   147   75   76 1    
   148   75   77 1    
   149   75  196 1    
   150   76  197 1    
   151   76  198 1    
   152   76  199 1    
   153   77   78 2    
   154   77   79 am   BACKBONE|DICT|INTERRES
   155   79   80 1    
   156   79  200 1    
   157   80   81 1    
   158   80   82 1    
   159   80  201 1    
   160   81  202 1    
   161   81  203 1    
   162   81  204 1    
   163   82   83 2    
   164   82   84 am   BACKBONE|DICT|INTERRES
   165   84   85 1    
   166   84  205 1    
   167   85   86 1    
   168   85   87 1    
   169   85  206 1    
   170   86  207 1    
   171   86  208 1    
   172   86  209 1    
   173   87   88 2    
   174   87   89 am   BACKBONE|DICT|INTERRES
   175   89   90 1    
   176   89  210 1    
   177   90   91 1    
   178   90   92 1    
   179   90  211 1    
   180   91  212 1    
   181   91  213 1    
   182   91  214 1    
   183   92   93 2    
   184   92   94 am   BACKBONE|DICT|INTERRES
   185   94   95 1    
   186   94  215 1    
   187   95   96 1    
   188   95   97 1    
   189   95  216 1    
   190   96  217 1    
   191   96  218 1    
   192   96  219 1    
   193   97   98 2    
   194   97   99 am   BACKBONE|DICT|INTERRES
   195   99  100 1    
   196   99  220 1    
   197  100  101 1    
   198  100  102 1    
   199  100  221 1    
   200  101  222 1    
   201  101  223 1    
   202  101  224 1    
   203  102  103 2    
   204  102  104 am   BACKBONE|DICT|INTERRES
   205  104  105 1    
   206  104  225 1    
   207  105  106 1    
   208  105  107 1    
   209  105  226 1    
   210  106  227 1    
   211  106  228 1    
   212  106  229 1    
   213  107  108 2    
   214  107  109 am   BACKBONE|DICT|INTERRES
   215  109  110 1    
   216  109  230 1    
   217  110  111 1    
   218  110  112 1    
   219  110  231 1    
   220  111  232 1    
   221  111  233 1    
   222  111  234 1    
   223  112  113 2    
   224  112  114 am   BACKBONE|DICT|INTERRES
   225  114  115 1    
   226  114  235 1    
   227  115  116 1    
   228  115  117 1    
   229  115  236 1    
   230  116  237 1    
   231  116  238 1    
   232  116  239 1    
   233  117  118 2    
   234  117  119 am   BACKBONE|DICT|INTERRES
   235  119  120 1    
   236  119  240 1    
   237  120  121 1    
   238  120  124 1    
   239  120  241 1    
   240  121  122 am   BACKBONE|DICT|INTERRES
   241  121  123 2    
   242  122  242 1    
   243  122  243 1    
   244  124  125 1    
   245  124  244 1    
   246  124  245 1    
   247  125  126 1    
   248  126  246 1    
   249  126  247 1    
@<TRIPOS>SUBSTRUCTURE
     1 UNK         1 GROUP             0       ****    0 ROOT    
