@<TRIPOS>MOLECULE
3R540
247   249    1
SMALL
USER_CHARGES


@<TRIPOS>ATOM
      1 CA          0.4533   -7.4630  -48.9747 C.3       0 UNK        -0.1800 
      2 C           1.0380   -8.6837  -48.2785 C.2       0 UNK         0.5000 
      3 O           2.0943   -8.5866  -47.6522 O.2       0 UNK        -0.5000 
      4 N           0.3567   -9.8322  -48.3786 N.am      1 UNK        -0.5000 
      5 CA          0.7399  -11.1043  -47.7586 C.3       1 UNK         0.1400 
      6 C6          0.1760  -12.3074  -48.5568 C.3       23 UNK        -0.0398 
      7 S7          1.1433  -13.8256  -48.2630 S.3       23 UNK        -0.2404 
      8 C8          0.9756  -14.6844  -49.8667 C.3       23 UNK        -0.0205 
      9 C9         -0.3722  -15.3594  -50.1356 C.ar      23 UNK        -0.0193 
     10 C10        -0.5381  -16.0357  -51.3483 C.ar      23 UNK        -0.1150 
     11 C11        -1.7248  -16.7166  -51.6355 C.ar      23 UNK        -0.0193 
     12 C12        -2.7683  -16.7021  -50.7075 C.ar      23 UNK        -0.1150 
     13 C13        -2.6238  -16.0280  -49.4934 C.ar      23 UNK        -0.0193 
     14 C14        -1.4284  -15.3622  -49.2135 C.ar      23 UNK        -0.1150 
     15 C15        -3.7500  -16.0169  -48.4740 C.3       23 UNK        -0.0205 
     16 S16        -3.6477  -17.4521  -47.3636 S.3       23 UNK        -0.2404 
     17 C17        -4.8061  -18.6180  -48.1608 C.3       23 UNK        -0.0398 
     18 CA         -4.4951  -20.1097  -47.8949 C.3       11 UNK         0.1400 
     19 N          -3.2037  -20.5225  -48.4544 N.am      11 UNK        -0.5000 
     20 C          -2.7839  -21.7925  -48.5305 C.2       10 UNK         0.5000 
     21 O          -3.4804  -22.7556  -48.2079 O.2       10 UNK        -0.5000 
     22 CA         -1.3362  -22.0431  -48.9890 C.3       10 UNK         0.1400 
     23 CB         -1.3149  -22.4579  -50.4651 C.3       10 UNK        -0.1800 
     24 N          -0.4089  -20.9254  -48.7822 N.am      10 UNK        -0.5000 
     25 C          -0.1189  -20.3574  -47.6035 C.2       9 UNK         0.5000 
     26 O          -0.7135  -20.6125  -46.5529 O.2       9 UNK        -0.5000 
     27 CA          1.0017  -19.3056  -47.6153 C.3       9 UNK         0.1400 
     28 CB          0.4277  -17.9206  -47.9300 C.3       9 UNK        -0.1800 
     29 N           1.7099  -19.2633  -46.3369 N.am      9 UNK        -0.5000 
     30 C           2.5624  -20.2117  -45.9226 C.2       8 UNK         0.5000 
     31 O           2.8762  -21.1864  -46.6078 O.2       8 UNK        -0.5000 
     32 CA          3.1889  -20.0545  -44.5265 C.3       8 UNK         0.1400 
     33 CB          4.5861  -19.4285  -44.6408 C.3       8 UNK        -0.1800 
     34 N           2.3668  -19.2436  -43.6285 N.am      8 UNK        -0.5000 
     35 C           1.4254  -19.7357  -42.8131 C.2       7 UNK         0.5000 
     36 O           1.1675  -20.9374  -42.7283 O.2       7 UNK        -0.5000 
     37 CA          0.6308  -18.7251  -41.9553 C.3       7 UNK         0.1400 
     38 CB          0.1033  -19.3398  -40.6425 C.3       7 UNK        -0.1800 
     39 N           1.3285  -17.4636  -41.6893 N.am      7 UNK        -0.5000 
     40 C           2.4801  -17.2711  -41.0311 C.2       6 UNK         0.5000 
     41 O           3.1465  -18.1736  -40.5210 O.2       6 UNK        -0.5000 
     42 CA          2.9583  -15.8033  -40.9650 C.3       6 UNK         0.1400 
     43 CB          4.3382  -15.6345  -40.2957 C.3       6 UNK        -0.1800 
     44 N           2.9277  -15.1615  -42.2855 N.am      6 UNK        -0.5000 
     45 C           3.6023  -15.5395  -43.3823 C.2       5 UNK         0.5000 
     46 O           4.4577  -16.4237  -43.3912 O.2       5 UNK        -0.5000 
     47 CA          3.2097  -14.8271  -44.6933 C.3       5 UNK         0.1400 
     48 CB          3.8040  -15.4929  -45.9534 C.3       5 UNK        -0.1800 
     49 N           1.7564  -14.6724  -44.8153 N.am      5 UNK        -0.5000 
     50 C           0.8366  -15.6487  -44.8678 C.2       4 UNK         0.5000 
     51 O           1.1103  -16.8497  -44.8797 O.2       4 UNK        -0.5000 
     52 CA         -0.6366  -15.1867  -44.8404 C.3       4 UNK         0.1400 
     53 CB         -1.6313  -16.3366  -44.5712 C.3       4 UNK        -0.1800 
     54 N          -0.8503  -14.0824  -43.8959 N.am      4 UNK        -0.5000 
     55 C          -0.6193  -14.1107  -42.5725 C.2       3 UNK         0.5000 
     56 O          -0.2536  -15.1204  -41.9699 O.2       3 UNK        -0.5000 
     57 CA         -0.7700  -12.7793  -41.8037 C.3       3 UNK         0.1400 
     58 CB          0.0109  -12.7742  -40.4721 C.3       3 UNK        -0.1800 
     59 N          -0.4173  -11.5991  -42.6019 N.am      3 UNK        -0.5000 
     60 C           0.7492  -11.3594  -43.2177 C.2       2 UNK         0.5000 
     61 O           1.7183  -12.1224  -43.1963 O.2       2 UNK        -0.5000 
     62 CA          0.8189  -10.0609  -44.0409 C.3       2 UNK         0.1400 
     63 CB          1.9247   -9.1365  -43.5093 C.3       2 UNK        -0.1800 
     64 N           1.0444  -10.3040  -45.4668 N.am      2 UNK        -0.5000 
     65 C           0.3324  -11.1097  -46.2672 C.2       1 UNK         0.5000 
     66 O          -0.6253  -11.7859  -45.8828 O.2       1 UNK        -0.5000 
     67 C          -4.6558  -20.4856  -46.4024 C.2       11 UNK         0.5000 
     68 O          -5.7760  -20.7481  -45.9639 O.2       11 UNK        -0.5000 
     69 N          -3.5350  -20.5388  -45.6708 N.am      12 UNK        -0.5000 
     70 CA         -3.4602  -20.9565  -44.2766 C.3       12 UNK         0.1400 
     71 CB         -2.6115  -19.9393  -43.4980 C.3       12 UNK        -0.1800 
     72 C          -2.8555  -22.3646  -44.1710 C.2       12 UNK         0.5000 
     73 O          -3.4429  -23.2289  -43.5211 O.2       12 UNK        -0.5000 
     74 N          -1.7023  -22.5763  -44.8210 N.am      13 UNK        -0.5000 
     75 CA         -0.8810  -23.7836  -44.7047 C.3       13 UNK         0.1400 
     76 CB          0.4924  -23.5209  -45.3402 C.3       13 UNK        -0.1800 
     77 C          -1.5174  -25.0465  -45.3115 C.2       13 UNK         0.5000 
     78 O          -1.2589  -26.1445  -44.8171 O.2       13 UNK        -0.5000 
     79 N          -2.3332  -24.8724  -46.3579 N.am      14 UNK        -0.5000 
     80 CA         -3.0601  -25.9427  -47.0430 C.3       14 UNK         0.1400 
     81 CB         -2.5488  -26.0460  -48.4919 C.3       14 UNK        -0.1800 
     82 C          -4.5799  -25.7029  -46.9985 C.2       14 UNK         0.5000 
     83 O          -5.3114  -26.3531  -47.7438 O.2       14 UNK        -0.5000 
     84 N          -5.0344  -24.7526  -46.1648 N.am      15 UNK        -0.5000 
     85 CA         -6.4286  -24.3228  -45.9888 C.3       15 UNK         0.1400 
     86 CB         -7.2225  -25.4058  -45.2300 C.3       15 UNK        -0.1800 
     87 C          -7.1190  -23.8911  -47.3048 C.2       15 UNK         0.5000 
     88 O          -8.3228  -24.0976  -47.4657 O.2       15 UNK        -0.5000 
     89 N          -6.3282  -23.3250  -48.2291 N.am      16 UNK        -0.5000 
     90 CA         -6.6893  -22.8900  -49.5811 C.3       16 UNK         0.1400 
     91 CB         -7.8154  -21.8342  -49.5600 C.3       16 UNK        -0.1800 
     92 C          -6.9723  -24.0391  -50.5712 C.2       16 UNK         0.5000 
     93 O          -7.4384  -23.7685  -51.6784 O.2       16 UNK        -0.5000 
     94 N          -6.6359  -25.2891  -50.2146 N.am      17 UNK        -0.5000 
     95 CA         -6.7334  -26.4441  -51.1160 C.3       17 UNK         0.1400 
     96 CB         -6.6337  -27.7444  -50.3049 C.3       17 UNK        -0.1800 
     97 C          -5.6658  -26.4228  -52.2290 C.2       17 UNK         0.5000 
     98 O          -5.8774  -27.0227  -53.2833 O.2       17 UNK        -0.5000 
     99 N          -4.5538  -25.7190  -51.9787 N.am      18 UNK        -0.5000 
    100 CA        -3.4409  -25.5162  -52.9051 C.3       18 UNK         0.1400 
    101 CB        -2.1621  -26.1198  -52.2964 C.3       18 UNK        -0.1800 
    102 C         -3.2776  -24.0232  -53.2500 C.2       18 UNK         0.5000 
    103 O         -2.1619  -23.5740  -53.5097 O.2       18 UNK        -0.5000 
    104 N         -4.3855  -23.2656  -53.2693 N.am      19 UNK        -0.5000 
    105 CA        -4.4160  -21.8225  -53.5530 C.3       19 UNK         0.1400 
    106 CB        -5.8299  -21.2842  -53.2880 C.3       19 UNK        -0.1800 
    107 C         -3.9370  -21.4211  -54.9670 C.2       19 UNK         0.5000 
    108 O         -3.6758  -20.2428  -55.2061 O.2       19 UNK        -0.5000 
    109 N         -3.8189  -22.3952  -55.8775 N.am      20 UNK        -0.5000 
    110 CA        -3.2158  -22.2252  -57.1980 C.3       20 UNK         0.1400 
    111 CB        -3.7437  -23.3331  -58.1233 C.3       20 UNK        -0.1800 
    112 C         -1.6723  -22.2447  -57.1659 C.2       20 UNK         0.5000 
    113 O         -1.0543  -21.7771  -58.1235 O.2       20 UNK        -0.5000 
    114 N         -1.0715  -22.8072  -56.1053 N.am      21 UNK        -0.5000 
    115 CA         0.3768  -22.9859  -55.9847 C.3       21 UNK         0.1400 
    116 CB         0.6697  -24.2029  -55.0923 C.3       21 UNK        -0.1800 
    117 C          1.0905  -21.7374  -55.4389 C.2       21 UNK         0.5000 
    118 O          2.2400  -21.4945  -55.8106 O.2       21 UNK        -0.5000 
    119 N          0.4181  -20.9796  -54.5631 N.am      22 UNK        -0.5000 
    120 CA         0.9265  -19.7213  -53.9957 C.3       22 UNK         0.1400 
    121 C          0.9326  -18.5396  -55.0087 C.2       22 UNK         0.5000 
    122 N          1.7296  -17.5092  -54.7566 N.am      22 UNK        -0.7600 
    123 O          0.2117  -18.5286  -56.0040 O.2       22 UNK        -0.5000 
    124 C124        0.2257  -19.3559  -52.6594 C.3       23 UNK        -0.0398 
    125 S125       -1.5953  -19.2532  -52.7489 S.3       23 UNK        -0.2404 
    126 C126       -1.8871  -17.4669  -52.9476 C.3       23 UNK        -0.0205 
    127 H127       -0.4788   -7.6970  -49.4895 H         1 UNK         0.0600 
    128 H128        1.1596   -7.0762  -49.7092 H         1 UNK         0.0600 
    129 H129        0.2520   -6.6771  -48.2468 H         1 UNK         0.0600 
    130 H130       -0.5215   -9.8380  -48.8782 H         1 UNK         0.3000 
    131 H131        1.8299  -11.1723  -47.7950 H         1 UNK         0.0600 
    132 H132       -0.8787  -12.4865  -48.3424 H         1 UNK         0.0800 
    133 H133        0.2251  -12.0878  -49.6241 H         1 UNK         0.0800 
    134 H134        1.7493  -15.4523  -49.9073 H         1 UNK         0.0800 
    135 H135        1.1991  -13.9860  -50.6744 H         1 UNK         0.0800 
    136 H136        0.2684  -16.0438  -52.0682 H         1 UNK         0.1150 
    137 H137       -3.6881  -17.2234  -50.9303 H         1 UNK         0.1150 
    138 H138       -1.3315  -14.8656  -48.2608 H         1 UNK         0.1150 
    139 H139       -3.6940  -15.1087  -47.8720 H         1 UNK         0.0800 
    140 H140       -4.7197  -15.9864  -48.9731 H         1 UNK         0.0800 
    141 H141       -4.8053  -18.4439  -49.2369 H         1 UNK         0.0800 
    142 H142       -5.8167  -18.3781  -47.8258 H         1 UNK         0.0800 
    143 H143       -5.2545  -20.6784  -48.4293 H         1 UNK         0.0600 
    144 H144       -2.5687  -19.7823  -48.7158 H         1 UNK         0.3000 
    145 H145       -0.9612  -22.8830  -48.4016 H         1 UNK         0.0600 
    146 H146       -0.3102  -22.7231  -50.7947 H         1 UNK         0.0600 
    147 H147       -1.9477  -23.3294  -50.6288 H         1 UNK         0.0600 
    148 H148       -1.6852  -21.6649  -51.1133 H         1 UNK         0.0600 
    149 H149        0.1101  -20.6317  -49.5958 H         1 UNK         0.3000 
    150 H150        1.7201  -19.5644  -48.3959 H         1 UNK         0.0600 
    151 H151       -0.0316  -17.9130  -48.9186 H         1 UNK         0.0600 
    152 H152        1.2043  -17.1556  -47.9224 H         1 UNK         0.0600 
    153 H153       -0.3387  -17.6269  -47.2139 H         1 UNK         0.0600 
    154 H154        1.4812  -18.4904  -45.7164 H         1 UNK         0.3000 
    155 H155        3.3091  -21.0544  -44.1042 H         1 UNK         0.0600 
    156 H156        4.5521  -18.4558  -45.1312 H         1 UNK         0.0600 
    157 H157        5.2513  -20.0650  -45.2255 H         1 UNK         0.0600 
    158 H158        5.0416  -19.2944  -43.6594 H         1 UNK         0.0600 
    159 H159        2.4822  -18.2394  -43.6802 H         1 UNK         0.3000 
    160 H160       -0.2353  -18.4517  -42.5562 H         1 UNK         0.0600 
    161 H161        0.9165  -19.6814  -40.0017 H         1 UNK         0.0600 
    162 H162       -0.5395  -20.1984  -40.8392 H         1 UNK         0.0600 
    163 H163       -0.4881  -18.6175  -40.0798 H         1 UNK         0.0600 
    164 H164        0.8434  -16.6323  -42.0202 H         1 UNK         0.3000 
    165 H165        2.2298  -15.2731  -40.3499 H         1 UNK         0.0600 
    166 H166        5.1191  -16.1812  -40.8247 H         1 UNK         0.0600 
    167 H167        4.6307  -14.5854  -40.2563 H         1 UNK         0.0600 
    168 H168        4.3197  -16.0052  -39.2702 H         1 UNK         0.0600 
    169 H169        2.2435  -14.4246  -42.3964 H         1 UNK         0.3000 
    170 H170        3.6229  -13.8197  -44.6270 H         1 UNK         0.0600 
    171 H171        4.8914  -15.5466  -45.8921 H         1 UNK         0.0600 
    172 H172        3.4342  -16.5084  -46.0943 H         1 UNK         0.0600 
    173 H173        3.5615  -14.9235  -46.8497 H         1 UNK         0.0600 
    174 H174        1.4244  -13.7206  -44.7266 H         1 UNK         0.3000 
    175 H175       -0.8473  -14.7933  -45.8356 H         1 UNK         0.0600 
    176 H176       -1.5145  -16.7576  -43.5740 H         1 UNK         0.0600 
    177 H177       -2.6608  -15.9925  -44.6670 H         1 UNK         0.0600 
    178 H178       -1.4979  -17.1535  -45.2792 H         1 UNK         0.0600 
    179 H179       -1.0859  -13.1925  -44.3224 H         1 UNK         0.3000 
    180 H180       -1.8307  -12.6878  -41.5664 H         1 UNK         0.0600 
    181 H181        1.0815  -12.9086  -40.6290 H         1 UNK         0.0600 
    182 H182       -0.3269  -13.5758  -39.8142 H         1 UNK         0.0600 
    183 H183       -0.1326  -11.8364  -39.9355 H         1 UNK         0.0600 
    184 H184       -1.1600  -10.9230  -42.7159 H         1 UNK         0.3000 
    185 H185       -0.1331   -9.5341  -43.9508 H         1 UNK         0.0600 
    186 H186        1.7784   -8.9207  -42.4502 H         1 UNK         0.0600 
    187 H187        2.9122   -9.5867  -43.6195 H         1 UNK         0.0600 
    188 H188        1.9304   -8.1827  -44.0374 H         1 UNK         0.0600 
    189 H189        1.7737   -9.7515  -45.9026 H         1 UNK         0.3000 
    190 H190       -2.6493  -20.3404  -46.1245 H         1 UNK         0.3000 
    191 H191       -4.4549  -20.9813  -43.8266 H         1 UNK         0.0600 
    192 H192       -2.5030  -20.2355  -42.4542 H         1 UNK         0.0600 
    193 H193       -3.0736  -18.9521  -43.5114 H         1 UNK         0.0600 
    194 H194       -1.6115  -19.8436  -43.9225 H         1 UNK         0.0600 
    195 H195       -1.2955  -21.8129  -45.3587 H         1 UNK         0.3000 
    196 H196       -0.7274  -23.9753  -43.6407 H         1 UNK         0.0600 
    197 H197        0.4113  -23.2986  -46.4042 H         1 UNK         0.0600 
    198 H198        0.9913  -22.6789  -44.8613 H         1 UNK         0.0600 
    199 H199        1.1465  -24.3871  -45.2342 H         1 UNK         0.0600 
    200 H200       -2.5066  -23.9363  -46.7025 H         1 UNK         0.3000 
    201 H201       -2.8878  -26.9031  -46.5537 H         1 UNK         0.0600 
    202 H202       -2.7713  -25.1460  -49.0638 H         1 UNK         0.0600 
    203 H203       -3.0087  -26.8863  -49.0137 H         1 UNK         0.0600 
    204 H204       -1.4703  -26.2015  -48.5192 H         1 UNK         0.0600 
    205 H205       -4.3579  -24.2870  -45.5760 H         1 UNK         0.3000 
    206 H206       -6.3967  -23.4331  -45.3585 H         1 UNK         0.0600 
    207 H207       -6.7265  -25.6770  -44.2980 H         1 UNK         0.0600 
    208 H208       -8.2218  -25.0532  -44.9723 H         1 UNK         0.0600 
    209 H209       -7.3374  -26.3124  -45.8251 H         1 UNK         0.0600 
    210 H210       -5.3403  -23.2324  -48.0070 H         1 UNK         0.3000 
    211 H211       -5.7959  -22.3999  -49.9695 H         1 UNK         0.0600 
    212 H212       -7.9273  -21.3612  -50.5360 H         1 UNK         0.0600 
    213 H213       -7.6090  -21.0433  -48.8393 H         1 UNK         0.0600 
    214 H214       -8.7795  -22.2746  -49.3053 H         1 UNK         0.0600 
    215 H215       -6.2616  -25.4680  -49.2875 H         1 UNK         0.3000 
    216 H216       -7.7143  -26.4211  -51.5955 H         1 UNK         0.0600 
    217 H217       -5.6411  -27.8746  -49.8725 H         1 UNK         0.0600 
    218 H218       -6.8287  -28.6117  -50.9367 H         1 UNK         0.0600 
    219 H219       -7.3603  -27.7625  -49.4924 H         1 UNK         0.0600 
    220 H220       -4.4827  -25.2546  -51.0852 H         1 UNK         0.3000 
    221 H221       -3.6332  -26.0277  -53.8499 H         1 UNK         0.0600 
    222 H222       -2.3001  -27.1748  -52.0592 H         1 UNK         0.0600 
    223 H223       -1.8676  -25.6078  -51.3809 H         1 UNK         0.0600 
    224 H224       -1.3253  -26.0530  -52.9930 H         1 UNK         0.0600 
    225 H225       -5.2744  -23.7027  -53.0673 H         1 UNK         0.3000 
    226 H226       -3.7389  -21.3404  -52.8460 H         1 UNK         0.0600 
    227 H227       -6.5767  -21.7985  -53.8938 H         1 UNK         0.0600 
    228 H228       -6.1042  -21.4023  -52.2412 H         1 UNK         0.0600 
    229 H229       -5.8966  -20.2194  -53.5154 H         1 UNK         0.0600 
    230 H230       -4.0766  -23.3333  -55.6108 H         1 UNK         0.3000 
    231 H231       -3.5256  -21.2627  -57.6108 H         1 UNK         0.0600 
    232 H232       -3.4654  -24.3247  -57.7641 H         1 UNK         0.0600 
    233 H233       -3.3421  -23.2247  -59.1317 H         1 UNK         0.0600 
    234 H234       -4.8304  -23.2964  -58.2026 H         1 UNK         0.0600 
    235 H235       -1.6287  -23.1305  -55.3204 H         1 UNK         0.3000 
    236 H236        0.7892  -23.1978  -56.9736 H         1 UNK         0.0600 
    237 H237        0.1597  -25.0946  -55.4570 H         1 UNK         0.0600 
    238 H238        1.7378  -24.4226  -55.0755 H         1 UNK         0.0600 
    239 H239        0.3577  -24.0350  -54.0611 H         1 UNK         0.0600 
    240 H240       -0.5355  -21.2205  -54.3352 H         1 UNK         0.3000 
    241 H241        1.9751  -19.8993  -53.7483 H         1 UNK         0.0600 
    242 H242        2.3470  -17.4937  -53.9600 H         1 UNK         0.3800 
    243 H243        1.7401  -16.7344  -55.4017 H         1 UNK         0.3800 
    244 H244        0.6324  -18.4333  -52.2461 H         1 UNK         0.0800 
    245 H245        0.4625  -20.1238  -51.9227 H         1 UNK         0.0800 
    246 H246       -2.9011  -17.3224  -53.3232 H         1 UNK         0.0800 
    247 H247       -1.2242  -17.0599  -53.7116 H         1 UNK         0.0800 
@<TRIPOS>BOND
     1    1    2 1    
     2    1  127 1    
     3    1  128 1    
     4    1  129 1    
     5    2    3 2    
     6    2    4 am   BACKBONE|DICT|INTERRES
     7    4    5 1    
     8    4  130 1    
     9    5    6 1    
    10    5   65 1    
    11    5  131 1    
    12    6    7 1    
    13    6  132 1    
    14    6  133 1    
    15    7    8 1    
    16    8    9 1    
    17    8  134 1    
    18    8  135 1    
    19    9   10 ar   
    20    9   14 ar   
    21   10   11 ar   
    22   10  136 1    
    23   11   12 ar   
    24   11  126 1    
    25   12   13 ar   
    26   12  137 1    
    27   13   14 ar   
    28   13   15 1    
    29   14  138 1    
    30   15   16 1    
    31   15  139 1    
    32   15  140 1    
    33   16   17 1    
    34   17   18 1    
    35   17  141 1    
    36   17  142 1    
    37   18   19 1    
    38   18   67 1    
    39   18  143 1    
    40   19   20 am   BACKBONE|DICT|INTERRES
    41   19  144 1    
    42   20   21 2    
    43   20   22 1    
    44   22   23 1    
    45   22   24 1    
    46   22  145 1    
    47   23  146 1    
    48   23  147 1    
    49   23  148 1    
    50   24   25 am   BACKBONE|DICT|INTERRES
    51   24  149 1    
    52   25   26 2    
    53   25   27 1    
    54   27   28 1    
    55   27   29 1    
    56   27  150 1    
    57   28  151 1    
    58   28  152 1    
    59   28  153 1    
    60   29   30 am   BACKBONE|DICT|INTERRES
    61   29  154 1    
    62   30   31 2    
    63   30   32 1    
    64   32   33 1    
    65   32   34 1    
    66   32  155 1    
    67   33  156 1    
    68   33  157 1    
    69   33  158 1    
    70   34   35 am   BACKBONE|DICT|INTERRES
    71   34  159 1    
    72   35   36 2    
    73   35   37 1    
    74   37   38 1    
    75   37   39 1    
    76   37  160 1    
    77   38  161 1    
    78   38  162 1    
    79   38  163 1    
    80   39   40 am   BACKBONE|DICT|INTERRES
    81   39  164 1    
    82   40   41 2    
    83   40   42 1    
    84   42   43 1    
    85   42   44 1    
    86   42  165 1    
    87   43  166 1    
    88   43  167 1    
    89   43  168 1    
    90   44   45 am   BACKBONE|DICT|INTERRES
    91   44  169 1    
    92   45   46 2    
    93   45   47 1    
    94   47   48 1    
    95   47   49 1    
    96   47  170 1    
    97   48  171 1    
    98   48  172 1    
    99   48  173 1    
   100   49   50 am   BACKBONE|DICT|INTERRES
   101   49  174 1    
   102   50   51 2    
   103   50   52 1    
   104   52   53 1    
   105   52   54 1    
   106   52  175 1    
   107   53  176 1    
   108   53  177 1    
   109   53  178 1    
   110   54   55 am   BACKBONE|DICT|INTERRES
   111   54  179 1    
   112   55   56 2    
   113   55   57 1    
   114   57   58 1    
   115   57   59 1    
   116   57  180 1    
   117   58  181 1    
   118   58  182 1    
   119   58  183 1    
   120   59   60 am   BACKBONE|DICT|INTERRES
   121   59  184 1    
   122   60   61 2    
   123   60   62 1    
   124   62   63 1    
   125   62   64 1    
   126   62  185 1    
   127   63  186 1    
   128   63  187 1    
   129   63  188 1    
   130   64   65 am   BACKBONE|DICT|INTERRES
   131   64  189 1    
   132   65   66 2    
   133   67   68 2    
   134   67   69 am   BACKBONE|DICT|INTERRES
   135   69   70 1    
   136   69  190 1    
   137   70   71 1    
   138   70   72 1    
   139   70  191 1    
   140   71  192 1    
   141   71  193 1    
   142   71  194 1    
   143   72   73 2    
   144   72   74 am   BACKBONE|DICT|INTERRES
   145   74   75 1    
   146   74  195 1    
   147   75   76 1    
   148   75   77 1    
   149   75  196 1    
   150   76  197 1    
   151   76  198 1    
   152   76  199 1    
   153   77   78 2    
   154   77   79 am   BACKBONE|DICT|INTERRES
   155   79   80 1    
   156   79  200 1    
   157   80   81 1    
   158   80   82 1    
   159   80  201 1    
   160   81  202 1    
   161   81  203 1    
   162   81  204 1    
   163   82   83 2    
   164   82   84 am   BACKBONE|DICT|INTERRES
   165   84   85 1    
   166   84  205 1    
   167   85   86 1    
   168   85   87 1    
   169   85  206 1    
   170   86  207 1    
   171   86  208 1    
   172   86  209 1    
   173   87   88 2    
   174   87   89 am   BACKBONE|DICT|INTERRES
   175   89   90 1    
   176   89  210 1    
   177   90   91 1    
   178   90   92 1    
   179   90  211 1    
   180   91  212 1    
   181   91  213 1    
   182   91  214 1    
   183   92   93 2    
   184   92   94 am   BACKBONE|DICT|INTERRES
   185   94   95 1    
   186   94  215 1    
   187   95   96 1    
   188   95   97 1    
   189   95  216 1    
   190   96  217 1    
   191   96  218 1    
   192   96  219 1    
   193   97   98 2    
   194   97   99 am   BACKBONE|DICT|INTERRES
   195   99  100 1    
   196   99  220 1    
   197  100  101 1    
   198  100  102 1    
   199  100  221 1    
   200  101  222 1    
   201  101  223 1    
   202  101  224 1    
   203  102  103 2    
   204  102  104 am   BACKBONE|DICT|INTERRES
   205  104  105 1    
   206  104  225 1    
   207  105  106 1    
   208  105  107 1    
   209  105  226 1    
   210  106  227 1    
   211  106  228 1    
   212  106  229 1    
   213  107  108 2    
   214  107  109 am   BACKBONE|DICT|INTERRES
   215  109  110 1    
   216  109  230 1    
   217  110  111 1    
   218  110  112 1    
   219  110  231 1    
   220  111  232 1    
   221  111  233 1    
   222  111  234 1    
   223  112  113 2    
   224  112  114 am   BACKBONE|DICT|INTERRES
   225  114  115 1    
   226  114  235 1    
   227  115  116 1    
   228  115  117 1    
   229  115  236 1    
   230  116  237 1    
   231  116  238 1    
   232  116  239 1    
   233  117  118 2    
   234  117  119 am   BACKBONE|DICT|INTERRES
   235  119  120 1    
   236  119  240 1    
   237  120  121 1    
   238  120  124 1    
   239  120  241 1    
   240  121  122 am   BACKBONE|DICT|INTERRES
   241  121  123 2    
   242  122  242 1    
   243  122  243 1    
   244  124  125 1    
   245  124  244 1    
   246  124  245 1    
   247  125  126 1    
   248  126  246 1    
   249  126  247 1    
@<TRIPOS>SUBSTRUCTURE
     1 UNK         1 GROUP             0       ****    0 ROOT    
