@<TRIPOS>MOLECULE
3R540
247   249    1
SMALL
USER_CHARGES


@<TRIPOS>ATOM
      1 CA         -2.0380  -13.1891  -48.4884 C.3       0 UNK        -0.1800 
      2 C          -0.7898  -13.5878  -47.7140 C.2       0 UNK         0.5000 
      3 O          -0.8948  -13.9967  -46.5590 O.2       0 UNK        -0.5000 
      4 N           0.3852  -13.4607  -48.3471 N.am      1 UNK        -0.5000 
      5 CA          1.7052  -13.8601  -47.8334 C.3       1 UNK         0.1400 
      6 C6          1.8745  -15.3956  -47.7007 C.3       23 UNK        -0.0398 
      7 S7          1.6922  -16.2735  -49.2893 S.3       23 UNK        -0.2404 
      8 C8          0.8070  -17.7775  -48.7766 C.3       23 UNK        -0.0205 
      9 C9         -0.7012  -17.6053  -48.8589 C.ar      23 UNK        -0.0193 
     10 C10        -1.3820  -17.9742  -50.0224 C.ar      23 UNK        -0.1150 
     11 C11        -2.7733  -17.8717  -50.0958 C.ar      23 UNK        -0.0193 
     12 C12        -3.4833  -17.3706  -49.0024 C.ar      23 UNK        -0.1150 
     13 C13        -2.8135  -16.9855  -47.8376 C.ar      23 UNK        -0.0193 
     14 C14        -1.4226  -17.1110  -47.7693 C.ar      23 UNK        -0.1150 
     15 C15        -3.5960  -16.4514  -46.6476 C.3       23 UNK        -0.0205 
     16 S16        -3.5744  -17.6014  -45.2375 S.3       23 UNK        -0.2404 
     17 C17        -4.3029  -19.1107  -45.9565 C.3       23 UNK        -0.0398 
     18 CA         -3.2311  -20.1443  -46.3826 C.3       11 UNK         0.1400 
     19 N          -2.2931  -20.4578  -45.2981 N.am      11 UNK        -0.5000 
     20 C          -1.2600  -21.3080  -45.3600 C.2       10 UNK         0.5000 
     21 O          -1.0532  -22.0533  -46.3183 O.2       10 UNK        -0.5000 
     22 CA         -0.2896  -21.3290  -44.1629 C.3       10 UNK         0.1400 
     23 CB          1.1663  -21.5103  -44.6278 C.3       10 UNK        -0.1800 
     24 N          -0.3754  -20.1147  -43.3451 N.am      10 UNK        -0.5000 
     25 C          -1.0760  -19.9959  -42.2077 C.2       9 UNK         0.5000 
     26 O          -1.8084  -20.8864  -41.7756 O.2       9 UNK        -0.5000 
     27 CA         -0.9523  -18.6805  -41.4105 C.3       9 UNK         0.1400 
     28 CB         -0.2931  -18.9371  -40.0454 C.3       9 UNK        -0.1800 
     29 N          -0.1652  -17.6740  -42.1214 N.am      9 UNK        -0.5000 
     30 C          -0.6604  -16.5983  -42.7475 C.2       8 UNK         0.5000 
     31 O          -1.8466  -16.2747  -42.6981 O.2       8 UNK        -0.5000 
     32 CA          0.3219  -15.7242  -43.5597 C.3       8 UNK         0.1400 
     33 CB          0.4873  -14.3461  -42.9011 C.3       8 UNK        -0.1800 
     34 N           1.6484  -16.3179  -43.7423 N.am      8 UNK        -0.5000 
     35 C           1.9146  -17.4204  -44.4543 C.2       7 UNK         0.5000 
     36 O           1.0612  -18.0558  -45.0715 O.2       7 UNK        -0.5000 
     37 CA          3.3566  -17.9512  -44.3840 C.3       7 UNK         0.1400 
     38 CB          4.2714  -17.2260  -45.3802 C.3       7 UNK        -0.1800 
     39 N           3.9083  -17.8331  -43.0334 N.am      7 UNK        -0.5000 
     40 C           3.5278  -18.5922  -41.9958 C.2       6 UNK         0.5000 
     41 O           2.6819  -19.4815  -42.0759 O.2       6 UNK        -0.5000 
     42 CA          4.1755  -18.2826  -40.6346 C.3       6 UNK         0.1400 
     43 CB          5.5543  -18.9507  -40.5246 C.3       6 UNK        -0.1800 
     44 N           4.3120  -16.8457  -40.3990 N.am      6 UNK        -0.5000 
     45 C           3.2839  -16.0145  -40.1770 C.2       5 UNK         0.5000 
     46 O           2.1126  -16.3810  -40.0921 O.2       5 UNK        -0.5000 
     47 CA          3.6203  -14.5160  -40.0572 C.3       5 UNK         0.1400 
     48 CB          3.9018  -14.1431  -38.5940 C.3       5 UNK        -0.1800 
     49 N           4.7528  -14.0968  -40.8896 N.am      5 UNK        -0.5000 
     50 C           4.7756  -14.1544  -42.2273 C.2       4 UNK         0.5000 
     51 O           3.8640  -14.6273  -42.9066 O.2       4 UNK        -0.5000 
     52 CA          6.0406  -13.6382  -42.9188 C.3       4 UNK         0.1400 
     53 CB          6.9096  -14.8028  -43.4217 C.3       4 UNK        -0.1800 
     54 N           5.6538  -12.7863  -44.0388 N.am      4 UNK        -0.5000 
     55 C           6.3256  -11.6935  -44.4258 C.2       3 UNK         0.5000 
     56 O           7.3850  -11.3316  -43.9111 O.2       3 UNK        -0.5000 
     57 CA          5.7333  -10.8479  -45.5731 C.3       3 UNK         0.1400 
     58 CB          6.4370  -11.1793  -46.8983 C.3       3 UNK        -0.1800 
     59 N           4.2906  -11.0044  -45.7580 N.am      3 UNK        -0.5000 
     60 C           3.3416  -10.6593  -44.8774 C.2       2 UNK         0.5000 
     61 O           3.5825  -10.1085  -43.8025 O.2       2 UNK        -0.5000 
     62 CA          1.8763  -10.9775  -45.2511 C.3       2 UNK         0.1400 
     63 CB          1.0832   -9.6809  -45.4797 C.3       2 UNK        -0.1800 
     64 N           1.6955  -11.8436  -46.4233 N.am      2 UNK        -0.5000 
     65 C           2.1055  -13.1156  -46.5369 C.2       1 UNK         0.5000 
     66 O           2.7923  -13.6795  -45.6856 O.2       1 UNK        -0.5000 
     67 C          -3.9081  -21.3814  -47.0003 C.2       11 UNK         0.5000 
     68 O          -3.9681  -21.4862  -48.2237 O.2       11 UNK        -0.5000 
     69 N          -4.3750  -22.3088  -46.1520 N.am      12 UNK        -0.5000 
     70 CA         -5.0373  -23.5451  -46.5754 C.3       12 UNK         0.1400 
     71 CB         -5.6742  -24.2273  -45.3560 C.3       12 UNK        -0.1800 
     72 C          -4.0914  -24.5154  -47.3054 C.2       12 UNK         0.5000 
     73 O          -4.5086  -25.1592  -48.2691 O.2       12 UNK        -0.5000 
     74 N          -2.8334  -24.5800  -46.8477 N.am      13 UNK        -0.5000 
     75 CA         -1.7741  -25.3895  -47.4467 C.3       13 UNK         0.1400 
     76 CB         -0.6127  -25.5431  -46.4525 C.3       13 UNK        -0.1800 
     77 C          -1.2890  -24.7919  -48.7768 C.2       13 UNK         0.5000 
     78 O          -1.1153  -25.5321  -49.7442 O.2       13 UNK        -0.5000 
     79 N          -1.1308  -23.4617  -48.8181 N.am      14 UNK        -0.5000 
     80 CA         -0.7760  -22.6972  -50.0154 C.3       14 UNK         0.1400 
     81 CB         -0.4873  -21.2445  -49.6178 C.3       14 UNK        -0.1800 
     82 C          -1.8612  -22.7659  -51.1076 C.2       14 UNK         0.5000 
     83 O          -1.5334  -22.8812  -52.2882 O.2       14 UNK        -0.5000 
     84 N          -3.1321  -22.7530  -50.6851 N.am      15 UNK        -0.5000 
     85 CA         -4.3079  -22.9751  -51.5267 C.3       15 UNK         0.1400 
     86 CB         -5.5463  -22.4578  -50.7778 C.3       15 UNK        -0.1800 
     87 C          -4.5147  -24.4511  -51.9274 C.2       15 UNK         0.5000 
     88 O          -5.4200  -24.7345  -52.7121 O.2       15 UNK        -0.5000 
     89 N          -3.7297  -25.3729  -51.3462 N.am      16 UNK        -0.5000 
     90 CA         -3.7780  -26.8313  -51.5187 C.3       16 UNK         0.1400 
     91 CB         -3.2971  -27.2105  -52.9344 C.3       16 UNK        -0.1800 
     92 C          -5.1525  -27.4500  -51.1763 C.2       16 UNK         0.5000 
     93 O          -5.5130  -28.4905  -51.7291 O.2       16 UNK        -0.5000 
     94 N          -5.9075  -26.7698  -50.2987 N.am      17 UNK        -0.5000 
     95 CA         -7.3104  -27.0082  -49.9432 C.3       17 UNK         0.1400 
     96 CB         -7.4385  -28.2987  -49.1084 C.3       17 UNK        -0.1800 
     97 C          -8.2829  -26.9768  -51.1493 C.2       17 UNK         0.5000 
     98 O          -9.3540  -27.5826  -51.0798 O.2       17 UNK        -0.5000 
     99 N          -7.9048  -26.2819  -52.2326 N.am      18 UNK        -0.5000 
    100 CA        -8.6172  -26.2688  -53.5125 C.3       18 UNK         0.1400 
    101 CB        -8.0540  -27.3864  -54.4111 C.3       18 UNK        -0.1800 
    102 C         -8.5540  -24.8847  -54.1856 C.2       18 UNK         0.5000 
    103 O         -8.6215  -24.7981  -55.4136 O.2       18 UNK        -0.5000 
    104 N         -8.4144  -23.8270  -53.3726 N.am      19 UNK        -0.5000 
    105 CA        -8.2508  -22.4085  -53.7216 C.3       19 UNK         0.1400 
    106 CB        -9.4523  -21.8689  -54.5222 C.3       19 UNK        -0.1800 
    107 C         -6.9125  -22.0853  -54.4170 C.2       19 UNK         0.5000 
    108 O         -6.1777  -21.2284  -53.9250 O.2       19 UNK        -0.5000 
    109 N         -6.6217  -22.7819  -55.5252 N.am      20 UNK        -0.5000 
    110 CA        -5.4244  -22.6842  -56.3658 C.3       20 UNK         0.1400 
    111 CB        -4.2348  -23.3805  -55.6672 C.3       20 UNK        -0.1800 
    112 C         -5.1411  -21.2307  -56.8102 C.2       20 UNK         0.5000 
    113 O         -6.0311  -20.5888  -57.3729 O.2       20 UNK        -0.5000 
    114 N         -3.9300  -20.7350  -56.5425 N.am      21 UNK        -0.5000 
    115 CA        -3.5219  -19.3457  -56.6953 C.3       21 UNK         0.1400 
    116 CB        -2.9445  -19.1160  -58.1018 C.3       21 UNK        -0.1800 
    117 C         -2.4820  -19.0533  -55.6063 C.2       21 UNK         0.5000 
    118 O         -1.6999  -19.9437  -55.2616 O.2       21 UNK        -0.5000 
    119 N         -2.4912  -17.8230  -55.0851 N.am      22 UNK        -0.5000 
    120 CA        -1.6101  -17.3800  -53.9891 C.3       22 UNK         0.1400 
    121 C         -0.2305  -16.8312  -54.4579 C.2       22 UNK         0.5000 
    122 N          0.0427  -16.7282  -55.7530 N.am      22 UNK        -0.7600 
    123 O          0.6149  -16.5025  -53.6310 O.2       22 UNK        -0.5000 
    124 C124       -2.3205  -16.3763  -53.0412 C.3       23 UNK        -0.0398 
    125 S125       -3.9518  -16.9438  -52.4389 S.3       23 UNK        -0.2404 
    126 C126       -3.5142  -18.3308  -51.3419 C.3       23 UNK        -0.0205 
    127 H127       -1.7933  -12.7623  -49.4613 H         1 UNK         0.0600 
    128 H128       -2.6095  -12.4506  -47.9264 H         1 UNK         0.0600 
    129 H129       -2.6710  -14.0615  -48.6504 H         1 UNK         0.0600 
    130 H130        0.3871  -13.1152  -49.2965 H         1 UNK         0.3000 
    131 H131        2.4247  -13.5228  -48.5810 H         1 UNK         0.0600 
    132 H132        2.8723  -15.6330  -47.3344 H         1 UNK         0.0800 
    133 H133        1.1750  -15.7913  -46.9643 H         1 UNK         0.0800 
    134 H134        1.1180  -18.5968  -49.4261 H         1 UNK         0.0800 
    135 H135        1.1036  -18.0701  -47.7686 H         1 UNK         0.0800 
    136 H136       -0.8275  -18.3581  -50.8666 H         1 UNK         0.1150 
    137 H137       -4.5597  -17.2891  -49.0587 H         1 UNK         0.1150 
    138 H138       -0.9073  -16.8328  -46.8607 H         1 UNK         0.1150 
    139 H139       -3.1636  -15.5015  -46.3312 H         1 UNK         0.0800 
    140 H140       -4.6302  -16.2402  -46.9232 H         1 UNK         0.0800 
    141 H141       -4.9346  -18.8359  -46.8032 H         1 UNK         0.0800 
    142 H142       -4.9712  -19.5401  -45.2082 H         1 UNK         0.0800 
    143 H143       -2.6298  -19.6999  -47.1771 H         1 UNK         0.0600 
    144 H144       -2.3679  -19.8748  -44.4776 H         1 UNK         0.3000 
    145 H145       -0.5520  -22.2002  -43.5597 H         1 UNK         0.0600 
    146 H146        1.8545  -21.5075  -43.7826 H         1 UNK         0.0600 
    147 H147        1.2987  -22.4605  -45.1468 H         1 UNK         0.0600 
    148 H148        1.4714  -20.7189  -45.3127 H         1 UNK         0.0600 
    149 H149        0.1515  -19.3190  -43.6874 H         1 UNK         0.3000 
    150 H150       -1.9659  -18.3162  -41.2329 H         1 UNK         0.0600 
    151 H151       -0.2311  -18.0191  -39.4607 H         1 UNK         0.0600 
    152 H152       -0.8668  -19.6566  -39.4599 H         1 UNK         0.0600 
    153 H153        0.7176  -19.3318  -40.1534 H         1 UNK         0.0600 
    154 H154        0.8306  -17.8410  -42.1687 H         1 UNK         0.3000 
    155 H155       -0.1154  -15.5826  -44.5494 H         1 UNK         0.0600 
    156 H156        0.8813  -14.4332  -41.8886 H         1 UNK         0.0600 
    157 H157       -0.4679  -13.8234  -42.8412 H         1 UNK         0.0600 
    158 H158        1.1675  -13.7154  -43.4720 H         1 UNK         0.0600 
    159 H159        2.4250  -15.8171  -43.3172 H         1 UNK         0.3000 
    160 H160        3.3397  -19.0098  -44.6523 H         1 UNK         0.0600 
    161 H161        4.2504  -16.1446  -45.2381 H         1 UNK         0.0600 
    162 H162        3.9625  -17.4351  -46.4044 H         1 UNK         0.0600 
    163 H163        5.3050  -17.5586  -45.2839 H         1 UNK         0.0600 
    164 H164        4.5608  -17.0803  -42.8736 H         1 UNK         0.3000 
    165 H165        3.5319  -18.6986  -39.8563 H         1 UNK         0.0600 
    166 H166        5.9885  -18.7976  -39.5365 H         1 UNK         0.0600 
    167 H167        5.4789  -20.0275  -40.6820 H         1 UNK         0.0600 
    168 H168        6.2543  -18.5591  -41.2637 H         1 UNK         0.0600 
    169 H169        5.2428  -16.4585  -40.4419 H         1 UNK         0.3000 
    170 H170        2.7429  -13.9562  -40.3867 H         1 UNK         0.0600 
    171 H171        3.0651  -14.4225  -37.9520 H         1 UNK         0.0600 
    172 H172        4.7905  -14.6477  -38.2130 H         1 UNK         0.0600 
    173 H173        4.0502  -13.0689  -38.4817 H         1 UNK         0.0600 
    174 H174        5.5463  -13.7067  -40.4013 H         1 UNK         0.3000 
    175 H175        6.6138  -13.0585  -42.1919 H         1 UNK         0.0600 
    176 H176        6.3907  -15.3955  -44.1753 H         1 UNK         0.0600 
    177 H177        7.8358  -14.4379  -43.8658 H         1 UNK         0.0600 
    178 H178        7.1823  -15.4715  -42.6044 H         1 UNK         0.0600 
    179 H179        4.7688  -13.0201  -44.4770 H         1 UNK         0.3000 
    180 H180        5.9254   -9.7995  -45.3361 H         1 UNK         0.0600 
    181 H181        6.2591  -12.2125  -47.1996 H         1 UNK         0.0600 
    182 H182        7.5161  -11.0436  -46.8132 H         1 UNK         0.0600 
    183 H183        6.0924  -10.5293  -47.7027 H         1 UNK         0.0600 
    184 H184        3.9934  -11.4599  -46.6074 H         1 UNK         0.3000 
    185 H185        1.4400  -11.4934  -44.3941 H         1 UNK         0.0600 
    186 H186        1.1487   -9.0211  -44.6135 H         1 UNK         0.0600 
    187 H187        1.4582   -9.1285  -46.3422 H         1 UNK         0.0600 
    188 H188        0.0260   -9.8887  -45.6460 H         1 UNK         0.0600 
    189 H189        1.1440  -11.4608  -47.1773 H         1 UNK         0.3000 
    190 H190       -4.2679  -22.1606  -45.1591 H         1 UNK         0.3000 
    191 H191       -5.8366  -23.2793  -47.2706 H         1 UNK         0.0600 
    192 H192       -6.4098  -23.5783  -44.8806 H         1 UNK         0.0600 
    193 H193       -6.1907  -25.1432  -45.6471 H         1 UNK         0.0600 
    194 H194       -4.9278  -24.4950  -44.6072 H         1 UNK         0.0600 
    195 H195       -2.5607  -23.9633  -46.0962 H         1 UNK         0.3000 
    196 H196       -2.1765  -26.3838  -47.6528 H         1 UNK         0.0600 
    197 H197        0.1739  -26.1734  -46.8691 H         1 UNK         0.0600 
    198 H198       -0.9467  -26.0106  -45.5261 H         1 UNK         0.0600 
    199 H199       -0.1622  -24.5830  -46.1999 H         1 UNK         0.0600 
    200 H200       -1.2541  -22.9308  -47.9586 H         1 UNK         0.3000 
    201 H201        0.1395  -23.1267  -50.4273 H         1 UNK         0.0600 
    202 H202        0.3130  -21.1869  -48.8797 H         1 UNK         0.0600 
    203 H203       -1.3681  -20.7635  -49.1912 H         1 UNK         0.0600 
    204 H204       -0.1751  -20.6622  -50.4849 H         1 UNK         0.0600 
    205 H205       -3.3167  -22.5668  -49.7033 H         1 UNK         0.3000 
    206 H206       -4.1924  -22.3957  -52.4437 H         1 UNK         0.0600 
    207 H207       -5.4631  -21.3906  -50.5712 H         1 UNK         0.0600 
    208 H208       -6.4530  -22.6025  -51.3624 H         1 UNK         0.0600 
    209 H209       -5.6866  -22.9758  -49.8288 H         1 UNK         0.0600 
    210 H210       -3.0230  -25.0472  -50.6994 H         1 UNK         0.3000 
    211 H211       -3.0705  -27.2489  -50.8015 H         1 UNK         0.0600 
    212 H212       -3.9965  -26.8756  -53.7013 H         1 UNK         0.0600 
    213 H213       -3.1899  -28.2909  -53.0375 H         1 UNK         0.0600 
    214 H214       -2.3249  -26.7676  -53.1509 H         1 UNK         0.0600 
    215 H215       -5.4715  -25.9778  -49.8353 H         1 UNK         0.3000 
    216 H216       -7.6016  -26.1737  -49.3039 H         1 UNK         0.0600 
    217 H217       -8.4472  -28.4114  -48.7096 H         1 UNK         0.0600 
    218 H218       -6.7559  -28.2866  -48.2586 H         1 UNK         0.0600 
    219 H219       -7.2199  -29.1869  -49.7019 H         1 UNK         0.0600 
    220 H220       -7.0014  -25.8141  -52.2350 H         1 UNK         0.3000 
    221 H221       -9.6778  -26.4659  -53.3454 H         1 UNK         0.0600 
    222 H222       -7.0009  -27.2176  -54.6403 H         1 UNK         0.0600 
    223 H223       -8.1377  -28.3605  -53.9288 H         1 UNK         0.0600 
    224 H224       -8.5946  -27.4475  -55.3563 H         1 UNK         0.0600 
    225 H225       -8.3515  -24.0296  -52.3854 H         1 UNK         0.3000 
    226 H226       -8.2440  -21.8742  -52.7705 H         1 UNK         0.0600 
    227 H227      -10.3888  -22.0449  -53.9931 H         1 UNK         0.0600 
    228 H228       -9.3620  -20.7927  -54.6742 H         1 UNK         0.0600 
    229 H229       -9.5328  -22.3274  -55.5078 H         1 UNK         0.0600 
    230 H230       -7.3078  -23.4753  -55.8102 H         1 UNK         0.3000 
    231 H231       -5.6441  -23.2424  -57.2768 H         1 UNK         0.0600 
    232 H232       -3.9373  -22.8649  -54.7541 H         1 UNK         0.0600 
    233 H233       -3.3643  -23.4318  -56.3222 H         1 UNK         0.0600 
    234 H234       -4.4890  -24.4054  -55.3957 H         1 UNK         0.0600 
    235 H235       -3.2596  -21.3039  -56.0402 H         1 UNK         0.3000 
    236 H236       -4.3834  -18.6920  -56.5413 H         1 UNK         0.0600 
    237 H237       -3.6861  -19.3287  -58.8720 H         1 UNK         0.0600 
    238 H238       -2.6301  -18.0798  -58.2308 H         1 UNK         0.0600 
    239 H239       -2.0770  -19.7504  -58.2882 H         1 UNK         0.0600 
    240 H240       -3.1594  -17.1436  -55.4190 H         1 UNK         0.3000 
    241 H241       -1.3605  -18.2539  -53.3858 H         1 UNK         0.0600 
    242 H242       -0.6367  -17.0017  -56.4443 H         1 UNK         0.3800 
    243 H243        0.9417  -16.3767  -56.0440 H         1 UNK         0.3800 
    244 H244       -1.6924  -16.1462  -52.1791 H         1 UNK         0.0800 
    245 H245       -2.4757  -15.4267  -53.5557 H         1 UNK         0.0800 
    246 H246       -4.4318  -18.8409  -51.0447 H         1 UNK         0.0800 
    247 H247       -2.9316  -19.0733  -51.8885 H         1 UNK         0.0800 
@<TRIPOS>BOND
     1    1    2 1    
     2    1  127 1    
     3    1  128 1    
     4    1  129 1    
     5    2    3 2    
     6    2    4 am   BACKBONE|DICT|INTERRES
     7    4    5 1    
     8    4  130 1    
     9    5    6 1    
    10    5   65 1    
    11    5  131 1    
    12    6    7 1    
    13    6  132 1    
    14    6  133 1    
    15    7    8 1    
    16    8    9 1    
    17    8  134 1    
    18    8  135 1    
    19    9   10 ar   
    20    9   14 ar   
    21   10   11 ar   
    22   10  136 1    
    23   11   12 ar   
    24   11  126 1    
    25   12   13 ar   
    26   12  137 1    
    27   13   14 ar   
    28   13   15 1    
    29   14  138 1    
    30   15   16 1    
    31   15  139 1    
    32   15  140 1    
    33   16   17 1    
    34   17   18 1    
    35   17  141 1    
    36   17  142 1    
    37   18   19 1    
    38   18   67 1    
    39   18  143 1    
    40   19   20 am   BACKBONE|DICT|INTERRES
    41   19  144 1    
    42   20   21 2    
    43   20   22 1    
    44   22   23 1    
    45   22   24 1    
    46   22  145 1    
    47   23  146 1    
    48   23  147 1    
    49   23  148 1    
    50   24   25 am   BACKBONE|DICT|INTERRES
    51   24  149 1    
    52   25   26 2    
    53   25   27 1    
    54   27   28 1    
    55   27   29 1    
    56   27  150 1    
    57   28  151 1    
    58   28  152 1    
    59   28  153 1    
    60   29   30 am   BACKBONE|DICT|INTERRES
    61   29  154 1    
    62   30   31 2    
    63   30   32 1    
    64   32   33 1    
    65   32   34 1    
    66   32  155 1    
    67   33  156 1    
    68   33  157 1    
    69   33  158 1    
    70   34   35 am   BACKBONE|DICT|INTERRES
    71   34  159 1    
    72   35   36 2    
    73   35   37 1    
    74   37   38 1    
    75   37   39 1    
    76   37  160 1    
    77   38  161 1    
    78   38  162 1    
    79   38  163 1    
    80   39   40 am   BACKBONE|DICT|INTERRES
    81   39  164 1    
    82   40   41 2    
    83   40   42 1    
    84   42   43 1    
    85   42   44 1    
    86   42  165 1    
    87   43  166 1    
    88   43  167 1    
    89   43  168 1    
    90   44   45 am   BACKBONE|DICT|INTERRES
    91   44  169 1    
    92   45   46 2    
    93   45   47 1    
    94   47   48 1    
    95   47   49 1    
    96   47  170 1    
    97   48  171 1    
    98   48  172 1    
    99   48  173 1    
   100   49   50 am   BACKBONE|DICT|INTERRES
   101   49  174 1    
   102   50   51 2    
   103   50   52 1    
   104   52   53 1    
   105   52   54 1    
   106   52  175 1    
   107   53  176 1    
   108   53  177 1    
   109   53  178 1    
   110   54   55 am   BACKBONE|DICT|INTERRES
   111   54  179 1    
   112   55   56 2    
   113   55   57 1    
   114   57   58 1    
   115   57   59 1    
   116   57  180 1    
   117   58  181 1    
   118   58  182 1    
   119   58  183 1    
   120   59   60 am   BACKBONE|DICT|INTERRES
   121   59  184 1    
   122   60   61 2    
   123   60   62 1    
   124   62   63 1    
   125   62   64 1    
   126   62  185 1    
   127   63  186 1    
   128   63  187 1    
   129   63  188 1    
   130   64   65 am   BACKBONE|DICT|INTERRES
   131   64  189 1    
   132   65   66 2    
   133   67   68 2    
   134   67   69 am   BACKBONE|DICT|INTERRES
   135   69   70 1    
   136   69  190 1    
   137   70   71 1    
   138   70   72 1    
   139   70  191 1    
   140   71  192 1    
   141   71  193 1    
   142   71  194 1    
   143   72   73 2    
   144   72   74 am   BACKBONE|DICT|INTERRES
   145   74   75 1    
   146   74  195 1    
   147   75   76 1    
   148   75   77 1    
   149   75  196 1    
   150   76  197 1    
   151   76  198 1    
   152   76  199 1    
   153   77   78 2    
   154   77   79 am   BACKBONE|DICT|INTERRES
   155   79   80 1    
   156   79  200 1    
   157   80   81 1    
   158   80   82 1    
   159   80  201 1    
   160   81  202 1    
   161   81  203 1    
   162   81  204 1    
   163   82   83 2    
   164   82   84 am   BACKBONE|DICT|INTERRES
   165   84   85 1    
   166   84  205 1    
   167   85   86 1    
   168   85   87 1    
   169   85  206 1    
   170   86  207 1    
   171   86  208 1    
   172   86  209 1    
   173   87   88 2    
   174   87   89 am   BACKBONE|DICT|INTERRES
   175   89   90 1    
   176   89  210 1    
   177   90   91 1    
   178   90   92 1    
   179   90  211 1    
   180   91  212 1    
   181   91  213 1    
   182   91  214 1    
   183   92   93 2    
   184   92   94 am   BACKBONE|DICT|INTERRES
   185   94   95 1    
   186   94  215 1    
   187   95   96 1    
   188   95   97 1    
   189   95  216 1    
   190   96  217 1    
   191   96  218 1    
   192   96  219 1    
   193   97   98 2    
   194   97   99 am   BACKBONE|DICT|INTERRES
   195   99  100 1    
   196   99  220 1    
   197  100  101 1    
   198  100  102 1    
   199  100  221 1    
   200  101  222 1    
   201  101  223 1    
   202  101  224 1    
   203  102  103 2    
   204  102  104 am   BACKBONE|DICT|INTERRES
   205  104  105 1    
   206  104  225 1    
   207  105  106 1    
   208  105  107 1    
   209  105  226 1    
   210  106  227 1    
   211  106  228 1    
   212  106  229 1    
   213  107  108 2    
   214  107  109 am   BACKBONE|DICT|INTERRES
   215  109  110 1    
   216  109  230 1    
   217  110  111 1    
   218  110  112 1    
   219  110  231 1    
   220  111  232 1    
   221  111  233 1    
   222  111  234 1    
   223  112  113 2    
   224  112  114 am   BACKBONE|DICT|INTERRES
   225  114  115 1    
   226  114  235 1    
   227  115  116 1    
   228  115  117 1    
   229  115  236 1    
   230  116  237 1    
   231  116  238 1    
   232  116  239 1    
   233  117  118 2    
   234  117  119 am   BACKBONE|DICT|INTERRES
   235  119  120 1    
   236  119  240 1    
   237  120  121 1    
   238  120  124 1    
   239  120  241 1    
   240  121  122 am   BACKBONE|DICT|INTERRES
   241  121  123 2    
   242  122  242 1    
   243  122  243 1    
   244  124  125 1    
   245  124  244 1    
   246  124  245 1    
   247  125  126 1    
   248  126  246 1    
   249  126  247 1    
@<TRIPOS>SUBSTRUCTURE
     1 UNK         1 GROUP             0       ****    0 ROOT    
