@<TRIPOS>MOLECULE
3R540
247   249    1
SMALL
USER_CHARGES


@<TRIPOS>ATOM
      1 CA         -4.0062  -16.8400  -47.1213 C.3       0 UNK        -0.1800 
      2 C          -3.0214  -16.2324  -48.1081 C.2       0 UNK         0.5000 
      3 O          -3.2038  -16.3726  -49.3163 O.2       0 UNK        -0.5000 
      4 N          -1.9917  -15.5540  -47.5941 N.am      1 UNK        -0.5000 
      5 CA         -0.9738  -14.8260  -48.3574 C.3       1 UNK         0.1400 
      6 C6          0.4177  -15.5117  -48.2848 C.3       23 UNK        -0.0398 
      7 S7          0.5728  -16.9121  -49.4412 S.3       23 UNK        -0.2404 
      8 C8          0.4221  -18.3525  -48.3450 C.3       23 UNK        -0.0205 
      9 C9          0.8250  -19.6347  -49.0618 C.ar      23 UNK        -0.0193 
     10 C10         0.0420  -20.1363  -50.1057 C.ar      23 UNK        -0.1150 
     11 C11         0.3953  -21.3172  -50.7642 C.ar      23 UNK        -0.0193 
     12 C12         1.5436  -22.0049  -50.3648 C.ar      23 UNK        -0.1150 
     13 C13         2.3307  -21.5232  -49.3158 C.ar      23 UNK        -0.0193 
     14 C14         1.9746  -20.3305  -48.6765 C.ar      23 UNK        -0.1150 
     15 C15         3.5529  -22.3080  -48.8625 C.3       23 UNK        -0.0205 
     16 S16         3.0939  -23.7251  -47.8125 S.3       23 UNK        -0.2404 
     17 C17         2.4299  -22.8539  -46.3548 C.3       23 UNK        -0.0398 
     18 CA          1.8342  -23.7857  -45.2702 C.3       11 UNK         0.1400 
     19 N           1.9517  -23.1550  -43.9547 N.am      11 UNK        -0.5000 
     20 C           2.2817  -23.7613  -42.8102 C.2       10 UNK         0.5000 
     21 O           2.4752  -24.9724  -42.7056 O.2       10 UNK        -0.5000 
     22 CA          2.3919  -22.8540  -41.5701 C.3       10 UNK         0.1400 
     23 CB          3.7690  -22.1752  -41.5192 C.3       10 UNK        -0.1800 
     24 N           1.3453  -21.8298  -41.5234 N.am      10 UNK        -0.5000 
     25 C           0.0453  -22.0908  -41.3266 C.2       9 UNK         0.5000 
     26 O          -0.3982  -23.2229  -41.1350 O.2       9 UNK        -0.5000 
     27 CA         -0.9238  -20.8954  -41.3679 C.3       9 UNK         0.1400 
     28 CB         -0.9094  -20.1352  -40.0331 C.3       9 UNK        -0.1800 
     29 N          -0.6292  -19.9718  -42.4629 N.am      9 UNK        -0.5000 
     30 C          -0.8104  -20.2504  -43.7613 C.2       8 UNK         0.5000 
     31 O          -1.3089  -21.2961  -44.1716 O.2       8 UNK        -0.5000 
     32 CA         -0.3324  -19.1975  -44.7788 C.3       8 UNK         0.1400 
     33 CB         -1.4148  -18.1380  -45.0158 C.3       8 UNK        -0.1800 
     34 N           0.9131  -18.5379  -44.3860 N.am      8 UNK        -0.5000 
     35 C           2.0855  -19.1701  -44.2394 C.2       7 UNK         0.5000 
     36 O           2.2475  -20.3689  -44.4543 O.2       7 UNK        -0.5000 
     37 CA          3.2592  -18.3355  -43.7074 C.3       7 UNK         0.1400 
     38 CB          3.8925  -17.5064  -44.8345 C.3       7 UNK        -0.1800 
     39 N           2.8404  -17.4636  -42.6100 N.am      7 UNK        -0.5000 
     40 C           2.4672  -17.9077  -41.4002 C.2       6 UNK         0.5000 
     41 O           2.4832  -19.0943  -41.0723 O.2       6 UNK        -0.5000 
     42 CA          1.9411  -16.8537  -40.4091 C.3       6 UNK         0.1400 
     43 CB          3.1044  -16.1613  -39.6839 C.3       6 UNK        -0.1800 
     44 N           1.1025  -15.8451  -41.0589 N.am      6 UNK        -0.5000 
     45 C          -0.0884  -16.0980  -41.6209 C.2       5 UNK         0.5000 
     46 O          -0.6266  -17.2034  -41.6074 O.2       5 UNK        -0.5000 
     47 CA         -0.7684  -14.9348  -42.3649 C.3       5 UNK         0.1400 
     48 CB         -1.6643  -14.1290  -41.4137 C.3       5 UNK        -0.1800 
     49 N           0.1876  -14.0324  -43.0065 N.am      5 UNK        -0.5000 
     50 C           1.0107  -14.3636  -44.0089 C.2       4 UNK         0.5000 
     51 O           1.0477  -15.4903  -44.5088 O.2       4 UNK        -0.5000 
     52 CA          1.9380  -13.2406  -44.5173 C.3       4 UNK         0.1400 
     53 CB          2.8224  -13.6740  -45.6982 C.3       4 UNK        -0.1800 
     54 N           1.1720  -12.0512  -44.8959 N.am      4 UNK        -0.5000 
     55 C           0.7615  -11.1001  -44.0439 C.2       3 UNK         0.5000 
     56 O           0.9983  -11.1325  -42.8354 O.2       3 UNK        -0.5000 
     57 CA         -0.0744   -9.9369  -44.6128 C.3       3 UNK         0.1400 
     58 CB          0.8231   -8.7250  -44.9052 C.3       3 UNK        -0.1800 
     59 N          -0.8143  -10.2839  -45.8259 N.am      3 UNK        -0.5000 
     60 C          -1.8425  -11.1406  -45.8832 C.2       2 UNK         0.5000 
     61 O          -2.3051  -11.7213  -44.9001 O.2       2 UNK        -0.5000 
     62 CA         -2.4500  -11.4191  -47.2740 C.3       2 UNK         0.1400 
     63 CB         -2.0360  -10.4015  -48.3616 C.3       2 UNK        -0.1800 
     64 N          -2.1676  -12.7857  -47.7225 N.am      2 UNK        -0.5000 
     65 C          -0.9638  -13.3635  -47.8643 C.2       1 UNK         0.5000 
     66 O           0.0988  -12.7925  -47.6116 O.2       1 UNK        -0.5000 
     67 C           0.3760  -24.2011  -45.5837 C.2       11 UNK         0.5000 
     68 O           0.0462  -24.4324  -46.7465 O.2       11 UNK        -0.5000 
     69 N          -0.4830  -24.3147  -44.5580 N.am      12 UNK        -0.5000 
     70 CA         -1.9170  -24.6156  -44.6782 C.3       12 UNK         0.1400 
     71 CB         -2.5677  -24.5362  -43.2891 C.3       12 UNK        -0.1800 
     72 C          -2.2451  -25.9666  -45.3479 C.2       12 UNK         0.5000 
     73 O          -3.3605  -26.1456  -45.8381 O.2       12 UNK        -0.5000 
     74 N          -1.2668  -26.8816  -45.3781 N.am      13 UNK        -0.5000 
     75 CA         -1.3192  -28.1525  -46.0988 C.3       13 UNK         0.1400 
     76 CB         -0.1306  -29.0191  -45.6545 C.3       13 UNK        -0.1800 
     77 C          -1.3289  -27.9968  -47.6352 C.2       13 UNK         0.5000 
     78 O          -1.7585  -28.9268  -48.3193 O.2       13 UNK        -0.5000 
     79 N          -0.8560  -26.8519  -48.1529 N.am      14 UNK        -0.5000 
     80 CA         -0.8882  -26.5090  -49.5722 C.3       14 UNK         0.1400 
     81 CB          0.2766  -25.5550  -49.9064 C.3       14 UNK        -0.1800 
     82 C          -2.2692  -25.9371  -49.9427 C.2       14 UNK         0.5000 
     83 O          -3.1565  -26.7009  -50.3253 O.2       14 UNK        -0.5000 
     84 N          -2.4278  -24.6141  -49.8234 N.am      15 UNK        -0.5000 
     85 CA         -3.6305  -23.8486  -50.1448 C.3       15 UNK         0.1400 
     86 CB         -3.9320  -23.9029  -51.6641 C.3       15 UNK        -0.1800 
     87 C          -3.4420  -22.4157  -49.6084 C.2       15 UNK         0.5000 
     88 O          -2.7583  -22.2309  -48.5999 O.2       15 UNK        -0.5000 
     89 N          -4.0142  -21.4286  -50.3041 N.am      16 UNK        -0.5000 
     90 CA         -3.8322  -20.0005  -50.0764 C.3       16 UNK         0.1400 
     91 CB         -5.0969  -19.4349  -49.4107 C.3       16 UNK        -0.1800 
     92 C          -3.5926  -19.3316  -51.4366 C.2       16 UNK         0.5000 
     93 O          -4.1355  -19.7925  -52.4429 O.2       16 UNK        -0.5000 
     94 N          -2.8380  -18.2275  -51.4492 N.am      17 UNK        -0.5000 
     95 CA         -2.6561  -17.3830  -52.6311 C.3       17 UNK         0.1400 
     96 CB         -1.4494  -16.4579  -52.4342 C.3       17 UNK        -0.1800 
     97 C          -3.9284  -16.5736  -52.9380 C.2       17 UNK         0.5000 
     98 O          -4.2342  -16.3324  -54.1059 O.2       17 UNK        -0.5000 
     99 N          -4.6826  -16.2357  -51.8821 N.am      18 UNK        -0.5000 
    100 CA        -6.0274  -15.6643  -51.9493 C.3       18 UNK         0.1400 
    101 CB        -6.4804  -15.3027  -50.5267 C.3       18 UNK        -0.1800 
    102 C         -7.0526  -16.6019  -52.6224 C.2       18 UNK         0.5000 
    103 O         -8.0020  -16.1180  -53.2391 O.2       18 UNK        -0.5000 
    104 N         -6.8251  -17.9206  -52.5360 N.am      19 UNK        -0.5000 
    105 CA        -7.6100  -18.9631  -53.1960 C.3       19 UNK         0.1400 
    106 CB        -7.6336  -20.2210  -52.3085 C.3       19 UNK        -0.1800 
    107 C         -7.0648  -19.2377  -54.6121 C.2       19 UNK         0.5000 
    108 O         -6.6881  -20.3677  -54.9255 O.2       19 UNK        -0.5000 
    109 N         -7.0381  -18.1820  -55.4379 N.am      20 UNK        -0.5000 
    110 CA        -6.6530  -18.1659  -56.8521 C.3       20 UNK         0.1400 
    111 CB        -7.6991  -18.9200  -57.7001 C.3       20 UNK        -0.1800 
    112 C         -5.2109  -18.6556  -57.1004 C.2       20 UNK         0.5000 
    113 O         -4.9974  -19.5862  -57.8805 O.2       20 UNK        -0.5000 
    114 N         -4.2462  -18.0130  -56.4251 N.am      21 UNK        -0.5000 
    115 CA        -2.7964  -18.1909  -56.5779 C.3       21 UNK         0.1400 
    116 CB        -2.3328  -17.6365  -57.9414 C.3       21 UNK        -0.1800 
    117 C         -2.3293  -19.6399  -56.3266 C.2       21 UNK         0.5000 
    118 O         -1.5239  -20.1712  -57.0932 O.2       21 UNK        -0.5000 
    119 N         -2.8710  -20.2539  -55.2665 N.am      22 UNK        -0.5000 
    120 CA        -2.6616  -21.6564  -54.8688 C.3       22 UNK         0.1400 
    121 C         -3.3620  -22.7023  -55.7910 C.2       22 UNK         0.5000 
    122 N         -4.1888  -22.3115  -56.7543 N.am      22 UNK        -0.7600 
    123 O         -3.1761  -23.9029  -55.6126 O.2       22 UNK        -0.5000 
    124 C124       -1.1726  -22.0265  -54.5961 C.3       23 UNK        -0.0398 
    125 S125       -0.3191  -20.9169  -53.4190 S.3       23 UNK        -0.2404 
    126 C126       -0.4772  -21.8705  -51.8804 C.3       23 UNK        -0.0205 
    127 H127       -3.8295  -16.4902  -46.1040 H         1 UNK         0.0600 
    128 H128       -3.9221  -17.9260  -47.1292 H         1 UNK         0.0600 
    129 H129       -5.0262  -16.5731  -47.3977 H         1 UNK         0.0600 
    130 H130       -1.9194  -15.4549  -46.5914 H         1 UNK         0.3000 
    131 H131       -1.2651  -14.7602  -49.4073 H         1 UNK         0.0600 
    132 H132        0.6494  -15.8250  -47.2657 H         1 UNK         0.0800 
    133 H133        1.2100  -14.8205  -48.5753 H         1 UNK         0.0800 
    134 H134       -0.6089  -18.4364  -47.9997 H         1 UNK         0.0800 
    135 H135        1.0414  -18.2002  -47.4597 H         1 UNK         0.0800 
    136 H136       -0.8375  -19.5978  -50.4150 H         1 UNK         0.1150 
    137 H137        1.8183  -22.9279  -50.8560 H         1 UNK         0.1150 
    138 H138        2.5818  -19.9564  -47.8639 H         1 UNK         0.1150 
    139 H139        4.0938  -22.6750  -49.7359 H         1 UNK         0.0800 
    140 H140        4.2474  -21.6631  -48.3218 H         1 UNK         0.0800 
    141 H141        1.6922  -22.1107  -46.6587 H         1 UNK         0.0800 
    142 H142        3.2681  -22.2901  -45.9427 H         1 UNK         0.0800 
    143 H143        2.4206  -24.7067  -45.2612 H         1 UNK         0.0600 
    144 H144        1.8472  -22.1429  -43.9514 H         1 UNK         0.3000 
    145 H145        2.2907  -23.4849  -40.6846 H         1 UNK         0.0600 
    146 H146        3.8867  -21.5922  -40.6056 H         1 UNK         0.0600 
    147 H147        3.9179  -21.5029  -42.3650 H         1 UNK         0.0600 
    148 H148        4.5711  -22.9140  -41.5398 H         1 UNK         0.0600 
    149 H149        1.6452  -20.8651  -41.6224 H         1 UNK         0.3000 
    150 H150       -1.9309  -21.2893  -41.5198 H         1 UNK         0.0600 
    151 H151       -1.1404  -20.8016  -39.2012 H         1 UNK         0.0600 
    152 H152       -1.6526  -19.3377  -40.0269 H         1 UNK         0.0600 
    153 H153        0.0638  -19.6858  -39.8345 H         1 UNK         0.0600 
    154 H154       -0.2976  -19.0481  -42.2036 H         1 UNK         0.3000 
    155 H155       -0.1484  -19.7155  -45.7223 H         1 UNK         0.0600 
    156 H156       -2.3230  -18.5983  -45.4050 H         1 UNK         0.0600 
    157 H157       -1.0811  -17.3948  -45.7378 H         1 UNK         0.0600 
    158 H158       -1.6794  -17.6171  -44.0961 H         1 UNK         0.0600 
    159 H159        0.8746  -17.5384  -44.2173 H         1 UNK         0.3000 
    160 H160        4.0170  -19.0226  -43.3248 H         1 UNK         0.0600 
    161 H161        3.1655  -16.8534  -45.3165 H         1 UNK         0.0600 
    162 H162        4.3027  -18.1575  -45.6075 H         1 UNK         0.0600 
    163 H163        4.7095  -16.8881  -44.4627 H         1 UNK         0.0600 
    164 H164        2.7501  -16.4807  -42.8182 H         1 UNK         0.3000 
    165 H165        1.3334  -17.3715  -39.6639 H         1 UNK         0.0600 
    166 H166        2.7393  -15.4676  -38.9263 H         1 UNK         0.0600 
    167 H167        3.7369  -16.8912  -39.1768 H         1 UNK         0.0600 
    168 H168        3.7369  -15.6023  -40.3747 H         1 UNK         0.0600 
    169 H169        1.4695  -14.9064  -41.1105 H         1 UNK         0.3000 
    170 H170       -1.3988  -15.3636  -43.1461 H         1 UNK         0.0600 
    171 H171       -1.0854  -13.6500  -40.6231 H         1 UNK         0.0600 
    172 H172       -2.2073  -13.3507  -41.9509 H         1 UNK         0.0600 
    173 H173       -2.4053  -14.7719  -40.9366 H         1 UNK         0.0600 
    174 H174        0.2232  -13.0791  -42.6640 H         1 UNK         0.3000 
    175 H175        2.6081  -12.9850  -43.6939 H         1 UNK         0.0600 
    176 H176        2.2299  -14.0103  -46.5469 H         1 UNK         0.0600 
    177 H177        3.4557  -12.8544  -46.0376 H         1 UNK         0.0600 
    178 H178        3.4823  -14.4925  -45.4114 H         1 UNK         0.0600 
    179 H179        0.8690  -12.0080  -45.8638 H         1 UNK         0.3000 
    180 H180       -0.7979   -9.6489  -43.8471 H         1 UNK         0.0600 
    181 H181        0.2348   -7.8676  -45.2328 H         1 UNK         0.0600 
    182 H182        1.5574   -8.9460  -45.6810 H         1 UNK         0.0600 
    183 H183        1.3705   -8.4194  -44.0124 H         1 UNK         0.0600 
    184 H184       -0.4843   -9.8758  -46.6884 H         1 UNK         0.3000 
    185 H185       -3.5318  -11.3472  -47.1525 H         1 UNK         0.0600 
    186 H186       -0.9696  -10.4415  -48.5858 H         1 UNK         0.0600 
    187 H187       -2.5716  -10.5917  -49.2917 H         1 UNK         0.0600 
    188 H188       -2.2767   -9.3815  -48.0589 H         1 UNK         0.0600 
    189 H189       -2.9802  -13.3531  -47.9173 H         1 UNK         0.3000 
    190 H190       -0.1489  -24.0926  -43.6308 H         1 UNK         0.3000 
    191 H191       -2.3584  -23.8374  -45.3045 H         1 UNK         0.0600 
    192 H192       -2.4887  -23.5304  -42.8774 H         1 UNK         0.0600 
    193 H193       -2.1008  -25.2269  -42.5860 H         1 UNK         0.0600 
    194 H194       -3.6299  -24.7797  -43.3357 H         1 UNK         0.0600 
    195 H195       -0.3880  -26.6440  -44.9427 H         1 UNK         0.3000 
    196 H196       -2.2414  -28.6640  -45.8156 H         1 UNK         0.0600 
    197 H197       -0.1529  -29.1995  -44.5795 H         1 UNK         0.0600 
    198 H198        0.8229  -28.5485  -45.8977 H         1 UNK         0.0600 
    199 H199       -0.1510  -29.9927  -46.1461 H         1 UNK         0.0600 
    200 H200       -0.5469  -26.1140  -47.5260 H         1 UNK         0.3000 
    201 H201       -0.7410  -27.4145  -50.1647 H         1 UNK         0.0600 
    202 H202        1.2375  -26.0264  -49.6999 H         1 UNK         0.0600 
    203 H203        0.2398  -24.6288  -49.3332 H         1 UNK         0.0600 
    204 H204        0.2691  -25.2872  -50.9635 H         1 UNK         0.0600 
    205 H205       -1.6864  -24.0638  -49.4069 H         1 UNK         0.3000 
    206 H206       -4.4704  -24.2847  -49.6011 H         1 UNK         0.0600 
    207 H207       -3.1099  -23.4968  -52.2523 H         1 UNK         0.0600 
    208 H208       -4.0989  -24.9241  -52.0049 H         1 UNK         0.0600 
    209 H209       -4.8361  -23.3498  -51.9204 H         1 UNK         0.0600 
    210 H210       -4.5002  -21.6489  -51.1634 H         1 UNK         0.3000 
    211 H211       -2.9692  -19.8125  -49.4345 H         1 UNK         0.0600 
    212 H212       -5.9975  -19.6968  -49.9644 H         1 UNK         0.0600 
    213 H213       -5.0632  -18.3480  -49.3472 H         1 UNK         0.0600 
    214 H214       -5.2088  -19.8199  -48.3971 H         1 UNK         0.0600 
    215 H215       -2.5221  -17.8278  -50.5722 H         1 UNK         0.3000 
    216 H216       -2.4484  -18.0282  -53.4852 H         1 UNK         0.0600 
    217 H217       -1.2943  -15.8261  -53.3095 H         1 UNK         0.0600 
    218 H218       -0.5365  -17.0345  -52.2846 H         1 UNK         0.0600 
    219 H219       -1.5804  -15.8022  -51.5734 H         1 UNK         0.0600 
    220 H220       -4.3064  -16.4110  -50.9550 H         1 UNK         0.3000 
    221 H221       -5.9751  -14.7484  -52.5412 H         1 UNK         0.0600 
    222 H222       -6.5305  -16.1832  -49.8846 H         1 UNK         0.0600 
    223 H223       -5.7963  -14.5909  -50.0642 H         1 UNK         0.0600 
    224 H224       -7.4701  -14.8444  -50.5356 H         1 UNK         0.0600 
    225 H225       -5.9771  -18.2306  -52.0852 H         1 UNK         0.3000 
    226 H226       -8.6427  -18.6264  -53.3079 H         1 UNK         0.0600 
    227 H227       -8.0454  -20.0006  -51.3237 H         1 UNK         0.0600 
    228 H228       -8.2579  -20.9974  -52.7520 H         1 UNK         0.0600 
    229 H229       -6.6380  -20.6427  -52.1728 H         1 UNK         0.0600 
    230 H230       -7.3457  -17.2951  -55.0581 H         1 UNK         0.3000 
    231 H231       -6.6753  -17.1207  -57.1639 H         1 UNK         0.0600 
    232 H232       -7.4764  -18.8315  -58.7641 H         1 UNK         0.0600 
    233 H233       -8.6990  -18.5150  -57.5443 H         1 UNK         0.0600 
    234 H234       -7.7272  -19.9834  -57.4598 H         1 UNK         0.0600 
    235 H235       -4.5158  -17.3087  -55.7428 H         1 UNK         0.3000 
    236 H236       -2.3252  -17.5803  -55.8075 H         1 UNK         0.0600 
    237 H237       -2.6503  -16.6023  -58.0744 H         1 UNK         0.0600 
    238 H238       -1.2453  -17.6530  -58.0217 H         1 UNK         0.0600 
    239 H239       -2.7315  -18.2193  -58.7725 H         1 UNK         0.0600 
    240 H240       -3.5474  -19.7564  -54.7021 H         1 UNK         0.3000 
    241 H241       -3.1861  -21.7522  -53.9192 H         1 UNK         0.0600 
    242 H242       -4.6398  -23.0069  -57.3264 H         1 UNK         0.3800 
    243 H243       -4.3690  -21.3298  -56.9305 H         1 UNK         0.3800 
    244 H244       -0.6049  -22.0234  -55.5270 H         1 UNK         0.0800 
    245 H245       -1.1010  -23.0492  -54.2233 H         1 UNK         0.0800 
    246 H246       -1.5186  -21.8473  -51.5712 H         1 UNK         0.0800 
    247 H247       -0.2294  -22.9167  -52.0650 H         1 UNK         0.0800 
@<TRIPOS>BOND
     1    1    2 1    
     2    1  127 1    
     3    1  128 1    
     4    1  129 1    
     5    2    3 2    
     6    2    4 am   BACKBONE|DICT|INTERRES
     7    4    5 1    
     8    4  130 1    
     9    5    6 1    
    10    5   65 1    
    11    5  131 1    
    12    6    7 1    
    13    6  132 1    
    14    6  133 1    
    15    7    8 1    
    16    8    9 1    
    17    8  134 1    
    18    8  135 1    
    19    9   10 ar   
    20    9   14 ar   
    21   10   11 ar   
    22   10  136 1    
    23   11   12 ar   
    24   11  126 1    
    25   12   13 ar   
    26   12  137 1    
    27   13   14 ar   
    28   13   15 1    
    29   14  138 1    
    30   15   16 1    
    31   15  139 1    
    32   15  140 1    
    33   16   17 1    
    34   17   18 1    
    35   17  141 1    
    36   17  142 1    
    37   18   19 1    
    38   18   67 1    
    39   18  143 1    
    40   19   20 am   BACKBONE|DICT|INTERRES
    41   19  144 1    
    42   20   21 2    
    43   20   22 1    
    44   22   23 1    
    45   22   24 1    
    46   22  145 1    
    47   23  146 1    
    48   23  147 1    
    49   23  148 1    
    50   24   25 am   BACKBONE|DICT|INTERRES
    51   24  149 1    
    52   25   26 2    
    53   25   27 1    
    54   27   28 1    
    55   27   29 1    
    56   27  150 1    
    57   28  151 1    
    58   28  152 1    
    59   28  153 1    
    60   29   30 am   BACKBONE|DICT|INTERRES
    61   29  154 1    
    62   30   31 2    
    63   30   32 1    
    64   32   33 1    
    65   32   34 1    
    66   32  155 1    
    67   33  156 1    
    68   33  157 1    
    69   33  158 1    
    70   34   35 am   BACKBONE|DICT|INTERRES
    71   34  159 1    
    72   35   36 2    
    73   35   37 1    
    74   37   38 1    
    75   37   39 1    
    76   37  160 1    
    77   38  161 1    
    78   38  162 1    
    79   38  163 1    
    80   39   40 am   BACKBONE|DICT|INTERRES
    81   39  164 1    
    82   40   41 2    
    83   40   42 1    
    84   42   43 1    
    85   42   44 1    
    86   42  165 1    
    87   43  166 1    
    88   43  167 1    
    89   43  168 1    
    90   44   45 am   BACKBONE|DICT|INTERRES
    91   44  169 1    
    92   45   46 2    
    93   45   47 1    
    94   47   48 1    
    95   47   49 1    
    96   47  170 1    
    97   48  171 1    
    98   48  172 1    
    99   48  173 1    
   100   49   50 am   BACKBONE|DICT|INTERRES
   101   49  174 1    
   102   50   51 2    
   103   50   52 1    
   104   52   53 1    
   105   52   54 1    
   106   52  175 1    
   107   53  176 1    
   108   53  177 1    
   109   53  178 1    
   110   54   55 am   BACKBONE|DICT|INTERRES
   111   54  179 1    
   112   55   56 2    
   113   55   57 1    
   114   57   58 1    
   115   57   59 1    
   116   57  180 1    
   117   58  181 1    
   118   58  182 1    
   119   58  183 1    
   120   59   60 am   BACKBONE|DICT|INTERRES
   121   59  184 1    
   122   60   61 2    
   123   60   62 1    
   124   62   63 1    
   125   62   64 1    
   126   62  185 1    
   127   63  186 1    
   128   63  187 1    
   129   63  188 1    
   130   64   65 am   BACKBONE|DICT|INTERRES
   131   64  189 1    
   132   65   66 2    
   133   67   68 2    
   134   67   69 am   BACKBONE|DICT|INTERRES
   135   69   70 1    
   136   69  190 1    
   137   70   71 1    
   138   70   72 1    
   139   70  191 1    
   140   71  192 1    
   141   71  193 1    
   142   71  194 1    
   143   72   73 2    
   144   72   74 am   BACKBONE|DICT|INTERRES
   145   74   75 1    
   146   74  195 1    
   147   75   76 1    
   148   75   77 1    
   149   75  196 1    
   150   76  197 1    
   151   76  198 1    
   152   76  199 1    
   153   77   78 2    
   154   77   79 am   BACKBONE|DICT|INTERRES
   155   79   80 1    
   156   79  200 1    
   157   80   81 1    
   158   80   82 1    
   159   80  201 1    
   160   81  202 1    
   161   81  203 1    
   162   81  204 1    
   163   82   83 2    
   164   82   84 am   BACKBONE|DICT|INTERRES
   165   84   85 1    
   166   84  205 1    
   167   85   86 1    
   168   85   87 1    
   169   85  206 1    
   170   86  207 1    
   171   86  208 1    
   172   86  209 1    
   173   87   88 2    
   174   87   89 am   BACKBONE|DICT|INTERRES
   175   89   90 1    
   176   89  210 1    
   177   90   91 1    
   178   90   92 1    
   179   90  211 1    
   180   91  212 1    
   181   91  213 1    
   182   91  214 1    
   183   92   93 2    
   184   92   94 am   BACKBONE|DICT|INTERRES
   185   94   95 1    
   186   94  215 1    
   187   95   96 1    
   188   95   97 1    
   189   95  216 1    
   190   96  217 1    
   191   96  218 1    
   192   96  219 1    
   193   97   98 2    
   194   97   99 am   BACKBONE|DICT|INTERRES
   195   99  100 1    
   196   99  220 1    
   197  100  101 1    
   198  100  102 1    
   199  100  221 1    
   200  101  222 1    
   201  101  223 1    
   202  101  224 1    
   203  102  103 2    
   204  102  104 am   BACKBONE|DICT|INTERRES
   205  104  105 1    
   206  104  225 1    
   207  105  106 1    
   208  105  107 1    
   209  105  226 1    
   210  106  227 1    
   211  106  228 1    
   212  106  229 1    
   213  107  108 2    
   214  107  109 am   BACKBONE|DICT|INTERRES
   215  109  110 1    
   216  109  230 1    
   217  110  111 1    
   218  110  112 1    
   219  110  231 1    
   220  111  232 1    
   221  111  233 1    
   222  111  234 1    
   223  112  113 2    
   224  112  114 am   BACKBONE|DICT|INTERRES
   225  114  115 1    
   226  114  235 1    
   227  115  116 1    
   228  115  117 1    
   229  115  236 1    
   230  116  237 1    
   231  116  238 1    
   232  116  239 1    
   233  117  118 2    
   234  117  119 am   BACKBONE|DICT|INTERRES
   235  119  120 1    
   236  119  240 1    
   237  120  121 1    
   238  120  124 1    
   239  120  241 1    
   240  121  122 am   BACKBONE|DICT|INTERRES
   241  121  123 2    
   242  122  242 1    
   243  122  243 1    
   244  124  125 1    
   245  124  244 1    
   246  124  245 1    
   247  125  126 1    
   248  126  246 1    
   249  126  247 1    
@<TRIPOS>SUBSTRUCTURE
     1 UNK         1 GROUP             0       ****    0 ROOT    
