@<TRIPOS>MOLECULE
3R540
247   249    1
SMALL
USER_CHARGES


@<TRIPOS>ATOM
      1 CA          0.3315  -14.5728  -50.9565 C.3       0 UNK        -0.1800 
      2 C           1.5372  -13.8267  -50.4094 C.2       0 UNK         0.5000 
      3 O           1.5702  -12.5961  -50.4481 O.2       0 UNK        -0.5000 
      4 N           2.5217  -14.5632  -49.8813 N.am      1 UNK        -0.5000 
      5 CA          3.7547  -14.0348  -49.2871 C.3       1 UNK         0.1400 
      6 C6          4.9000  -15.0791  -49.3120 C.3       23 UNK        -0.0398 
      7 S7          5.3956  -15.4990  -51.0173 S.3       23 UNK        -0.2404 
      8 C8          5.7310  -17.2896  -50.8853 C.3       23 UNK        -0.0205 
      9 C9          4.5048  -18.1783  -50.6723 C.ar      23 UNK        -0.0193 
     10 C10         3.2345  -17.8280  -51.1487 C.ar      23 UNK        -0.1150 
     11 C11         2.1408  -18.6806  -50.9664 C.ar      23 UNK        -0.0193 
     12 C12         2.3262  -19.9008  -50.3099 C.ar      23 UNK        -0.1150 
     13 C13         3.5936  -20.2825  -49.8620 C.ar      23 UNK        -0.0193 
     14 C14         4.6727  -19.4120  -50.0353 C.ar      23 UNK        -0.1150 
     15 C15         3.8115  -21.6643  -49.2608 C.3       23 UNK        -0.0205 
     16 S16         4.1119  -21.6419  -47.4643 S.3       23 UNK        -0.2404 
     17 C17         2.5687  -20.9431  -46.7924 C.3       23 UNK        -0.0398 
     18 CA          1.4496  -21.9966  -46.5668 C.3       11 UNK         0.1400 
     19 N           0.6955  -21.7525  -45.3316 N.am      11 UNK        -0.5000 
     20 C          -0.2751  -22.5398  -44.8428 C.2       10 UNK         0.5000 
     21 O          -0.6071  -23.6122  -45.3467 O.2       10 UNK        -0.5000 
     22 CA         -1.0406  -22.0183  -43.6116 C.3       10 UNK         0.1400 
     23 CB         -0.3041  -22.3798  -42.3137 C.3       10 UNK        -0.1800 
     24 N          -1.2822  -20.5751  -43.6634 N.am      10 UNK        -0.5000 
     25 C          -2.0296  -19.9625  -44.5944 C.2       9 UNK         0.5000 
     26 O          -2.6482  -20.5596  -45.4739 O.2       9 UNK        -0.5000 
     27 CA         -2.0319  -18.4232  -44.5853 C.3       9 UNK         0.1400 
     28 CB         -2.9784  -17.8834  -43.5035 C.3       9 UNK        -0.1800 
     29 N          -0.6900  -17.8738  -44.3928 N.am      9 UNK        -0.5000 
     30 C           0.3391  -18.0701  -45.2296 C.2       8 UNK         0.5000 
     31 O           0.2431  -18.6641  -46.3041 O.2       8 UNK        -0.5000 
     32 CA          1.7174  -17.5765  -44.7578 C.3       8 UNK         0.1400 
     33 CB          1.9127  -16.0924  -45.0730 C.3       8 UNK        -0.1800 
     34 N           1.9162  -17.7918  -43.3258 N.am      8 UNK        -0.5000 
     35 C           2.1327  -18.9882  -42.7652 C.2       7 UNK         0.5000 
     36 O           2.2079  -20.0364  -43.4042 O.2       7 UNK        -0.5000 
     37 CA          2.2473  -19.0204  -41.2306 C.3       7 UNK         0.1400 
     38 CB          3.6691  -18.6482  -40.7847 C.3       7 UNK        -0.1800 
     39 N           1.2845  -18.1322  -40.5774 N.am      7 UNK        -0.5000 
     40 C          -0.0426  -18.3180  -40.5948 C.2       6 UNK         0.5000 
     41 O          -0.5907  -19.2725  -41.1446 O.2       6 UNK        -0.5000 
     42 CA         -0.9045  -17.2341  -39.9213 C.3       6 UNK         0.1400 
     43 CB         -1.0554  -17.5219  -38.4202 C.3       6 UNK        -0.1800 
     44 N          -0.3963  -15.8710  -40.1066 N.am      6 UNK        -0.5000 
     45 C          -0.2443  -15.2689  -41.2933 C.2       5 UNK         0.5000 
     46 O          -0.4332  -15.8307  -42.3744 O.2       5 UNK        -0.5000 
     47 CA          0.2441  -13.8113  -41.2689 C.3       5 UNK         0.1400 
     48 CB          1.7607  -13.7539  -41.5083 C.3       5 UNK        -0.1800 
     49 N          -0.4362  -13.0249  -42.2957 N.am      5 UNK        -0.5000 
     50 C          -1.7039  -12.5941  -42.2050 C.2       4 UNK         0.5000 
     51 O          -2.3923  -12.7191  -41.1909 O.2       4 UNK        -0.5000 
     52 CA         -2.3150  -11.9111  -43.4480 C.3       4 UNK         0.1400 
     53 CB         -2.1727  -10.3846  -43.3480 C.3       4 UNK        -0.1800 
     54 N          -1.7090  -12.3626  -44.7002 N.am      4 UNK        -0.5000 
     55 C          -1.8378  -13.5952  -45.2074 C.2       3 UNK         0.5000 
     56 O          -2.6432  -14.4193  -44.7756 O.2       3 UNK        -0.5000 
     57 CA         -0.9130  -13.9926  -46.3795 C.3       3 UNK         0.1400 
     58 CB         -1.7319  -14.2774  -47.6476 C.3       3 UNK        -0.1800 
     59 N           0.1673  -13.0528  -46.7190 N.am      3 UNK        -0.5000 
     60 C           1.1455  -12.6071  -45.9145 C.2       2 UNK         0.5000 
     61 O           1.2088  -12.8547  -44.7105 O.2       2 UNK        -0.5000 
     62 CA          2.2192  -11.7307  -46.5895 C.3       2 UNK         0.1400 
     63 CB          3.3436  -11.2908  -45.6278 C.3       2 UNK        -0.1800 
     64 N           2.7584  -12.3754  -47.7919 N.am      2 UNK        -0.5000 
     65 C           3.4673  -13.5121  -47.8640 C.2       1 UNK         0.5000 
     66 O           3.8516  -14.1526  -46.8857 O.2       1 UNK        -0.5000 
     67 C           0.5171  -22.0854  -47.7925 C.2       11 UNK         0.5000 
     68 O           0.6283  -23.0280  -48.5764 O.2       11 UNK        -0.5000 
     69 N          -0.4073  -21.1210  -47.9135 N.am      12 UNK        -0.5000 
     70 CA         -1.4415  -21.1036  -48.9469 C.3       12 UNK         0.1400 
     71 CB         -2.1731  -19.7535  -48.9315 C.3       12 UNK        -0.1800 
     72 C          -2.4321  -22.2700  -48.7903 C.2       12 UNK         0.5000 
     73 O          -2.6859  -22.9835  -49.7596 O.2       12 UNK        -0.5000 
     74 N          -2.9500  -22.4690  -47.5686 N.am      13 UNK        -0.5000 
     75 CA         -3.9178  -23.5151  -47.2228 C.3       13 UNK         0.1400 
     76 CB         -4.3271  -23.3797  -45.7503 C.3       13 UNK        -0.1800 
     77 C          -3.4298  -24.9446  -47.5181 C.2       13 UNK         0.5000 
     78 O          -4.2383  -25.7852  -47.9113 O.2       13 UNK        -0.5000 
     79 N          -2.1177  -25.1822  -47.3830 N.am      14 UNK        -0.5000 
     80 CA         -1.4492  -26.4420  -47.7154 C.3       14 UNK         0.1400 
     81 CB          0.0177  -26.3703  -47.2648 C.3       14 UNK        -0.1800 
     82 C          -1.5409  -26.8394  -49.2046 C.2       14 UNK         0.5000 
     83 O          -1.4091  -28.0249  -49.5116 O.2       14 UNK        -0.5000 
     84 N          -1.7866  -25.8706  -50.1009 N.am      15 UNK        -0.5000 
     85 CA         -2.0341  -26.1156  -51.5244 C.3       15 UNK         0.1400 
     86 CB         -1.7568  -24.8303  -52.3191 C.3       15 UNK        -0.1800 
     87 C          -3.4640  -26.6208  -51.8065 C.2       15 UNK         0.5000 
     88 O          -3.7047  -27.1473  -52.8937 O.2       15 UNK        -0.5000 
     89 N          -4.3808  -26.4454  -50.8409 N.am      16 UNK        -0.5000 
     90 CA         -5.7980  -26.8273  -50.8184 C.3       16 UNK         0.1400 
     91 CB         -5.9695  -28.3557  -50.9100 C.3       16 UNK        -0.1800 
     92 C          -6.6664  -26.0935  -51.8571 C.2       16 UNK         0.5000 
     93 O          -7.5838  -25.3651  -51.4793 O.2       16 UNK        -0.5000 
     94 N          -6.3581  -26.2812  -53.1446 N.am      17 UNK        -0.5000 
     95 CA         -7.0561  -25.6715  -54.2778 C.3       17 UNK         0.1400 
     96 CB         -6.6749  -26.4286  -55.5589 C.3       17 UNK        -0.1800 
     97 C          -6.7584  -24.1680  -54.4328 C.2       17 UNK         0.5000 
     98 O          -7.5724  -23.4467  -55.0101 O.2       17 UNK        -0.5000 
     99 N          -5.6066  -23.7273  -53.9115 N.am      18 UNK        -0.5000 
    100 CA        -5.1205  -22.3484  -53.9607 C.3       18 UNK         0.1400 
    101 CB        -3.7699  -22.3288  -54.6978 C.3       18 UNK        -0.1800 
    102 C         -5.0394  -21.7402  -52.5460 C.2       18 UNK         0.5000 
    103 O         -4.1920  -20.8834  -52.2909 O.2       18 UNK        -0.5000 
    104 N         -5.9342  -22.1812  -51.6474 N.am      19 UNK        -0.5000 
    105 CA        -6.0154  -21.7468  -50.2487 C.3       19 UNK         0.1400 
    106 CB        -7.0723  -22.5841  -49.5144 C.3       19 UNK        -0.1800 
    107 C         -6.2817  -20.2418  -50.0576 C.2       19 UNK         0.5000 
    108 O         -5.8773  -19.6785  -49.0398 O.2       19 UNK        -0.5000 
    109 N         -6.9205  -19.6074  -51.0488 N.am      20 UNK        -0.5000 
    110 CA        -7.1690  -18.1688  -51.1227 C.3       20 UNK         0.1400 
    111 CB        -8.3272  -17.9227  -52.1063 C.3       20 UNK        -0.1800 
    112 C         -5.8915  -17.3874  -51.5009 C.2       20 UNK         0.5000 
    113 O         -5.8341  -16.7760  -52.5695 O.2       20 UNK        -0.5000 
    114 N         -4.8799  -17.4450  -50.6221 N.am      21 UNK        -0.5000 
    115 CA        -3.6029  -16.7204  -50.6804 C.3       21 UNK         0.1400 
    116 CB        -3.8412  -15.2225  -50.3972 C.3       21 UNK        -0.1800 
    117 C         -2.8017  -16.9571  -51.9811 C.2       21 UNK         0.5000 
    118 O         -2.1782  -16.0271  -52.4934 O.2       21 UNK        -0.5000 
    119 N         -2.8540  -18.1892  -52.5051 N.am      22 UNK        -0.5000 
    120 CA        -2.2936  -18.5999  -53.8049 C.3       22 UNK         0.1400 
    121 C         -3.0328  -18.0120  -55.0484 C.2       22 UNK         0.5000 
    122 N         -4.1956  -17.3848  -54.9120 N.am      22 UNK        -0.7600 
    123 O         -2.5640  -18.1581  -56.1740 O.2       22 UNK        -0.5000 
    124 C124       -0.7484  -18.4535  -53.9044 C.3       23 UNK        -0.0398 
    125 S125        0.1447  -19.5049  -52.7077 S.3       23 UNK        -0.2404 
    126 C126        0.7686  -18.2912  -51.5007 C.3       23 UNK        -0.0205 
    127 H127        0.4650  -14.7784  -52.0185 H         1 UNK         0.0600 
    128 H128       -0.5713  -13.9737  -50.8394 H         1 UNK         0.0600 
    129 H129        0.1770  -15.5173  -50.4354 H         1 UNK         0.0600 
    130 H130        2.4303  -15.5680  -49.8558 H         1 UNK         0.3000 
    131 H131        4.0870  -13.1775  -49.8773 H         1 UNK         0.0600 
    132 H132        4.6059  -15.9840  -48.7770 H         1 UNK         0.0800 
    133 H133        5.7831  -14.6932  -48.7996 H         1 UNK         0.0800 
    134 H134        6.4501  -17.4444  -50.0791 H         1 UNK         0.0800 
    135 H135        6.2252  -17.6121  -51.8025 H         1 UNK         0.0800 
    136 H136        3.0961  -16.8978  -51.6803 H         1 UNK         0.1150 
    137 H137        1.4878  -20.5715  -50.1893 H         1 UNK         0.1150 
    138 H138        5.6540  -19.7116  -49.6940 H         1 UNK         0.1150 
    139 H139        2.9713  -22.3208  -49.4849 H         1 UNK         0.0800 
    140 H140        4.6751  -22.1226  -49.7448 H         1 UNK         0.0800 
    141 H141        2.2383  -20.0999  -47.4011 H         1 UNK         0.0800 
    142 H142        2.8566  -20.5019  -45.8397 H         1 UNK         0.0800 
    143 H143        1.9128  -22.9775  -46.4402 H         1 UNK         0.0600 
    144 H144        0.9418  -20.9195  -44.8099 H         1 UNK         0.3000 
    145 H145       -2.0125  -22.5133  -43.5903 H         1 UNK         0.0600 
    146 H146       -0.8826  -22.0852  -41.4380 H         1 UNK         0.0600 
    147 H147        0.6686  -21.8928  -42.2501 H         1 UNK         0.0600 
    148 H148       -0.1376  -23.4556  -42.2465 H         1 UNK         0.0600 
    149 H149       -0.8531  -20.0163  -42.9316 H         1 UNK         0.3000 
    150 H150       -2.3937  -18.0809  -45.5572 H         1 UNK         0.0600 
    151 H151       -3.9996  -18.2250  -43.6753 H         1 UNK         0.0600 
    152 H152       -2.9951  -16.7937  -43.5005 H         1 UNK         0.0600 
    153 H153       -2.6855  -18.2141  -42.5077 H         1 UNK         0.0600 
    154 H154       -0.5429  -17.3096  -43.5595 H         1 UNK         0.3000 
    155 H155        2.4791  -18.1369  -45.3034 H         1 UNK         0.0600 
    156 H156        1.7736  -15.8949  -46.1365 H         1 UNK         0.0600 
    157 H157        2.9175  -15.7612  -44.8107 H         1 UNK         0.0600 
    158 H158        1.2062  -15.4748  -44.5201 H         1 UNK         0.0600 
    159 H159        1.8062  -16.9871  -42.7268 H         1 UNK         0.3000 
    160 H160        2.0437  -20.0423  -40.9035 H         1 UNK         0.0600 
    161 H161        3.9244  -17.6239  -41.0595 H         1 UNK         0.0600 
    162 H162        4.4069  -19.3058  -41.2465 H         1 UNK         0.0600 
    163 H163        3.7811  -18.7442  -39.7046 H         1 UNK         0.0600 
    164 H164        1.6529  -17.3207  -40.1038 H         1 UNK         0.3000 
    165 H165       -1.8966  -17.2777  -40.3749 H         1 UNK         0.0600 
    166 H166       -1.7449  -16.8199  -37.9510 H         1 UNK         0.0600 
    167 H167       -1.4516  -18.5245  -38.2528 H         1 UNK         0.0600 
    168 H168       -0.1000  -17.4551  -37.8983 H         1 UNK         0.0600 
    169 H169       -0.2047  -15.3472  -39.2647 H         1 UNK         0.3000 
    170 H170        0.0299  -13.3741  -40.2915 H         1 UNK         0.0600 
    171 H171        2.3012  -14.2909  -40.7279 H         1 UNK         0.0600 
    172 H172        2.0362  -14.2000  -42.4647 H         1 UNK         0.0600 
    173 H173        2.1213  -12.7252  -41.5057 H         1 UNK         0.0600 
    174 H174        0.0581  -12.9261  -43.1785 H         1 UNK         0.3000 
    175 H175       -3.3788  -12.1564  -43.4730 H         1 UNK         0.0600 
    176 H176       -1.1259  -10.0784  -43.3335 H         1 UNK         0.0600 
    177 H177       -2.6577   -9.8869  -44.1880 H         1 UNK         0.0600 
    178 H178       -2.6377  -10.0083  -42.4359 H         1 UNK         0.0600 
    179 H179       -1.0190  -11.7538  -45.1135 H         1 UNK         0.3000 
    180 H180       -0.4450  -14.9303  -46.0820 H         1 UNK         0.0600 
    181 H181       -1.1096  -14.7213  -48.4232 H         1 UNK         0.0600 
    182 H182       -2.1805  -13.3684  -48.0497 H         1 UNK         0.0600 
    183 H183       -2.5399  -14.9826  -47.4474 H         1 UNK         0.0600 
    184 H184        0.2005  -12.7661  -47.6862 H         1 UNK         0.3000 
    185 H185        1.7097  -10.8273  -46.9275 H         1 UNK         0.0600 
    186 H186        3.8624  -12.1418  -45.1858 H         1 UNK         0.0600 
    187 H187        4.0830  -10.6755  -46.1402 H         1 UNK         0.0600 
    188 H188        2.9400  -10.6976  -44.8065 H         1 UNK         0.0600 
    189 H189        2.4467  -11.9841  -48.6751 H         1 UNK         0.3000 
    190 H190       -0.4143  -20.3624  -47.2389 H         1 UNK         0.3000 
    191 H191       -0.9507  -21.2089  -49.9169 H         1 UNK         0.0600 
    192 H192       -1.4747  -18.9252  -49.0434 H         1 UNK         0.0600 
    193 H193       -2.7247  -19.5980  -48.0041 H         1 UNK         0.0600 
    194 H194       -2.8892  -19.6973  -49.7521 H         1 UNK         0.0600 
    195 H195       -2.7079  -21.8177  -46.8242 H         1 UNK         0.3000 
    196 H196       -4.8061  -23.3470  -47.8322 H         1 UNK         0.0600 
    197 H197       -4.7403  -22.3926  -45.5427 H         1 UNK         0.0600 
    198 H198       -3.4791  -23.5385  -45.0851 H         1 UNK         0.0600 
    199 H199       -5.0907  -24.1131  -45.4883 H         1 UNK         0.0600 
    200 H200       -1.5318  -24.4473  -47.0000 H         1 UNK         0.3000 
    201 H201       -1.9400  -27.2314  -47.1427 H         1 UNK         0.0600 
    202 H202        0.0935  -26.1798  -46.1942 H         1 UNK         0.0600 
    203 H203        0.5594  -25.5805  -47.7853 H         1 UNK         0.0600 
    204 H204        0.5355  -27.3094  -47.4640 H         1 UNK         0.0600 
    205 H205       -1.8973  -24.9133  -49.7822 H         1 UNK         0.3000 
    206 H206       -1.3385  -26.8817  -51.8732 H         1 UNK         0.0600 
    207 H207       -2.4838  -24.0509  -52.0923 H         1 UNK         0.0600 
    208 H208       -0.7634  -24.4359  -52.1043 H         1 UNK         0.0600 
    209 H209       -1.8074  -25.0187  -53.3922 H         1 UNK         0.0600 
    210 H210       -4.0634  -26.0140  -49.9800 H         1 UNK         0.3000 
    211 H211       -6.1662  -26.5220  -49.8376 H         1 UNK         0.0600 
    212 H212       -5.6088  -28.7567  -51.8574 H         1 UNK         0.0600 
    213 H213       -7.0198  -28.6348  -50.8175 H         1 UNK         0.0600 
    214 H214       -5.4284  -28.8581  -50.1081 H         1 UNK         0.0600 
    215 H215       -5.5350  -26.8412  -53.3505 H         1 UNK         0.3000 
    216 H216       -8.1312  -25.7816  -54.1208 H         1 UNK         0.0600 
    217 H217       -7.1934  -26.0175  -56.4261 H         1 UNK         0.0600 
    218 H218       -6.9452  -27.4824  -55.4889 H         1 UNK         0.0600 
    219 H219       -5.6038  -26.3693  -55.7568 H         1 UNK         0.0600 
    220 H220       -5.0159  -24.3952  -53.4379 H         1 UNK         0.3000 
    221 H221       -5.8140  -21.7229  -54.5259 H         1 UNK         0.0600 
    222 H222       -2.9643  -22.7357  -54.0868 H         1 UNK         0.0600 
    223 H223       -3.8142  -22.9065  -55.6213 H         1 UNK         0.0600 
    224 H224       -3.4966  -21.3129  -54.9773 H         1 UNK         0.0600 
    225 H225       -6.5951  -22.8883  -51.9375 H         1 UNK         0.3000 
    226 H226       -5.0506  -21.9481  -49.7903 H         1 UNK         0.0600 
    227 H227       -6.7990  -23.6392  -49.5041 H         1 UNK         0.0600 
    228 H228       -7.1720  -22.2684  -48.4749 H         1 UNK         0.0600 
    229 H229       -8.0535  -22.4944  -49.9820 H         1 UNK         0.0600 
    230 H230       -7.1902  -20.1490  -51.8562 H         1 UNK         0.3000 
    231 H231       -7.4876  -17.8151  -50.1399 H         1 UNK         0.0600 
    232 H232       -8.5635  -16.8599  -52.1740 H         1 UNK         0.0600 
    233 H233       -9.2338  -18.4350  -51.7836 H         1 UNK         0.0600 
    234 H234       -8.0850  -18.2708  -53.1113 H         1 UNK         0.0600 
    235 H235       -5.0185  -18.0398  -49.8105 H         1 UNK         0.3000 
    236 H236       -2.9864  -17.1097  -49.8702 H         1 UNK         0.0600 
    237 H237       -4.4351  -14.7536  -51.1824 H         1 UNK         0.0600 
    238 H238       -4.3622  -15.0778  -49.4509 H         1 UNK         0.0600 
    239 H239       -2.8994  -14.6778  -50.3333 H         1 UNK         0.0600 
    240 H240       -3.4108  -18.9020  -52.0481 H         1 UNK         0.3000 
    241 H241       -2.4958  -19.6664  -53.8625 H         1 UNK         0.0600 
    242 H242       -4.6560  -17.0257  -55.7327 H         1 UNK         0.3800 
    243 H243       -4.6199  -17.2352  -54.0013 H         1 UNK         0.3800 
    244 H244       -0.4442  -17.4111  -53.8157 H         1 UNK         0.0800 
    245 H245       -0.4033  -18.7698  -54.8898 H         1 UNK         0.0800 
    246 H246        0.0636  -18.2082  -50.6742 H         1 UNK         0.0800 
    247 H247        0.8183  -17.3068  -51.9650 H         1 UNK         0.0800 
@<TRIPOS>BOND
     1    1    2 1    
     2    1  127 1    
     3    1  128 1    
     4    1  129 1    
     5    2    3 2    
     6    2    4 am   BACKBONE|DICT|INTERRES
     7    4    5 1    
     8    4  130 1    
     9    5    6 1    
    10    5   65 1    
    11    5  131 1    
    12    6    7 1    
    13    6  132 1    
    14    6  133 1    
    15    7    8 1    
    16    8    9 1    
    17    8  134 1    
    18    8  135 1    
    19    9   10 ar   
    20    9   14 ar   
    21   10   11 ar   
    22   10  136 1    
    23   11   12 ar   
    24   11  126 1    
    25   12   13 ar   
    26   12  137 1    
    27   13   14 ar   
    28   13   15 1    
    29   14  138 1    
    30   15   16 1    
    31   15  139 1    
    32   15  140 1    
    33   16   17 1    
    34   17   18 1    
    35   17  141 1    
    36   17  142 1    
    37   18   19 1    
    38   18   67 1    
    39   18  143 1    
    40   19   20 am   BACKBONE|DICT|INTERRES
    41   19  144 1    
    42   20   21 2    
    43   20   22 1    
    44   22   23 1    
    45   22   24 1    
    46   22  145 1    
    47   23  146 1    
    48   23  147 1    
    49   23  148 1    
    50   24   25 am   BACKBONE|DICT|INTERRES
    51   24  149 1    
    52   25   26 2    
    53   25   27 1    
    54   27   28 1    
    55   27   29 1    
    56   27  150 1    
    57   28  151 1    
    58   28  152 1    
    59   28  153 1    
    60   29   30 am   BACKBONE|DICT|INTERRES
    61   29  154 1    
    62   30   31 2    
    63   30   32 1    
    64   32   33 1    
    65   32   34 1    
    66   32  155 1    
    67   33  156 1    
    68   33  157 1    
    69   33  158 1    
    70   34   35 am   BACKBONE|DICT|INTERRES
    71   34  159 1    
    72   35   36 2    
    73   35   37 1    
    74   37   38 1    
    75   37   39 1    
    76   37  160 1    
    77   38  161 1    
    78   38  162 1    
    79   38  163 1    
    80   39   40 am   BACKBONE|DICT|INTERRES
    81   39  164 1    
    82   40   41 2    
    83   40   42 1    
    84   42   43 1    
    85   42   44 1    
    86   42  165 1    
    87   43  166 1    
    88   43  167 1    
    89   43  168 1    
    90   44   45 am   BACKBONE|DICT|INTERRES
    91   44  169 1    
    92   45   46 2    
    93   45   47 1    
    94   47   48 1    
    95   47   49 1    
    96   47  170 1    
    97   48  171 1    
    98   48  172 1    
    99   48  173 1    
   100   49   50 am   BACKBONE|DICT|INTERRES
   101   49  174 1    
   102   50   51 2    
   103   50   52 1    
   104   52   53 1    
   105   52   54 1    
   106   52  175 1    
   107   53  176 1    
   108   53  177 1    
   109   53  178 1    
   110   54   55 am   BACKBONE|DICT|INTERRES
   111   54  179 1    
   112   55   56 2    
   113   55   57 1    
   114   57   58 1    
   115   57   59 1    
   116   57  180 1    
   117   58  181 1    
   118   58  182 1    
   119   58  183 1    
   120   59   60 am   BACKBONE|DICT|INTERRES
   121   59  184 1    
   122   60   61 2    
   123   60   62 1    
   124   62   63 1    
   125   62   64 1    
   126   62  185 1    
   127   63  186 1    
   128   63  187 1    
   129   63  188 1    
   130   64   65 am   BACKBONE|DICT|INTERRES
   131   64  189 1    
   132   65   66 2    
   133   67   68 2    
   134   67   69 am   BACKBONE|DICT|INTERRES
   135   69   70 1    
   136   69  190 1    
   137   70   71 1    
   138   70   72 1    
   139   70  191 1    
   140   71  192 1    
   141   71  193 1    
   142   71  194 1    
   143   72   73 2    
   144   72   74 am   BACKBONE|DICT|INTERRES
   145   74   75 1    
   146   74  195 1    
   147   75   76 1    
   148   75   77 1    
   149   75  196 1    
   150   76  197 1    
   151   76  198 1    
   152   76  199 1    
   153   77   78 2    
   154   77   79 am   BACKBONE|DICT|INTERRES
   155   79   80 1    
   156   79  200 1    
   157   80   81 1    
   158   80   82 1    
   159   80  201 1    
   160   81  202 1    
   161   81  203 1    
   162   81  204 1    
   163   82   83 2    
   164   82   84 am   BACKBONE|DICT|INTERRES
   165   84   85 1    
   166   84  205 1    
   167   85   86 1    
   168   85   87 1    
   169   85  206 1    
   170   86  207 1    
   171   86  208 1    
   172   86  209 1    
   173   87   88 2    
   174   87   89 am   BACKBONE|DICT|INTERRES
   175   89   90 1    
   176   89  210 1    
   177   90   91 1    
   178   90   92 1    
   179   90  211 1    
   180   91  212 1    
   181   91  213 1    
   182   91  214 1    
   183   92   93 2    
   184   92   94 am   BACKBONE|DICT|INTERRES
   185   94   95 1    
   186   94  215 1    
   187   95   96 1    
   188   95   97 1    
   189   95  216 1    
   190   96  217 1    
   191   96  218 1    
   192   96  219 1    
   193   97   98 2    
   194   97   99 am   BACKBONE|DICT|INTERRES
   195   99  100 1    
   196   99  220 1    
   197  100  101 1    
   198  100  102 1    
   199  100  221 1    
   200  101  222 1    
   201  101  223 1    
   202  101  224 1    
   203  102  103 2    
   204  102  104 am   BACKBONE|DICT|INTERRES
   205  104  105 1    
   206  104  225 1    
   207  105  106 1    
   208  105  107 1    
   209  105  226 1    
   210  106  227 1    
   211  106  228 1    
   212  106  229 1    
   213  107  108 2    
   214  107  109 am   BACKBONE|DICT|INTERRES
   215  109  110 1    
   216  109  230 1    
   217  110  111 1    
   218  110  112 1    
   219  110  231 1    
   220  111  232 1    
   221  111  233 1    
   222  111  234 1    
   223  112  113 2    
   224  112  114 am   BACKBONE|DICT|INTERRES
   225  114  115 1    
   226  114  235 1    
   227  115  116 1    
   228  115  117 1    
   229  115  236 1    
   230  116  237 1    
   231  116  238 1    
   232  116  239 1    
   233  117  118 2    
   234  117  119 am   BACKBONE|DICT|INTERRES
   235  119  120 1    
   236  119  240 1    
   237  120  121 1    
   238  120  124 1    
   239  120  241 1    
   240  121  122 am   BACKBONE|DICT|INTERRES
   241  121  123 2    
   242  122  242 1    
   243  122  243 1    
   244  124  125 1    
   245  124  244 1    
   246  124  245 1    
   247  125  126 1    
   248  126  246 1    
   249  126  247 1    
@<TRIPOS>SUBSTRUCTURE
     1 UNK         1 GROUP             0       ****    0 ROOT    
