@<TRIPOS>MOLECULE
3R540
247   249    1
SMALL
USER_CHARGES


@<TRIPOS>ATOM
      1 CA         -2.1138  -13.2793  -50.6986 C.3       0 UNK        -0.1800 
      2 C          -1.0945  -13.0711  -49.5873 C.2       0 UNK         0.5000 
      3 O          -0.2498  -12.1799  -49.6827 O.2       0 UNK        -0.5000 
      4 N          -1.1745  -13.8814  -48.5256 N.am      1 UNK        -0.5000 
      5 CA         -0.2653  -13.8761  -47.3733 C.3       1 UNK         0.1400 
      6 C6         -0.1434  -15.2810  -46.7320 C.3       23 UNK        -0.0398 
      7 S7          0.6536  -16.4754  -47.8525 S.3       23 UNK        -0.2404 
      8 C8         -0.7776  -17.3360  -48.5697 C.3       23 UNK        -0.0205 
      9 C9         -0.3339  -18.2348  -49.7112 C.ar      23 UNK        -0.0193 
     10 C10        -0.0043  -17.6800  -50.9520 C.ar      23 UNK        -0.1150 
     11 C11         0.4678  -18.4890  -51.9902 C.ar      23 UNK        -0.0193 
     12 C12         0.6142  -19.8617  -51.7724 C.ar      23 UNK        -0.1150 
     13 C13         0.2513  -20.4331  -50.5513 C.ar      23 UNK        -0.0193 
     14 C14        -0.2359  -19.6158  -49.5267 C.ar      23 UNK        -0.1150 
     15 C15         0.3602  -21.9371  -50.3617 C.3       23 UNK        -0.0205 
     16 S16         1.9650  -22.4568  -49.6677 S.3       23 UNK        -0.2404 
     17 C17         1.8519  -21.9370  -47.9197 C.3       23 UNK        -0.0398 
     18 CA          1.2555  -23.0202  -46.9872 C.3       11 UNK         0.1400 
     19 N           1.6104  -22.7976  -45.5851 N.am      11 UNK        -0.5000 
     20 C           1.8223  -23.7818  -44.7031 C.2       10 UNK         0.5000 
     21 O           1.8073  -24.9785  -44.9920 O.2       10 UNK        -0.5000 
     22 CA          2.0916  -23.3625  -43.2484 C.3       10 UNK         0.1400 
     23 CB          3.5762  -23.0156  -43.0565 C.3       10 UNK        -0.1800 
     24 N           1.2722  -22.2422  -42.7817 N.am      10 UNK        -0.5000 
     25 C          -0.0589  -22.2811  -42.6204 C.2       9 UNK         0.5000 
     26 O          -0.7694  -23.2056  -43.0149 O.2       9 UNK        -0.5000 
     27 CA         -0.7020  -21.0857  -41.9004 C.3       9 UNK         0.1400 
     28 CB         -0.2971  -21.0497  -40.4179 C.3       9 UNK        -0.1800 
     29 N          -0.2987  -19.8404  -42.5430 N.am      9 UNK        -0.5000 
     30 C          -1.1359  -18.9569  -43.1006 C.2       8 UNK         0.5000 
     31 O          -2.3601  -19.0052  -42.9807 O.2       8 UNK        -0.5000 
     32 CA         -0.5153  -17.8204  -43.9413 C.3       8 UNK         0.1400 
     33 CB         -0.6234  -16.4979  -43.1691 C.3       8 UNK        -0.1800 
     34 N           0.8832  -18.0431  -44.3252 N.am      8 UNK        -0.5000 
     35 C           1.3302  -19.0600  -45.0798 C.2       7 UNK         0.5000 
     36 O           0.6008  -19.9210  -45.5746 O.2       7 UNK        -0.5000 
     37 CA          2.8570  -19.2070  -45.2316 C.3       7 UNK         0.1400 
     38 CB          3.3362  -18.5683  -46.5420 C.3       7 UNK        -0.1800 
     39 N           3.6305  -18.6567  -44.1162 N.am      7 UNK        -0.5000 
     40 C           3.5075  -18.9903  -42.8232 C.2       6 UNK         0.5000 
     41 O           2.7045  -19.8281  -42.4066 O.2       6 UNK        -0.5000 
     42 CA          4.3903  -18.2281  -41.8156 C.3       6 UNK         0.1400 
     43 CB          5.6302  -17.5600  -42.4512 C.3       6 UNK        -0.1800 
     44 N           3.6202  -17.2424  -41.0495 N.am      6 UNK        -0.5000 
     45 C           2.8765  -16.2375  -41.5348 C.2       5 UNK         0.5000 
     46 O           2.6973  -16.0216  -42.7384 O.2       5 UNK        -0.5000 
     47 CA          2.2331  -15.3125  -40.4910 C.3       5 UNK         0.1400 
     48 CB          3.2905  -14.4477  -39.7809 C.3       5 UNK        -0.1800 
     49 N           1.2713  -14.4444  -41.1583 N.am      5 UNK        -0.5000 
     50 C           0.1716  -13.9183  -40.6098 C.2       4 UNK         0.5000 
     51 O          -0.1591  -14.1033  -39.4370 O.2       4 UNK        -0.5000 
     52 CA         -0.7009  -13.0463  -41.5402 C.3       4 UNK         0.1400 
     53 CB         -1.6849  -12.1398  -40.7718 C.3       4 UNK        -0.1800 
     54 N           0.0798  -12.2608  -42.5041 N.am      4 UNK        -0.5000 
     55 C           1.0076  -11.3275  -42.2276 C.2       3 UNK         0.5000 
     56 O           1.3515  -11.0134  -41.0875 O.2       3 UNK        -0.5000 
     57 CA          1.6720  -10.6182  -43.4266 C.3       3 UNK         0.1400 
     58 CB          3.0358  -11.2583  -43.7303 C.3       3 UNK        -0.1800 
     59 N           0.8596  -10.6404  -44.6441 N.am      3 UNK        -0.5000 
     60 C          -0.3232  -10.0285  -44.7980 C.2       2 UNK         0.5000 
     61 O          -0.8111   -9.2696  -43.9597 O.2       2 UNK        -0.5000 
     62 CA         -1.1094  -10.3303  -46.0911 C.3       2 UNK         0.1400 
     63 CB         -1.0478   -9.1319  -47.0507 C.3       2 UNK        -0.1800 
     64 N          -0.6789  -11.5319  -46.8155 N.am      2 UNK        -0.5000 
     65 C          -0.6906  -12.7922  -46.3594 C.2       1 UNK         0.5000 
     66 O          -1.0145  -13.0990  -45.2098 O.2       1 UNK        -0.5000 
     67 C          -0.2744  -23.1242  -47.1127 C.2       11 UNK         0.5000 
     68 O          -0.7605  -24.0235  -47.7971 O.2       11 UNK        -0.5000 
     69 N          -1.0032  -22.2332  -46.4212 N.am      12 UNK        -0.5000 
     70 CA         -2.4666  -22.1290  -46.4279 C.3       12 UNK         0.1400 
     71 CB         -2.8939  -21.0155  -45.4678 C.3       12 UNK        -0.1800 
     72 C          -3.2131  -23.4364  -46.0936 C.2       12 UNK         0.5000 
     73 O          -4.2908  -23.6758  -46.6385 O.2       12 UNK        -0.5000 
     74 N          -2.6201  -24.2656  -45.2238 N.am      13 UNK        -0.5000 
     75 CA         -3.1158  -25.5965  -44.8735 C.3       13 UNK         0.1400 
     76 CB         -2.3637  -26.0937  -43.6295 C.3       13 UNK        -0.1800 
     77 C          -2.9989  -26.6273  -46.0164 C.2       13 UNK         0.5000 
     78 O          -3.7737  -27.5848  -46.0362 O.2       13 UNK        -0.5000 
     79 N          -2.0396  -26.4335  -46.9319 N.am      14 UNK        -0.5000 
     80 CA         -1.7970  -27.3074  -48.0796 C.3       14 UNK         0.1400 
     81 CB         -0.2892  -27.3588  -48.3757 C.3       14 UNK        -0.1800 
     82 C          -2.5809  -26.8423  -49.3180 C.2       14 UNK         0.5000 
     83 O          -3.1546  -27.6782  -50.0176 O.2       14 UNK        -0.5000 
     84 N          -2.6070  -25.5269  -49.5605 N.am      15 UNK        -0.5000 
     85 CA         -3.3409  -24.8879  -50.6471 C.3       15 UNK         0.1400 
     86 CB         -2.4419  -24.7695  -51.8900 C.3       15 UNK        -0.1800 
     87 C          -3.7977  -23.5115  -50.1586 C.2       15 UNK         0.5000 
     88 O          -2.9624  -22.7317  -49.7034 O.2       15 UNK        -0.5000 
     89 N          -5.1021  -23.2307  -50.2582 N.am      16 UNK        -0.5000 
     90 CA         -5.7747  -22.0308  -49.7478 C.3       16 UNK         0.1400 
     91 CB         -7.2872  -22.3136  -49.6887 C.3       16 UNK        -0.1800 
     92 C          -5.4504  -20.7305  -50.5217 C.2       16 UNK         0.5000 
     93 O          -6.3625  -20.0351  -50.9724 O.2       16 UNK        -0.5000 
     94 N          -4.1553  -20.4165  -50.6468 N.am      17 UNK        -0.5000 
     95 CA         -3.5803  -19.2172  -51.2587 C.3       17 UNK         0.1400 
     96 CB         -3.8285  -17.9948  -50.3468 C.3       17 UNK        -0.1800 
     97 C          -4.0457  -19.0155  -52.7153 C.2       17 UNK         0.5000 
     98 O          -4.1282  -19.9905  -53.4652 O.2       17 UNK        -0.5000 
     99 N          -4.3531  -17.7687  -53.0966 N.am      18 UNK        -0.5000 
    100 CA        -4.7879  -17.3723  -54.4374 C.3       18 UNK         0.1400 
    101 CB        -4.9114  -15.8426  -54.4909 C.3       18 UNK        -0.1800 
    102 C         -6.0983  -18.0384  -54.9023 C.2       18 UNK         0.5000 
    103 O         -6.2733  -18.2363  -56.1046 O.2       18 UNK        -0.5000 
    104 N         -6.9699  -18.4257  -53.9584 N.am      19 UNK        -0.5000 
    105 CA        -8.1999  -19.1778  -54.2308 C.3       19 UNK         0.1400 
    106 CB        -9.1071  -19.1474  -52.9916 C.3       19 UNK        -0.1800 
    107 C         -7.9330  -20.6294  -54.6816 C.2       19 UNK         0.5000 
    108 O         -8.7792  -21.2174  -55.3555 O.2       19 UNK        -0.5000 
    109 N         -6.7535  -21.1620  -54.3371 N.am      20 UNK        -0.5000 
    110 CA        -6.2277  -22.4487  -54.7924 C.3       20 UNK         0.1400 
    111 CB        -5.7175  -23.2216  -53.5660 C.3       20 UNK        -0.1800 
    112 C         -5.1088  -22.2567  -55.8382 C.2       20 UNK         0.5000 
    113 O         -4.3385  -23.1883  -56.0793 O.2       20 UNK        -0.5000 
    114 N         -5.0058  -21.0456  -56.4115 N.am      21 UNK        -0.5000 
    115 CA        -4.0020  -20.5961  -57.3842 C.3       21 UNK         0.1400 
    116 CB        -4.2356  -21.2819  -58.7460 C.3       21 UNK        -0.1800 
    117 C         -2.5467  -20.7398  -56.8845 C.2       21 UNK         0.5000 
    118 O         -1.6409  -20.9577  -57.6911 O.2       21 UNK        -0.5000 
    119 N         -2.3570  -20.6376  -55.5613 N.am      22 UNK        -0.5000 
    120 CA        -1.1031  -20.8807  -54.8303 C.3       22 UNK         0.1400 
    121 C         -0.6147  -22.3630  -54.8632 C.2       22 UNK         0.5000 
    122 N         -1.4418  -23.3324  -55.2406 N.am      22 UNK        -0.7600 
    123 O          0.5233  -22.6510  -54.5036 O.2       22 UNK        -0.5000 
    124 C124        0.0102  -19.8522  -55.1827 C.3       23 UNK        -0.0398 
    125 S125       -0.4100  -18.1645  -54.6177 S.3       23 UNK        -0.2404 
    126 C126        0.8494  -17.8730  -53.3299 C.3       23 UNK        -0.0205 
    127 H127       -2.7086  -12.3765  -50.8364 H         1 UNK         0.0600 
    128 H128       -2.7919  -14.1042  -50.4782 H         1 UNK         0.0600 
    129 H129       -1.6047  -13.5006  -51.6366 H         1 UNK         0.0600 
    130 H130       -1.9263  -14.5524  -48.4795 H         1 UNK         0.3000 
    131 H131        0.7327  -13.5948  -47.7172 H         1 UNK         0.0600 
    132 H132       -1.1140  -15.6566  -46.4042 H         1 UNK         0.0800 
    133 H133        0.4870  -15.2316  -45.8436 H         1 UNK         0.0800 
    134 H134       -1.2796  -17.9140  -47.7919 H         1 UNK         0.0800 
    135 H135       -1.5005  -16.6113  -48.9419 H         1 UNK         0.0800 
    136 H136       -0.0936  -16.6126  -51.0982 H         1 UNK         0.1150 
    137 H137        1.0021  -20.4968  -52.5543 H         1 UNK         0.1150 
    138 H138       -0.5285  -20.0494  -48.5811 H         1 UNK         0.1150 
    139 H139       -0.4571  -22.2900  -49.7390 H         1 UNK         0.0800 
    140 H140        0.2274  -22.4346  -51.3237 H         1 UNK         0.0800 
    141 H141        1.3297  -20.9883  -47.8304 H         1 UNK         0.0800 
    142 H142        2.8754  -21.7260  -47.6073 H         1 UNK         0.0800 
    143 H143        1.6714  -23.9804  -47.3017 H         1 UNK         0.0600 
    144 H144        1.5603  -21.8457  -45.2504 H         1 UNK         0.3000 
    145 H145        1.8621  -24.2214  -42.6142 H         1 UNK         0.0600 
    146 H146        3.7971  -22.7909  -42.0129 H         1 UNK         0.0600 
    147 H147        4.2140  -23.8500  -43.3511 H         1 UNK         0.0600 
    148 H148        3.8694  -22.1516  -43.6536 H         1 UNK         0.0600 
    149 H149        1.7845  -21.4230  -42.4642 H         1 UNK         0.3000 
    150 H150       -1.7845  -21.2187  -41.9541 H         1 UNK         0.0600 
    151 H151       -0.5545  -21.9851  -39.9194 H         1 UNK         0.0600 
    152 H152       -0.8146  -20.2474  -39.8919 H         1 UNK         0.0600 
    153 H153        0.7749  -20.8919  -40.2922 H         1 UNK         0.0600 
    154 H154        0.6978  -19.7056  -42.6713 H         1 UNK         0.3000 
    155 H155       -1.0971  -17.7365  -44.8612 H         1 UNK         0.0600 
    156 H156       -0.1632  -16.5831  -42.1851 H         1 UNK         0.0600 
    157 H157       -1.6672  -16.2209  -43.0168 H         1 UNK         0.0600 
    158 H158       -0.1431  -15.6743  -43.6946 H         1 UNK         0.0600 
    159 H159        1.5648  -17.4014  -43.9351 H         1 UNK         0.3000 
    160 H160        3.0752  -20.2749  -45.2779 H         1 UNK         0.0600 
    161 H161        3.2343  -17.4828  -46.5183 H         1 UNK         0.0600 
    162 H162        2.7602  -18.9322  -47.3943 H         1 UNK         0.0600 
    163 H163        4.3831  -18.8025  -46.7353 H         1 UNK         0.0600 
    164 H164        4.2837  -17.9225  -44.3482 H         1 UNK         0.3000 
    165 H165        4.7467  -18.9725  -41.1021 H         1 UNK         0.0600 
    166 H166        6.2800  -17.1424  -41.6821 H         1 UNK         0.0600 
    167 H167        6.2237  -18.2833  -43.0120 H         1 UNK         0.0600 
    168 H168        5.3649  -16.7477  -43.1288 H         1 UNK         0.0600 
    169 H169        3.6713  -17.3511  -40.0463 H         1 UNK         0.3000 
    170 H170        1.7164  -15.9384  -39.7605 H         1 UNK         0.0600 
    171 H171        4.0223  -15.0635  -39.2572 H         1 UNK         0.0600 
    172 H172        3.8332  -13.8194  -40.4885 H         1 UNK         0.0600 
    173 H173        2.8313  -13.7930  -39.0400 H         1 UNK         0.0600 
    174 H174        1.4573  -14.2998  -42.1423 H         1 UNK         0.3000 
    175 H175       -1.2966  -13.7414  -42.1331 H         1 UNK         0.0600 
    176 H176       -2.3685  -12.7317  -40.1622 H         1 UNK         0.0600 
    177 H177       -1.1653  -11.4508  -40.1054 H         1 UNK         0.0600 
    178 H178       -2.2923  -11.5488  -41.4575 H         1 UNK         0.0600 
    179 H179       -0.1401  -12.4413  -43.4785 H         1 UNK         0.3000 
    180 H180        1.8338   -9.5754  -43.1458 H         1 UNK         0.0600 
    181 H181        2.9329  -12.3013  -44.0332 H         1 UNK         0.0600 
    182 H182        3.6827  -11.2350  -42.8522 H         1 UNK         0.0600 
    183 H183        3.5540  -10.7252  -44.5277 H         1 UNK         0.0600 
    184 H184        1.1863  -11.2287  -45.3957 H         1 UNK         0.3000 
    185 H185       -2.1507  -10.4821  -45.8006 H         1 UNK         0.0600 
    186 H186       -1.3967   -8.2200  -46.5641 H         1 UNK         0.0600 
    187 H187       -0.0305   -8.9499  -47.3996 H         1 UNK         0.0600 
    188 H188       -1.6789   -9.2932  -47.9249 H         1 UNK         0.0600 
    189 H189       -0.4125  -11.3996  -47.7858 H         1 UNK         0.3000 
    190 H190       -0.5108  -21.5012  -45.9197 H         1 UNK         0.3000 
    191 H191       -2.7625  -21.8203  -47.4285 H         1 UNK         0.0600 
    192 H192       -2.4213  -20.0675  -45.7254 H         1 UNK         0.0600 
    193 H193       -3.9730  -20.8608  -45.5012 H         1 UNK         0.0600 
    194 H194       -2.6296  -21.2612  -44.4394 H         1 UNK         0.0600 
    195 H195       -1.7684  -23.9626  -44.7650 H         1 UNK         0.3000 
    196 H196       -4.1740  -25.5083  -44.6186 H         1 UNK         0.0600 
    197 H197       -2.7079  -27.0849  -43.3315 H         1 UNK         0.0600 
    198 H198       -2.5220  -25.4272  -42.7814 H         1 UNK         0.0600 
    199 H199       -1.2895  -26.1569  -43.8092 H         1 UNK         0.0600 
    200 H200       -1.4929  -25.5792  -46.9004 H         1 UNK         0.3000 
    201 H201       -2.1194  -28.3230  -47.8403 H         1 UNK         0.0600 
    202 H202        0.2704  -27.7099  -47.5086 H         1 UNK         0.0600 
    203 H203        0.1066  -26.3822  -48.6553 H         1 UNK         0.0600 
    204 H204       -0.0786  -28.0434  -49.1983 H         1 UNK         0.0600 
    205 H205       -2.1063  -24.8925  -48.9419 H         1 UNK         0.3000 
    206 H206       -4.2220  -25.4813  -50.9004 H         1 UNK         0.0600 
    207 H207       -2.1448  -25.7519  -52.2568 H         1 UNK         0.0600 
    208 H208       -2.9598  -24.2615  -52.7039 H         1 UNK         0.0600 
    209 H209       -1.5337  -24.2046  -51.6769 H         1 UNK         0.0600 
    210 H210       -5.7101  -23.9251  -50.6659 H         1 UNK         0.3000 
    211 H211       -5.4325  -21.8723  -48.7229 H         1 UNK         0.0600 
    212 H212       -7.7034  -22.4847  -50.6824 H         1 UNK         0.0600 
    213 H213       -7.8267  -21.4749  -49.2467 H         1 UNK         0.0600 
    214 H214       -7.5018  -23.1903  -49.0773 H         1 UNK         0.0600 
    215 H215       -3.4898  -21.0999  -50.2910 H         1 UNK         0.3000 
    216 H216       -2.5061  -19.3896  -51.3130 H         1 UNK         0.0600 
    217 H217       -3.2628  -17.1253  -50.6831 H         1 UNK         0.0600 
    218 H218       -3.5133  -18.2047  -49.3249 H         1 UNK         0.0600 
    219 H219       -4.8833  -17.7192  -50.3118 H         1 UNK         0.0600 
    220 H220       -4.2730  -17.0276  -52.4162 H         1 UNK         0.3000 
    221 H221       -4.0054  -17.6757  -55.1364 H         1 UNK         0.0600 
    222 H222       -5.6576  -15.4744  -53.7858 H         1 UNK         0.0600 
    223 H223       -3.9612  -15.3616  -54.2580 H         1 UNK         0.0600 
    224 H224       -5.2070  -15.5087  -55.4865 H         1 UNK         0.0600 
    225 H225       -6.7384  -18.2723  -52.9865 H         1 UNK         0.3000 
    226 H226       -8.7277  -18.6760  -55.0446 H         1 UNK         0.0600 
    227 H227       -9.3232  -18.1243  -52.6839 H         1 UNK         0.0600 
    228 H228      -10.0618  -19.6328  -53.1977 H         1 UNK         0.0600 
    229 H229       -8.6560  -19.6655  -52.1458 H         1 UNK         0.0600 
    230 H230       -6.1055  -20.5983  -53.7972 H         1 UNK         0.3000 
    231 H231       -7.0137  -23.0392  -55.2666 H         1 UNK         0.0600 
    232 H232       -6.5108  -23.3517  -52.8304 H         1 UNK         0.0600 
    233 H233       -4.8911  -22.6972  -53.0849 H         1 UNK         0.0600 
    234 H234       -5.3646  -24.2161  -53.8410 H         1 UNK         0.0600 
    235 H235       -5.6761  -20.3383  -56.1376 H         1 UNK         0.3000 
    236 H236       -4.1673  -19.5266  -57.5206 H         1 UNK         0.0600 
    237 H237       -3.5897  -20.8581  -59.5157 H         1 UNK         0.0600 
    238 H238       -4.0312  -22.3520  -58.6993 H         1 UNK         0.0600 
    239 H239       -5.2645  -21.1511  -59.0814 H         1 UNK         0.0600 
    240 H240       -3.1616  -20.4604  -54.9650 H         1 UNK         0.3000 
    241 H241       -1.3588  -20.7267  -53.7815 H         1 UNK         0.0600 
    242 H242       -1.1106  -24.2833  -55.2460 H         1 UNK         0.3800 
    243 H243       -2.3906  -23.1334  -55.5395 H         1 UNK         0.3800 
    244 H244        0.9690  -20.1390  -54.7526 H         1 UNK         0.0800 
    245 H245        0.1865  -19.8224  -56.2577 H         1 UNK         0.0800 
    246 H246        1.8186  -18.2538  -53.6546 H         1 UNK         0.0800 
    247 H247        0.9778  -16.7953  -53.2186 H         1 UNK         0.0800 
@<TRIPOS>BOND
     1    1    2 1    
     2    1  127 1    
     3    1  128 1    
     4    1  129 1    
     5    2    3 2    
     6    2    4 am   BACKBONE|DICT|INTERRES
     7    4    5 1    
     8    4  130 1    
     9    5    6 1    
    10    5   65 1    
    11    5  131 1    
    12    6    7 1    
    13    6  132 1    
    14    6  133 1    
    15    7    8 1    
    16    8    9 1    
    17    8  134 1    
    18    8  135 1    
    19    9   10 ar   
    20    9   14 ar   
    21   10   11 ar   
    22   10  136 1    
    23   11   12 ar   
    24   11  126 1    
    25   12   13 ar   
    26   12  137 1    
    27   13   14 ar   
    28   13   15 1    
    29   14  138 1    
    30   15   16 1    
    31   15  139 1    
    32   15  140 1    
    33   16   17 1    
    34   17   18 1    
    35   17  141 1    
    36   17  142 1    
    37   18   19 1    
    38   18   67 1    
    39   18  143 1    
    40   19   20 am   BACKBONE|DICT|INTERRES
    41   19  144 1    
    42   20   21 2    
    43   20   22 1    
    44   22   23 1    
    45   22   24 1    
    46   22  145 1    
    47   23  146 1    
    48   23  147 1    
    49   23  148 1    
    50   24   25 am   BACKBONE|DICT|INTERRES
    51   24  149 1    
    52   25   26 2    
    53   25   27 1    
    54   27   28 1    
    55   27   29 1    
    56   27  150 1    
    57   28  151 1    
    58   28  152 1    
    59   28  153 1    
    60   29   30 am   BACKBONE|DICT|INTERRES
    61   29  154 1    
    62   30   31 2    
    63   30   32 1    
    64   32   33 1    
    65   32   34 1    
    66   32  155 1    
    67   33  156 1    
    68   33  157 1    
    69   33  158 1    
    70   34   35 am   BACKBONE|DICT|INTERRES
    71   34  159 1    
    72   35   36 2    
    73   35   37 1    
    74   37   38 1    
    75   37   39 1    
    76   37  160 1    
    77   38  161 1    
    78   38  162 1    
    79   38  163 1    
    80   39   40 am   BACKBONE|DICT|INTERRES
    81   39  164 1    
    82   40   41 2    
    83   40   42 1    
    84   42   43 1    
    85   42   44 1    
    86   42  165 1    
    87   43  166 1    
    88   43  167 1    
    89   43  168 1    
    90   44   45 am   BACKBONE|DICT|INTERRES
    91   44  169 1    
    92   45   46 2    
    93   45   47 1    
    94   47   48 1    
    95   47   49 1    
    96   47  170 1    
    97   48  171 1    
    98   48  172 1    
    99   48  173 1    
   100   49   50 am   BACKBONE|DICT|INTERRES
   101   49  174 1    
   102   50   51 2    
   103   50   52 1    
   104   52   53 1    
   105   52   54 1    
   106   52  175 1    
   107   53  176 1    
   108   53  177 1    
   109   53  178 1    
   110   54   55 am   BACKBONE|DICT|INTERRES
   111   54  179 1    
   112   55   56 2    
   113   55   57 1    
   114   57   58 1    
   115   57   59 1    
   116   57  180 1    
   117   58  181 1    
   118   58  182 1    
   119   58  183 1    
   120   59   60 am   BACKBONE|DICT|INTERRES
   121   59  184 1    
   122   60   61 2    
   123   60   62 1    
   124   62   63 1    
   125   62   64 1    
   126   62  185 1    
   127   63  186 1    
   128   63  187 1    
   129   63  188 1    
   130   64   65 am   BACKBONE|DICT|INTERRES
   131   64  189 1    
   132   65   66 2    
   133   67   68 2    
   134   67   69 am   BACKBONE|DICT|INTERRES
   135   69   70 1    
   136   69  190 1    
   137   70   71 1    
   138   70   72 1    
   139   70  191 1    
   140   71  192 1    
   141   71  193 1    
   142   71  194 1    
   143   72   73 2    
   144   72   74 am   BACKBONE|DICT|INTERRES
   145   74   75 1    
   146   74  195 1    
   147   75   76 1    
   148   75   77 1    
   149   75  196 1    
   150   76  197 1    
   151   76  198 1    
   152   76  199 1    
   153   77   78 2    
   154   77   79 am   BACKBONE|DICT|INTERRES
   155   79   80 1    
   156   79  200 1    
   157   80   81 1    
   158   80   82 1    
   159   80  201 1    
   160   81  202 1    
   161   81  203 1    
   162   81  204 1    
   163   82   83 2    
   164   82   84 am   BACKBONE|DICT|INTERRES
   165   84   85 1    
   166   84  205 1    
   167   85   86 1    
   168   85   87 1    
   169   85  206 1    
   170   86  207 1    
   171   86  208 1    
   172   86  209 1    
   173   87   88 2    
   174   87   89 am   BACKBONE|DICT|INTERRES
   175   89   90 1    
   176   89  210 1    
   177   90   91 1    
   178   90   92 1    
   179   90  211 1    
   180   91  212 1    
   181   91  213 1    
   182   91  214 1    
   183   92   93 2    
   184   92   94 am   BACKBONE|DICT|INTERRES
   185   94   95 1    
   186   94  215 1    
   187   95   96 1    
   188   95   97 1    
   189   95  216 1    
   190   96  217 1    
   191   96  218 1    
   192   96  219 1    
   193   97   98 2    
   194   97   99 am   BACKBONE|DICT|INTERRES
   195   99  100 1    
   196   99  220 1    
   197  100  101 1    
   198  100  102 1    
   199  100  221 1    
   200  101  222 1    
   201  101  223 1    
   202  101  224 1    
   203  102  103 2    
   204  102  104 am   BACKBONE|DICT|INTERRES
   205  104  105 1    
   206  104  225 1    
   207  105  106 1    
   208  105  107 1    
   209  105  226 1    
   210  106  227 1    
   211  106  228 1    
   212  106  229 1    
   213  107  108 2    
   214  107  109 am   BACKBONE|DICT|INTERRES
   215  109  110 1    
   216  109  230 1    
   217  110  111 1    
   218  110  112 1    
   219  110  231 1    
   220  111  232 1    
   221  111  233 1    
   222  111  234 1    
   223  112  113 2    
   224  112  114 am   BACKBONE|DICT|INTERRES
   225  114  115 1    
   226  114  235 1    
   227  115  116 1    
   228  115  117 1    
   229  115  236 1    
   230  116  237 1    
   231  116  238 1    
   232  116  239 1    
   233  117  118 2    
   234  117  119 am   BACKBONE|DICT|INTERRES
   235  119  120 1    
   236  119  240 1    
   237  120  121 1    
   238  120  124 1    
   239  120  241 1    
   240  121  122 am   BACKBONE|DICT|INTERRES
   241  121  123 2    
   242  122  242 1    
   243  122  243 1    
   244  124  125 1    
   245  124  244 1    
   246  124  245 1    
   247  125  126 1    
   248  126  246 1    
   249  126  247 1    
@<TRIPOS>SUBSTRUCTURE
     1 UNK         1 GROUP             0       ****    0 ROOT    
