@<TRIPOS>MOLECULE
3R540
247   249    1
SMALL
USER_CHARGES


@<TRIPOS>ATOM
      1 CA         -5.1333  -15.0992  -46.1462 C.3       0 UNK        -0.1800 
      2 C          -4.3635  -13.8573  -46.5732 C.2       0 UNK         0.5000 
      3 O          -4.8325  -12.7385  -46.3660 O.2       0 UNK        -0.5000 
      4 N          -3.1783  -14.0543  -47.1623 N.am      1 UNK        -0.5000 
      5 CA         -2.2723  -13.0046  -47.6489 C.3       1 UNK         0.1400 
      6 C6         -1.2603  -13.5630  -48.6814 C.3       23 UNK        -0.0398 
      7 S7         -2.0836  -14.2092  -50.1763 S.3       23 UNK        -0.2404 
      8 C8         -0.6908  -14.2883  -51.3451 C.3       23 UNK        -0.0205 
      9 C9          0.1023  -15.5830  -51.2248 C.ar      23 UNK        -0.0193 
     10 C10        -0.1469  -16.6349  -52.1106 C.ar      23 UNK        -0.1150 
     11 C11         0.6257  -17.7976  -52.0666 C.ar      23 UNK        -0.0193 
     12 C12         1.6442  -17.9104  -51.1189 C.ar      23 UNK        -0.1150 
     13 C13         1.8906  -16.8808  -50.2028 C.ar      23 UNK        -0.0193 
     14 C14         1.1168  -15.7161  -50.2699 C.ar      23 UNK        -0.1150 
     15 C15         3.0297  -16.9630  -49.1859 C.3       23 UNK        -0.0205 
     16 S16         3.4958  -18.6540  -48.6652 S.3       23 UNK        -0.2404 
     17 C17         2.2155  -19.0470  -47.4304 C.3       23 UNK        -0.0398 
     18 CA          1.4437  -20.3604  -47.7218 C.3       11 UNK         0.1400 
     19 N           0.8599  -20.9287  -46.5026 N.am      11 UNK        -0.5000 
     20 C           1.4937  -21.7989  -45.7013 C.2       10 UNK         0.5000 
     21 O           2.6248  -22.2248  -45.9372 O.2       10 UNK        -0.5000 
     22 CA          0.7640  -22.2706  -44.4244 C.3       10 UNK         0.1400 
     23 CB          1.7361  -22.5558  -43.2652 C.3       10 UNK        -0.1800 
     24 N          -0.2189  -21.2908  -43.9679 N.am      10 UNK        -0.5000 
     25 C          -1.5470  -21.4078  -44.0973 C.2       9 UNK         0.5000 
     26 O          -2.1036  -22.3842  -44.5970 O.2       9 UNK        -0.5000 
     27 CA         -2.3948  -20.2062  -43.6328 C.3       9 UNK         0.1400 
     28 CB         -2.9052  -20.4329  -42.2036 C.3       9 UNK        -0.1800 
     29 N          -1.6768  -18.9295  -43.7249 N.am      9 UNK        -0.5000 
     30 C          -1.2527  -18.4086  -44.8865 C.2       8 UNK         0.5000 
     31 O          -1.4918  -18.9379  -45.9730 O.2       8 UNK        -0.5000 
     32 CA         -0.3581  -17.1543  -44.8610 C.3       8 UNK         0.1400 
     33 CB         -0.6311  -16.2285  -46.0614 C.3       8 UNK        -0.1800 
     34 N          -0.3836  -16.4351  -43.5883 N.am      8 UNK        -0.5000 
     35 C          -1.3695  -15.6932  -43.0666 C.2       7 UNK         0.5000 
     36 O          -2.3841  -15.3636  -43.6822 O.2       7 UNK        -0.5000 
     37 CA         -1.1568  -15.2335  -41.6062 C.3       7 UNK         0.1400 
     38 CB         -2.4840  -14.9911  -40.8582 C.3       7 UNK        -0.1800 
     39 N          -0.2638  -16.1271  -40.8490 N.am      7 UNK        -0.5000 
     40 C          -0.4945  -17.4130  -40.5449 C.2       6 UNK         0.5000 
     41 O          -1.5342  -17.9991  -40.8401 O.2       6 UNK        -0.5000 
     42 CA          0.6574  -18.1773  -39.8616 C.3       6 UNK         0.1400 
     43 CB          0.3105  -19.6529  -39.5704 C.3       6 UNK        -0.1800 
     44 N           1.9148  -18.0926  -40.6124 N.am      6 UNK        -0.5000 
     45 C           2.1539  -18.4923  -41.8695 C.2       5 UNK         0.5000 
     46 O           1.2923  -18.9624  -42.6176 O.2       5 UNK        -0.5000 
     47 CA          3.6026  -18.3048  -42.3757 C.3       5 UNK         0.1400 
     48 CB          3.7906  -18.8175  -43.8126 C.3       5 UNK        -0.1800 
     49 N           4.0263  -16.9050  -42.3464 N.am      5 UNK        -0.5000 
     50 C           4.3335  -16.1758  -41.2656 C.2       4 UNK         0.5000 
     51 O           4.3543  -16.6317  -40.1213 O.2       4 UNK        -0.5000 
     52 CA          4.6329  -14.6788  -41.4983 C.3       4 UNK         0.1400 
     53 CB          6.1485  -14.4284  -41.4894 C.3       4 UNK        -0.1800 
     54 N           4.0668  -14.1375  -42.7418 N.am      4 UNK        -0.5000 
     55 C           2.7585  -14.0750  -43.0236 C.2       3 UNK         0.5000 
     56 O           1.8816  -14.4864  -42.2608 O.2       3 UNK        -0.5000 
     57 CA          2.3827  -13.5285  -44.4146 C.3       3 UNK         0.1400 
     58 CB          2.7116  -14.5670  -45.5018 C.3       3 UNK        -0.1800 
     59 N           0.9599  -13.1986  -44.5001 N.am      3 UNK        -0.5000 
     60 C           0.3796  -12.1331  -43.9329 C.2       2 UNK         0.5000 
     61 O           1.0061  -11.2524  -43.3409 O.2       2 UNK        -0.5000 
     62 CA         -1.1601  -12.0589  -44.0339 C.3       2 UNK         0.1400 
     63 CB         -1.7137  -10.6325  -43.8305 C.3       2 UNK        -0.1800 
     64 N          -1.7023  -12.6725  -45.2546 N.am      2 UNK        -0.5000 
     65 C          -1.5406  -12.2410  -46.5169 C.2       1 UNK         0.5000 
     66 O          -0.8433  -11.2708  -46.8155 O.2       1 UNK        -0.5000 
     67 C           0.3635  -20.1996  -48.8039 C.2       11 UNK         0.5000 
     68 O           0.4233  -20.8699  -49.8343 O.2       11 UNK        -0.5000 
     69 N          -0.6221  -19.3352  -48.5391 N.am      12 UNK        -0.5000 
     70 CA         -1.7214  -19.0173  -49.4440 C.3       12 UNK         0.1400 
     71 CB         -2.2881  -17.6383  -49.0816 C.3       12 UNK        -0.1800 
     72 C          -2.8234  -20.0789  -49.3859 C.2       12 UNK         0.5000 
     73 O          -3.3503  -20.4553  -50.4295 O.2       12 UNK        -0.5000 
     74 N          -3.1330  -20.5608  -48.1767 N.am      13 UNK        -0.5000 
     75 CA         -4.1349  -21.6022  -47.9350 C.3       13 UNK         0.1400 
     76 CB         -4.9993  -21.1977  -46.7299 C.3       13 UNK        -0.1800 
     77 C          -3.4924  -22.9891  -47.7339 C.2       13 UNK         0.5000 
     78 O          -4.1537  -23.8852  -47.2064 O.2       13 UNK        -0.5000 
     79 N          -2.2240  -23.1450  -48.1476 N.am      14 UNK        -0.5000 
     80 CA         -1.4095  -24.3538  -48.0072 C.3       14 UNK         0.1400 
     81 CB         -0.0552  -24.1427  -48.6989 C.3       14 UNK        -0.1800 
     82 C          -2.1120  -25.6121  -48.5503 C.2       14 UNK         0.5000 
     83 O          -2.4962  -25.6440  -49.7245 O.2       14 UNK        -0.5000 
     84 N          -2.3239  -26.5845  -47.6501 N.am      15 UNK        -0.5000 
     85 CA         -3.0265  -27.8620  -47.8403 C.3       15 UNK         0.1400 
     86 CB         -2.2176  -28.7702  -48.7896 C.3       15 UNK        -0.1800 
     87 C          -4.5000  -27.7285  -48.2920 C.2       15 UNK         0.5000 
     88 O          -5.0806  -28.7145  -48.7481 O.2       15 UNK        -0.5000 
     89 N          -5.0628  -26.5110  -48.2048 N.am      16 UNK        -0.5000 
     90 CA         -6.3179  -26.0584  -48.8184 C.3       16 UNK         0.1400 
     91 CB         -7.5316  -26.7585  -48.1732 C.3       16 UNK        -0.1800 
     92 C          -6.3178  -26.1653  -50.3631 C.2       16 UNK         0.5000 
     93 O          -7.3882  -26.1632  -50.9733 O.2       16 UNK        -0.5000 
     94 N          -5.1248  -26.2655  -50.9661 N.am      17 UNK        -0.5000 
     95 CA         -4.9162  -26.5352  -52.3865 C.3       17 UNK         0.1400 
     96 CB         -3.9560  -27.7276  -52.5223 C.3       17 UNK        -0.1800 
     97 C          -4.3490  -25.3145  -53.1232 C.2       17 UNK         0.5000 
     98 O          -4.6593  -25.1317  -54.3007 O.2       17 UNK        -0.5000 
     99 N          -3.5311  -24.5042  -52.4332 N.am      18 UNK        -0.5000 
    100 CA        -2.9012  -23.3064  -52.9938 C.3       18 UNK         0.1400 
    101 CB        -1.8191  -22.7986  -52.0304 C.3       18 UNK        -0.1800 
    102 C         -3.9067  -22.1959  -53.3552 C.2       18 UNK         0.5000 
    103 O         -3.7162  -21.5243  -54.3699 O.2       18 UNK        -0.5000 
    104 N         -4.9567  -22.0386  -52.5332 N.am      19 UNK        -0.5000 
    105 CA        -6.1288  -21.1683  -52.7218 C.3       19 UNK         0.1400 
    106 CB        -7.0647  -21.8023  -53.7708 C.3       19 UNK        -0.1800 
    107 C         -5.8069  -19.6882  -53.0443 C.2       19 UNK         0.5000 
    108 O         -6.5553  -19.0418  -53.7787 O.2       19 UNK        -0.5000 
    109 N         -4.6737  -19.1954  -52.5236 N.am      20 UNK        -0.5000 
    110 CA        -4.0406  -17.8913  -52.7669 C.3       20 UNK         0.1400 
    111 CB        -4.9266  -16.7404  -52.2512 C.3       20 UNK        -0.1800 
    112 C         -3.5622  -17.6570  -54.2199 C.2       20 UNK         0.5000 
    113 O         -3.0631  -16.5723  -54.5203 O.2       20 UNK        -0.5000 
    114 N         -3.6811  -18.6724  -55.0840 N.am      21 UNK        -0.5000 
    115 CA        -3.1893  -18.6861  -56.4622 C.3       21 UNK         0.1400 
    116 CB        -4.2228  -19.4113  -57.3383 C.3       21 UNK        -0.1800 
    117 C         -1.8181  -19.3804  -56.5681 C.2       21 UNK         0.5000 
    118 O         -1.1304  -19.2077  -57.5748 O.2       21 UNK        -0.5000 
    119 N         -1.4597  -20.1515  -55.5325 N.am      22 UNK        -0.5000 
    120 CA        -0.2393  -20.9630  -55.3969 C.3       22 UNK         0.1400 
    121 C         -0.2690  -22.2760  -56.2362 C.2       22 UNK         0.5000 
    122 N         -1.4322  -22.7563  -56.6607 N.am      22 UNK        -0.7600 
    123 O          0.7668  -22.8873  -56.4839 O.2       22 UNK        -0.5000 
    124 C124        1.0838  -20.1606  -55.5758 C.3       23 UNK        -0.0398 
    125 S125        1.2608  -18.6112  -54.6138 S.3       23 UNK        -0.2404 
    126 C126        0.3771  -18.9258  -53.0531 C.3       23 UNK        -0.0205 
    127 H127       -4.6072  -16.0155  -46.4162 H         1 UNK         0.0600 
    128 H128       -6.1141  -15.1167  -46.6211 H         1 UNK         0.0600 
    129 H129       -5.2742  -15.0974  -45.0652 H         1 UNK         0.0600 
    130 H130       -2.8718  -14.9998  -47.3338 H         1 UNK         0.3000 
    131 H131       -2.8830  -12.2576  -48.1607 H         1 UNK         0.0600 
    132 H132       -0.6534  -14.3548  -48.2429 H         1 UNK         0.0800 
    133 H133       -0.5665  -12.7807  -48.9945 H         1 UNK         0.0800 
    134 H134       -0.0316  -13.4300  -51.2092 H         1 UNK         0.0800 
    135 H135       -1.0907  -14.1961  -52.3562 H         1 UNK         0.0800 
    136 H136       -0.9221  -16.5362  -52.8570 H         1 UNK         0.1150 
    137 H137        2.2482  -18.8059  -51.1083 H         1 UNK         0.1150 
    138 H138        1.3218  -14.8985  -49.5937 H         1 UNK         0.1150 
    139 H139        2.7910  -16.3722  -48.3001 H         1 UNK         0.0800 
    140 H140        3.9072  -16.4959  -49.6343 H         1 UNK         0.0800 
    141 H141        1.5427  -18.2010  -47.2924 H         1 UNK         0.0800 
    142 H142        2.7497  -19.1548  -46.4890 H         1 UNK         0.0800 
    143 H143        2.1562  -21.0839  -48.1252 H         1 UNK         0.0600 
    144 H144       -0.0737  -20.6257  -46.2580 H         1 UNK         0.3000 
    145 H145        0.2723  -23.2109  -44.6809 H         1 UNK         0.0600 
    146 H146        2.2844  -21.6620  -42.9690 H         1 UNK         0.0600 
    147 H147        2.4666  -23.3189  -43.5364 H         1 UNK         0.0600 
    148 H148        1.2014  -22.9212  -42.3883 H         1 UNK         0.0600 
    149 H149        0.1567  -20.4471  -43.5446 H         1 UNK         0.3000 
    150 H150       -3.2635  -20.1342  -44.2868 H         1 UNK         0.0600 
    151 H151       -3.5061  -21.3412  -42.1445 H         1 UNK         0.0600 
    152 H152       -2.0834  -20.5390  -41.4954 H         1 UNK         0.0600 
    153 H153       -3.5334  -19.6060  -41.8722 H         1 UNK         0.0600 
    154 H154       -1.4453  -18.4738  -42.8487 H         1 UNK         0.3000 
    155 H155        0.6637  -17.5218  -44.9607 H         1 UNK         0.0600 
    156 H156       -1.6934  -16.0116  -46.1498 H         1 UNK         0.0600 
    157 H157       -0.3175  -16.6940  -46.9951 H         1 UNK         0.0600 
    158 H158       -0.0972  -15.2853  -45.9799 H         1 UNK         0.0600 
    159 H159        0.3971  -16.6286  -42.9760 H         1 UNK         0.3000 
    160 H160       -0.6435  -14.2739  -41.6616 H         1 UNK         0.0600 
    161 H161       -3.1103  -15.8832  -40.8379 H         1 UNK         0.0600 
    162 H162       -3.0627  -14.2009  -41.3380 H         1 UNK         0.0600 
    163 H163       -2.3059  -14.6813  -39.8285 H         1 UNK         0.0600 
    164 H164        0.6452  -15.7361  -40.6355 H         1 UNK         0.3000 
    165 H165        0.8290  -17.6833  -38.9043 H         1 UNK         0.0600 
    166 H166       -0.5895  -19.7308  -38.9593 H         1 UNK         0.0600 
    167 H167        0.1344  -20.2183  -40.4860 H         1 UNK         0.0600 
    168 H168        1.1157  -20.1452  -39.0253 H         1 UNK         0.0600 
    169 H169        2.6952  -17.6680  -40.1190 H         1 UNK         0.3000 
    170 H170        4.2545  -18.8850  -41.7196 H         1 UNK         0.0600 
    171 H171        4.8343  -18.7553  -44.1212 H         1 UNK         0.0600 
    172 H172        3.4874  -19.8598  -43.9114 H         1 UNK         0.0600 
    173 H173        3.1991  -18.2286  -44.5126 H         1 UNK         0.0600 
    174 H174        4.0312  -16.4287  -43.2351 H         1 UNK         0.3000 
    175 H175        4.1902  -14.1289  -40.6652 H         1 UNK         0.0600 
    176 H176        6.6000  -14.7921  -40.5654 H         1 UNK         0.0600 
    177 H177        6.6446  -14.9344  -42.3185 H         1 UNK         0.0600 
    178 H178        6.3735  -13.3641  -41.5611 H         1 UNK         0.0600 
    179 H179        4.7306  -13.7916  -43.4199 H         1 UNK         0.3000 
    180 H180        2.9628  -12.6226  -44.6025 H         1 UNK         0.0600 
    181 H181        2.2338  -15.5268  -45.3043 H         1 UNK         0.0600 
    182 H182        3.7856  -14.7466  -45.5619 H         1 UNK         0.0600 
    183 H183        2.3893  -14.2266  -46.4862 H         1 UNK         0.0600 
    184 H184        0.3643  -13.8825  -44.9383 H         1 UNK         0.3000 
    185 H185       -1.5414  -12.6585  -43.2083 H         1 UNK         0.0600 
    186 H186       -1.4536  -10.2500  -42.8430 H         1 UNK         0.0600 
    187 H187       -1.3161   -9.9316  -44.5648 H         1 UNK         0.0600 
    188 H188       -2.8011  -10.6175  -43.9060 H         1 UNK         0.0600 
    189 H189       -2.2855  -13.4872  -45.1066 H         1 UNK         0.3000 
    190 H190       -0.6880  -18.9181  -47.6164 H         1 UNK         0.3000 
    191 H191       -1.3438  -18.9783  -50.4666 H         1 UNK         0.0600 
    192 H192       -1.5075  -16.8807  -49.1233 H         1 UNK         0.0600 
    193 H193       -3.0716  -17.3377  -49.7772 H         1 UNK         0.0600 
    194 H194       -2.7166  -17.6226  -48.0790 H         1 UNK         0.0600 
    195 H195       -2.6552  -20.1857  -47.3660 H         1 UNK         0.3000 
    196 H196       -4.7998  -21.6872  -48.7969 H         1 UNK         0.0600 
    197 H197       -4.4426  -21.2690  -45.7977 H         1 UNK         0.0600 
    198 H198       -5.8673  -21.8516  -46.6373 H         1 UNK         0.0600 
    199 H199       -5.3710  -20.1777  -46.8286 H         1 UNK         0.0600 
    200 H200       -1.7817  -22.3604  -48.6012 H         1 UNK         0.3000 
    201 H201       -1.2228  -24.4870  -46.9396 H         1 UNK         0.0600 
    202 H202       -0.1737  -23.9225  -49.7598 H         1 UNK         0.0600 
    203 H203        0.4969  -23.3200  -48.2468 H         1 UNK         0.0600 
    204 H204        0.5693  -25.0331  -48.6168 H         1 UNK         0.0600 
    205 H205       -2.0052  -26.4212  -46.7050 H         1 UNK         0.3000 
    206 H206       -3.0549  -28.3442  -46.8623 H         1 UNK         0.0600 
    207 H207       -1.1860  -28.8732  -48.4530 H         1 UNK         0.0600 
    208 H208       -2.6426  -29.7735  -48.8341 H         1 UNK         0.0600 
    209 H209       -2.2002  -28.3780  -49.8068 H         1 UNK         0.0600 
    210 H210       -4.5133  -25.7647  -47.7883 H         1 UNK         0.3000 
    211 H211       -6.3946  -24.9940  -48.5928 H         1 UNK         0.0600 
    212 H212       -7.5040  -26.6730  -47.0869 H         1 UNK         0.0600 
    213 H213       -8.4666  -26.3083  -48.5085 H         1 UNK         0.0600 
    214 H214       -7.5720  -27.8181  -48.4263 H         1 UNK         0.0600 
    215 H215       -4.2887  -26.2189  -50.3926 H         1 UNK         0.3000 
    216 H216       -5.8589  -26.8044  -52.8675 H         1 UNK         0.0600 
    217 H217       -2.9821  -27.5130  -52.0801 H         1 UNK         0.0600 
    218 H218       -3.7933  -27.9820  -53.5704 H         1 UNK         0.0600 
    219 H219       -4.3578  -28.6137  -52.0301 H         1 UNK         0.0600 
    220 H220       -3.2785  -24.7541  -51.4842 H         1 UNK         0.3000 
    221 H221       -2.4053  -23.5940  -53.9232 H         1 UNK         0.0600 
    222 H222       -2.1921  -22.7299  -51.0095 H         1 UNK         0.0600 
    223 H223       -0.9610  -23.4703  -52.0230 H         1 UNK         0.0600 
    224 H224       -1.4558  -21.8101  -52.3138 H         1 UNK         0.0600 
    225 H225       -4.9774  -22.6170  -51.7068 H         1 UNK         0.3000 
    226 H226       -6.6574  -21.1574  -51.7677 H         1 UNK         0.0600 
    227 H227       -7.3071  -22.8328  -53.5108 H         1 UNK         0.0600 
    228 H228       -8.0070  -21.2579  -53.8427 H         1 UNK         0.0600 
    229 H229       -6.6092  -21.8067  -54.7619 H         1 UNK         0.0600 
    230 H230       -4.1583  -19.8076  -51.8916 H         1 UNK         0.3000 
    231 H231       -3.1322  -17.8954  -52.1638 H         1 UNK         0.0600 
    232 H232       -5.8286  -16.6223  -52.8520 H         1 UNK         0.0600 
    233 H233       -4.3892  -15.7916  -52.2786 H         1 UNK         0.0600 
    234 H234       -5.2295  -16.9085  -51.2178 H         1 UNK         0.0600 
    235 H235       -4.0806  -19.5422  -54.7492 H         1 UNK         0.3000 
    236 H236       -3.0775  -17.6655  -56.8334 H         1 UNK         0.0600 
    237 H237       -4.3716  -20.4427  -57.0155 H         1 UNK         0.0600 
    238 H238       -5.1892  -18.9080  -57.3034 H         1 UNK         0.0600 
    239 H239       -3.9053  -19.4346  -58.3815 H         1 UNK         0.0600 
    240 H240       -2.1605  -20.3051  -54.8186 H         1 UNK         0.3000 
    241 H241       -0.2513  -21.3217  -54.3686 H         1 UNK         0.0600 
    242 H242       -1.4510  -23.6082  -57.1987 H         1 UNK         0.3800 
    243 H243       -2.2936  -22.2799  -56.4411 H         1 UNK         0.3800 
    244 H244        1.2315  -19.9119  -56.6275 H         1 UNK         0.0800 
    245 H245        1.9316  -20.7923  -55.3063 H         1 UNK         0.0800 
    246 H246       -0.6936  -19.0147  -53.2343 H         1 UNK         0.0800 
    247 H247        0.7053  -19.8752  -52.6264 H         1 UNK         0.0800 
@<TRIPOS>BOND
     1    1    2 1    
     2    1  127 1    
     3    1  128 1    
     4    1  129 1    
     5    2    3 2    
     6    2    4 am   BACKBONE|DICT|INTERRES
     7    4    5 1    
     8    4  130 1    
     9    5    6 1    
    10    5   65 1    
    11    5  131 1    
    12    6    7 1    
    13    6  132 1    
    14    6  133 1    
    15    7    8 1    
    16    8    9 1    
    17    8  134 1    
    18    8  135 1    
    19    9   10 ar   
    20    9   14 ar   
    21   10   11 ar   
    22   10  136 1    
    23   11   12 ar   
    24   11  126 1    
    25   12   13 ar   
    26   12  137 1    
    27   13   14 ar   
    28   13   15 1    
    29   14  138 1    
    30   15   16 1    
    31   15  139 1    
    32   15  140 1    
    33   16   17 1    
    34   17   18 1    
    35   17  141 1    
    36   17  142 1    
    37   18   19 1    
    38   18   67 1    
    39   18  143 1    
    40   19   20 am   BACKBONE|DICT|INTERRES
    41   19  144 1    
    42   20   21 2    
    43   20   22 1    
    44   22   23 1    
    45   22   24 1    
    46   22  145 1    
    47   23  146 1    
    48   23  147 1    
    49   23  148 1    
    50   24   25 am   BACKBONE|DICT|INTERRES
    51   24  149 1    
    52   25   26 2    
    53   25   27 1    
    54   27   28 1    
    55   27   29 1    
    56   27  150 1    
    57   28  151 1    
    58   28  152 1    
    59   28  153 1    
    60   29   30 am   BACKBONE|DICT|INTERRES
    61   29  154 1    
    62   30   31 2    
    63   30   32 1    
    64   32   33 1    
    65   32   34 1    
    66   32  155 1    
    67   33  156 1    
    68   33  157 1    
    69   33  158 1    
    70   34   35 am   BACKBONE|DICT|INTERRES
    71   34  159 1    
    72   35   36 2    
    73   35   37 1    
    74   37   38 1    
    75   37   39 1    
    76   37  160 1    
    77   38  161 1    
    78   38  162 1    
    79   38  163 1    
    80   39   40 am   BACKBONE|DICT|INTERRES
    81   39  164 1    
    82   40   41 2    
    83   40   42 1    
    84   42   43 1    
    85   42   44 1    
    86   42  165 1    
    87   43  166 1    
    88   43  167 1    
    89   43  168 1    
    90   44   45 am   BACKBONE|DICT|INTERRES
    91   44  169 1    
    92   45   46 2    
    93   45   47 1    
    94   47   48 1    
    95   47   49 1    
    96   47  170 1    
    97   48  171 1    
    98   48  172 1    
    99   48  173 1    
   100   49   50 am   BACKBONE|DICT|INTERRES
   101   49  174 1    
   102   50   51 2    
   103   50   52 1    
   104   52   53 1    
   105   52   54 1    
   106   52  175 1    
   107   53  176 1    
   108   53  177 1    
   109   53  178 1    
   110   54   55 am   BACKBONE|DICT|INTERRES
   111   54  179 1    
   112   55   56 2    
   113   55   57 1    
   114   57   58 1    
   115   57   59 1    
   116   57  180 1    
   117   58  181 1    
   118   58  182 1    
   119   58  183 1    
   120   59   60 am   BACKBONE|DICT|INTERRES
   121   59  184 1    
   122   60   61 2    
   123   60   62 1    
   124   62   63 1    
   125   62   64 1    
   126   62  185 1    
   127   63  186 1    
   128   63  187 1    
   129   63  188 1    
   130   64   65 am   BACKBONE|DICT|INTERRES
   131   64  189 1    
   132   65   66 2    
   133   67   68 2    
   134   67   69 am   BACKBONE|DICT|INTERRES
   135   69   70 1    
   136   69  190 1    
   137   70   71 1    
   138   70   72 1    
   139   70  191 1    
   140   71  192 1    
   141   71  193 1    
   142   71  194 1    
   143   72   73 2    
   144   72   74 am   BACKBONE|DICT|INTERRES
   145   74   75 1    
   146   74  195 1    
   147   75   76 1    
   148   75   77 1    
   149   75  196 1    
   150   76  197 1    
   151   76  198 1    
   152   76  199 1    
   153   77   78 2    
   154   77   79 am   BACKBONE|DICT|INTERRES
   155   79   80 1    
   156   79  200 1    
   157   80   81 1    
   158   80   82 1    
   159   80  201 1    
   160   81  202 1    
   161   81  203 1    
   162   81  204 1    
   163   82   83 2    
   164   82   84 am   BACKBONE|DICT|INTERRES
   165   84   85 1    
   166   84  205 1    
   167   85   86 1    
   168   85   87 1    
   169   85  206 1    
   170   86  207 1    
   171   86  208 1    
   172   86  209 1    
   173   87   88 2    
   174   87   89 am   BACKBONE|DICT|INTERRES
   175   89   90 1    
   176   89  210 1    
   177   90   91 1    
   178   90   92 1    
   179   90  211 1    
   180   91  212 1    
   181   91  213 1    
   182   91  214 1    
   183   92   93 2    
   184   92   94 am   BACKBONE|DICT|INTERRES
   185   94   95 1    
   186   94  215 1    
   187   95   96 1    
   188   95   97 1    
   189   95  216 1    
   190   96  217 1    
   191   96  218 1    
   192   96  219 1    
   193   97   98 2    
   194   97   99 am   BACKBONE|DICT|INTERRES
   195   99  100 1    
   196   99  220 1    
   197  100  101 1    
   198  100  102 1    
   199  100  221 1    
   200  101  222 1    
   201  101  223 1    
   202  101  224 1    
   203  102  103 2    
   204  102  104 am   BACKBONE|DICT|INTERRES
   205  104  105 1    
   206  104  225 1    
   207  105  106 1    
   208  105  107 1    
   209  105  226 1    
   210  106  227 1    
   211  106  228 1    
   212  106  229 1    
   213  107  108 2    
   214  107  109 am   BACKBONE|DICT|INTERRES
   215  109  110 1    
   216  109  230 1    
   217  110  111 1    
   218  110  112 1    
   219  110  231 1    
   220  111  232 1    
   221  111  233 1    
   222  111  234 1    
   223  112  113 2    
   224  112  114 am   BACKBONE|DICT|INTERRES
   225  114  115 1    
   226  114  235 1    
   227  115  116 1    
   228  115  117 1    
   229  115  236 1    
   230  116  237 1    
   231  116  238 1    
   232  116  239 1    
   233  117  118 2    
   234  117  119 am   BACKBONE|DICT|INTERRES
   235  119  120 1    
   236  119  240 1    
   237  120  121 1    
   238  120  124 1    
   239  120  241 1    
   240  121  122 am   BACKBONE|DICT|INTERRES
   241  121  123 2    
   242  122  242 1    
   243  122  243 1    
   244  124  125 1    
   245  124  244 1    
   246  124  245 1    
   247  125  126 1    
   248  126  246 1    
   249  126  247 1    
@<TRIPOS>SUBSTRUCTURE
     1 UNK         1 GROUP             0       ****    0 ROOT    
