@<TRIPOS>MOLECULE
3R540
247   249    1
SMALL
USER_CHARGES


@<TRIPOS>ATOM
      1 CA         -0.5884  -16.8158  -49.4587 C.3       0 UNK        -0.1800 
      2 C          -0.0781  -15.3832  -49.3837 C.2       0 UNK         0.5000 
      3 O          -0.6231  -14.4957  -50.0400 O.2       0 UNK        -0.5000 
      4 N           0.9715  -15.1635  -48.5816 N.am      1 UNK        -0.5000 
      5 CA          1.6164  -13.8713  -48.3333 C.3       1 UNK         0.1400 
      6 C6          2.8756  -14.0227  -47.4408 C.3       23 UNK        -0.0398 
      7 S7          4.2821  -14.8378  -48.2725 S.3       23 UNK        -0.2404 
      8 C8          3.9154  -16.6232  -48.0946 C.3       23 UNK        -0.0205 
      9 C9          3.4228  -17.3314  -49.3632 C.ar      23 UNK        -0.0193 
     10 C10         3.0989  -16.6476  -50.5446 C.ar      23 UNK        -0.1150 
     11 C11         2.6723  -17.3362  -51.6829 C.ar      23 UNK        -0.0193 
     12 C12         2.5734  -18.7280  -51.6453 C.ar      23 UNK        -0.1150 
     13 C13         2.8919  -19.4294  -50.4798 C.ar      23 UNK        -0.0193 
     14 C14         3.3088  -18.7261  -49.3441 C.ar      23 UNK        -0.1150 
     15 C15         2.8080  -20.9488  -50.4665 C.3       23 UNK        -0.0205 
     16 S16         1.0977  -21.5286  -50.2473 S.3       23 UNK        -0.2404 
     17 C17         0.8218  -21.1970  -48.4744 C.3       23 UNK        -0.0398 
     18 CA          0.3250  -22.4483  -47.7103 C.3       11 UNK         0.1400 
     19 N           0.6278  -22.3816  -46.2782 N.am      11 UNK        -0.5000 
     20 C           0.4320  -23.3859  -45.4107 C.2       10 UNK         0.5000 
     21 O           0.0056  -24.4943  -45.7314 O.2       10 UNK        -0.5000 
     22 CA          0.7104  -23.0911  -43.9272 C.3       10 UNK         0.1400 
     23 CB          2.2151  -23.1718  -43.6305 C.3       10 UNK        -0.1800 
     24 N           0.1893  -21.7909  -43.5058 N.am      10 UNK        -0.5000 
     25 C          -1.1079  -21.4501  -43.5164 C.2       9 UNK         0.5000 
     26 O          -2.0147  -22.2174  -43.8354 O.2       9 UNK        -0.5000 
     27 CA         -1.4445  -19.9889  -43.1711 C.3       9 UNK         0.1400 
     28 CB         -1.4049  -19.7547  -41.6540 C.3       9 UNK        -0.1800 
     29 N          -0.5537  -19.0405  -43.8376 N.am      9 UNK        -0.5000 
     30 C          -0.4345  -18.9073  -45.1664 C.2       8 UNK         0.5000 
     31 O          -1.0875  -19.5468  -45.9909 O.2       8 UNK        -0.5000 
     32 CA          0.6375  -17.9221  -45.6505 C.3       8 UNK         0.1400 
     33 CB          0.1241  -16.4775  -45.5418 C.3       8 UNK        -0.1800 
     34 N           1.8804  -18.0732  -44.8932 N.am      8 UNK        -0.5000 
     35 C           2.6981  -19.1319  -44.9957 C.2       7 UNK         0.5000 
     36 O           2.5056  -20.0681  -45.7698 O.2       7 UNK        -0.5000 
     37 CA          3.9184  -19.1668  -44.0576 C.3       7 UNK         0.1400 
     38 CB          5.0750  -18.3548  -44.6600 C.3       7 UNK        -0.1800 
     39 N           3.6198  -18.6641  -42.7160 N.am      7 UNK        -0.5000 
     40 C           2.7717  -19.2447  -41.8541 C.2       6 UNK         0.5000 
     41 O           2.1933  -20.3067  -42.0767 O.2       6 UNK        -0.5000 
     42 CA          2.4692  -18.4773  -40.5512 C.3       6 UNK         0.1400 
     43 CB          3.4610  -18.8762  -39.4488 C.3       6 UNK        -0.1800 
     44 N           2.4822  -17.0191  -40.7132 N.am      6 UNK        -0.5000 
     45 C           1.7125  -16.3394  -41.5740 C.2       5 UNK         0.5000 
     46 O           0.8911  -16.8805  -42.3191 O.2       5 UNK        -0.5000 
     47 CA          1.9693  -14.8227  -41.6619 C.3       5 UNK         0.1400 
     48 CB          3.3650  -14.5439  -42.2471 C.3       5 UNK        -0.1800 
     49 N           0.9895  -14.1385  -42.5015 N.am      5 UNK        -0.5000 
     50 C          -0.2946  -13.9189  -42.1926 C.2       4 UNK         0.5000 
     51 O          -0.8090  -14.2408  -41.1195 O.2       4 UNK        -0.5000 
     52 CA         -1.1190  -13.1939  -43.2783 C.3       4 UNK         0.1400 
     53 CB         -2.4633  -12.6416  -42.7603 C.3       4 UNK        -0.1800 
     54 N          -0.3454  -12.1498  -43.9635 N.am      4 UNK        -0.5000 
     55 C           0.1912  -11.0454  -43.4145 C.2       3 UNK         0.5000 
     56 O           0.0626  -10.7366  -42.2293 O.2       3 UNK        -0.5000 
     57 CA          1.0384  -10.1332  -44.3285 C.3       3 UNK         0.1400 
     58 CB          2.5332  -10.3128  -44.0172 C.3       3 UNK        -0.1800 
     59 N           0.8308  -10.3702  -45.7572 N.am      3 UNK        -0.5000 
     60 C          -0.2924  -10.0941  -46.4329 C.2       2 UNK         0.5000 
     61 O          -1.2556   -9.5043  -45.9423 O.2       2 UNK        -0.5000 
     62 CA         -0.3656  -10.5798  -47.8952 C.3       2 UNK         0.1400 
     63 CB         -0.1598   -9.4019  -48.8605 C.3       2 UNK        -0.1800 
     64 N           0.5778  -11.6496  -48.2484 N.am      2 UNK        -0.5000 
     65 C           0.6235  -12.8727  -47.7003 C.2       1 UNK         0.5000 
     66 O          -0.0482  -13.2143  -46.7233 O.2       1 UNK        -0.5000 
     67 C          -1.1730  -22.7107  -47.9640 C.2       11 UNK         0.5000 
     68 O          -1.5096  -23.6449  -48.6899 O.2       11 UNK        -0.5000 
     69 N          -2.0424  -21.9175  -47.3223 N.am      12 UNK        -0.5000 
     70 CA         -3.4982  -22.0325  -47.4218 C.3       12 UNK         0.1400 
     71 CB         -4.1478  -20.8100  -46.7576 C.3       12 UNK        -0.1800 
     72 C          -4.0623  -23.3414  -46.8359 C.2       12 UNK         0.5000 
     73 O          -5.1075  -23.7971  -47.2966 O.2       12 UNK        -0.5000 
     74 N          -3.3761  -23.9207  -45.8416 N.am      13 UNK        -0.5000 
     75 CA         -3.7047  -25.2240  -45.2665 C.3       13 UNK         0.1400 
     76 CB         -3.0668  -25.3469  -43.8741 C.3       13 UNK        -0.1800 
     77 C          -3.2648  -26.3911  -46.1697 C.2       13 UNK         0.5000 
     78 O          -3.9972  -27.3752  -46.2816 O.2       13 UNK        -0.5000 
     79 N          -2.0748  -26.2760  -46.7763 N.am      14 UNK        -0.5000 
     80 CA         -1.4984  -27.2813  -47.6695 C.3       14 UNK         0.1400 
     81 CB          0.0036  -27.0081  -47.8463 C.3       14 UNK        -0.1800 
     82 C          -2.2055  -27.3346  -49.0347 C.2       14 UNK         0.5000 
     83 O          -2.5128  -28.4245  -49.5208 O.2       14 UNK        -0.5000 
     84 N          -2.4441  -26.1594  -49.6270 N.am      15 UNK        -0.5000 
     85 CA         -3.1672  -25.9852  -50.8835 C.3       15 UNK         0.1400 
     86 CB         -2.7121  -24.6608  -51.5205 C.3       15 UNK        -0.1800 
     87 C          -4.6915  -25.9915  -50.6558 C.2       15 UNK         0.5000 
     88 O          -5.1590  -25.9969  -49.5149 O.2       15 UNK        -0.5000 
     89 N          -5.4560  -25.9552  -51.7534 N.am      16 UNK        -0.5000 
     90 CA         -6.9133  -25.8061  -51.7527 C.3       16 UNK         0.1400 
     91 CB         -7.4716  -26.3457  -53.0819 C.3       16 UNK        -0.1800 
     92 C          -7.3320  -24.3447  -51.4725 C.2       16 UNK         0.5000 
     93 O          -7.8703  -23.6729  -52.3550 O.2       16 UNK        -0.5000 
     94 N          -7.0523  -23.8843  -50.2452 N.am      17 UNK        -0.5000 
     95 CA         -7.3125  -22.5475  -49.7027 C.3       17 UNK         0.1400 
     96 CB         -8.8295  -22.2524  -49.6897 C.3       17 UNK        -0.1800 
     97 C          -6.4946  -21.4340  -50.3929 C.2       17 UNK         0.5000 
     98 O          -5.5794  -21.7112  -51.1734 O.2       17 UNK        -0.5000 
     99 N          -6.8397  -20.1767  -50.0794 N.am      18 UNK        -0.5000 
    100 CA        -6.2076  -18.9537  -50.5870 C.3       18 UNK         0.1400 
    101 CB        -6.8647  -17.7388  -49.9155 C.3       18 UNK        -0.1800 
    102 C         -6.2518  -18.8073  -52.1206 C.2       18 UNK         0.5000 
    103 O         -5.3623  -18.1811  -52.6952 O.2       18 UNK        -0.5000 
    104 N         -7.2707  -19.4042  -52.7548 N.am      19 UNK        -0.5000 
    105 CA        -7.4407  -19.4496  -54.2068 C.3       19 UNK         0.1400 
    106 CB        -8.8208  -20.0416  -54.5310 C.3       19 UNK        -0.1800 
    107 C         -6.3307  -20.2447  -54.9204 C.2       19 UNK         0.5000 
    108 O         -5.9376  -19.8718  -56.0264 O.2       19 UNK        -0.5000 
    109 N         -5.8430  -21.3126  -54.2752 N.am      20 UNK        -0.5000 
    110 CA        -4.7338  -22.1286  -54.7629 C.3       20 UNK         0.1400 
    111 CB        -4.9696  -23.5861  -54.3582 C.3       20 UNK        -0.1800 
    112 C         -3.3845  -21.6202  -54.2303 C.2       20 UNK         0.5000 
    113 O         -2.3997  -21.6366  -54.9705 O.2       20 UNK        -0.5000 
    114 N         -3.3572  -21.1458  -52.9764 N.am      21 UNK        -0.5000 
    115 CA        -2.1991  -20.5280  -52.3260 C.3       21 UNK         0.1400 
    116 CB        -2.3797  -20.5999  -50.8010 C.3       21 UNK        -0.1800 
    117 C         -1.9518  -19.0907  -52.8325 C.2       21 UNK         0.5000 
    118 O         -2.0862  -18.1339  -52.0727 O.2       21 UNK        -0.5000 
    119 N         -1.6237  -18.9899  -54.1249 N.am      22 UNK        -0.5000 
    120 CA        -1.2395  -17.8021  -54.9067 C.3       22 UNK         0.1400 
    121 C         -2.2527  -16.6182  -54.9989 C.2       22 UNK         0.5000 
    122 N         -3.4435  -16.6887  -54.4198 N.am      22 UNK        -0.7600 
    123 O         -1.9728  -15.6257  -55.6665 O.2       22 UNK        -0.5000 
    124 C124        0.2345  -17.3641  -54.6622 C.3       23 UNK        -0.0398 
    125 S125        0.5458  -16.3607  -53.1669 S.3       23 UNK        -0.2404 
    126 C126        2.3415  -16.5738  -52.9570 C.3       23 UNK        -0.0205 
    127 H127       -0.1504  -17.3237  -50.3177 H         1 UNK         0.0600 
    128 H128       -1.6726  -16.8297  -49.5709 H         1 UNK         0.0600 
    129 H129       -0.3362  -17.3849  -48.5657 H         1 UNK         0.0600 
    130 H130        1.3771  -15.9460  -48.0951 H         1 UNK         0.3000 
    131 H131        1.9265  -13.4755  -49.3027 H         1 UNK         0.0600 
    132 H132        2.6513  -14.5433  -46.5101 H         1 UNK         0.0800 
    133 H133        3.2398  -13.0383  -47.1404 H         1 UNK         0.0800 
    134 H134        3.1978  -16.7798  -47.2891 H         1 UNK         0.0800 
    135 H135        4.8369  -17.1101  -47.7723 H         1 UNK         0.0800 
    136 H136        3.1702  -15.5717  -50.5949 H         1 UNK         0.1150 
    137 H137        2.2477  -19.2663  -52.5244 H         1 UNK         0.1150 
    138 H138        3.5603  -19.2681  -48.4428 H         1 UNK         0.1150 
    139 H139        3.1898  -21.3382  -51.4114 H         1 UNK         0.0800 
    140 H140        3.4471  -21.3686  -49.6880 H         1 UNK         0.0800 
    141 H141        0.1408  -20.3514  -48.3638 H         1 UNK         0.0800 
    142 H142        1.7676  -20.8690  -48.0483 H         1 UNK         0.0800 
    143 H143        0.8732  -23.3136  -48.0900 H         1 UNK         0.0600 
    144 H144        1.0151  -21.5088  -45.9370 H         1 UNK         0.3000 
    145 H145        0.2062  -23.8583  -43.3362 H         1 UNK         0.0600 
    146 H146        2.4122  -23.0594  -42.5643 H         1 UNK         0.0600 
    147 H147        2.6230  -24.1360  -43.9364 H         1 UNK         0.0600 
    148 H148        2.7720  -22.3962  -44.1570 H         1 UNK         0.0600 
    149 H149        0.8730  -21.1168  -43.1717 H         1 UNK         0.3000 
    150 H150       -2.4596  -19.7894  -43.5206 H         1 UNK         0.0600 
    151 H151       -2.1123  -20.4077  -41.1415 H         1 UNK         0.0600 
    152 H152       -1.6702  -18.7267  -41.4058 H         1 UNK         0.0600 
    153 H153       -0.4167  -19.9543  -41.2403 H         1 UNK         0.0600 
    154 H154        0.0124  -18.4436  -43.2427 H         1 UNK         0.3000 
    155 H155        0.8547  -18.1380  -46.6981 H         1 UNK         0.0600 
    156 H156       -0.2516  -16.2488  -44.5452 H         1 UNK         0.0600 
    157 H157       -0.6961  -16.3024  -46.2388 H         1 UNK         0.0600 
    158 H158        0.9049  -15.7563  -45.7681 H         1 UNK         0.0600 
    159 H159        2.0458  -17.3981  -44.1600 H         1 UNK         0.3000 
    160 H160        4.2388  -20.2067  -43.9660 H         1 UNK         0.0600 
    161 H161        4.8209  -17.2985  -44.7578 H         1 UNK         0.0600 
    162 H162        5.3338  -18.7234  -45.6537 H         1 UNK         0.0600 
    163 H163        5.9715  -18.4291  -44.0443 H         1 UNK         0.0600 
    164 H164        4.0563  -17.7955  -42.4463 H         1 UNK         0.3000 
    165 H165        1.4666  -18.7626  -40.2274 H         1 UNK         0.0600 
    166 H166        3.2024  -18.4107  -38.4976 H         1 UNK         0.0600 
    167 H167        3.4567  -19.9558  -39.2921 H         1 UNK         0.0600 
    168 H168        4.4817  -18.5849  -39.6999 H         1 UNK         0.0600 
    169 H169        3.1391  -16.5114  -40.1383 H         1 UNK         0.3000 
    170 H170        1.9140  -14.4066  -40.6540 H         1 UNK         0.0600 
    171 H171        4.1527  -14.9672  -41.6229 H         1 UNK         0.0600 
    172 H172        3.4753  -14.9664  -43.2470 H         1 UNK         0.0600 
    173 H173        3.5556  -13.4724  -42.3153 H         1 UNK         0.0600 
    174 H174        1.3085  -13.8439  -43.4113 H         1 UNK         0.3000 
    175 H175       -1.3465  -13.9454  -44.0357 H         1 UNK         0.0600 
    176 H176       -3.0952  -13.4462  -42.3827 H         1 UNK         0.0600 
    177 H177       -2.3252  -11.9277  -41.9480 H         1 UNK         0.0600 
    178 H178       -3.0158  -12.1420  -43.5560 H         1 UNK         0.0600 
    179 H179       -0.1832  -12.3219  -44.9516 H         1 UNK         0.3000 
    180 H180        0.7613   -9.1000  -44.1091 H         1 UNK         0.0600 
    181 H181        2.8696  -11.3287  -44.2284 H         1 UNK         0.0600 
    182 H182        2.7415  -10.1110  -42.9656 H         1 UNK         0.0600 
    183 H183        3.1443   -9.6267  -44.6041 H         1 UNK         0.0600 
    184 H184        1.5739  -10.8410  -46.2505 H         1 UNK         0.3000 
    185 H185       -1.3727  -10.9730  -48.0477 H         1 UNK         0.0600 
    186 H186       -0.8659   -8.5965  -48.6534 H         1 UNK         0.0600 
    187 H187        0.8452   -8.9862  -48.7781 H         1 UNK         0.0600 
    188 H188       -0.3147   -9.7071  -49.8956 H         1 UNK         0.0600 
    189 H189        1.1773  -11.4546  -49.0375 H         1 UNK         0.3000 
    190 H190       -1.6859  -21.1602  -46.7432 H         1 UNK         0.3000 
    191 H191       -3.7613  -22.0187  -48.4813 H         1 UNK         0.0600 
    192 H192       -3.8220  -19.8848  -47.2336 H         1 UNK         0.0600 
    193 H193       -5.2348  -20.8516  -46.8368 H         1 UNK         0.0600 
    194 H194       -3.8941  -20.7493  -45.6984 H         1 UNK         0.0600 
    195 H195       -2.5758  -23.4360  -45.4519 H         1 UNK         0.3000 
    196 H196       -4.7881  -25.2874  -45.1440 H         1 UNK         0.0600 
    197 H197       -3.3021  -26.3101  -43.4197 H         1 UNK         0.0600 
    198 H198       -3.4364  -24.5718  -43.2027 H         1 UNK         0.0600 
    199 H199       -1.9808  -25.2604  -43.9184 H         1 UNK         0.0600 
    200 H200       -1.5040  -25.4576  -46.5887 H         1 UNK         0.3000 
    201 H201       -1.6082  -28.2604  -47.1983 H         1 UNK         0.0600 
    202 H202        0.5276  -27.0609  -46.8918 H         1 UNK         0.0600 
    203 H203        0.1860  -26.0206  -48.2722 H         1 UNK         0.0600 
    204 H204        0.4604  -27.7434  -48.5097 H         1 UNK         0.0600 
    205 H205       -2.1660  -25.3026  -49.1525 H         1 UNK         0.3000 
    206 H206       -2.9106  -26.8047  -51.5579 H         1 UNK         0.0600 
    207 H207       -1.6279  -24.5499  -51.4852 H         1 UNK         0.0600 
    208 H208       -2.9989  -24.6113  -52.5689 H         1 UNK         0.0600 
    209 H209       -3.1512  -23.8000  -51.0144 H         1 UNK         0.0600 
    210 H210       -5.0101  -25.9427  -52.6585 H         1 UNK         0.3000 
    211 H211       -7.3320  -26.4210  -50.9531 H         1 UNK         0.0600 
    212 H212       -7.0798  -25.8014  -53.9405 H         1 UNK         0.0600 
    213 H213       -8.5588  -26.2632  -53.1097 H         1 UNK         0.0600 
    214 H214       -7.2242  -27.3992  -53.2131 H         1 UNK         0.0600 
    215 H215       -6.5195  -24.4999  -49.6368 H         1 UNK         0.3000 
    216 H216       -6.9750  -22.5745  -48.6670 H         1 UNK         0.0600 
    217 H217       -9.0631  -21.3801  -49.0788 H         1 UNK         0.0600 
    218 H218       -9.3880  -23.0888  -49.2691 H         1 UNK         0.0600 
    219 H219       -9.2172  -22.0646  -50.6916 H         1 UNK         0.0600 
    220 H220       -7.6010  -20.0388  -49.4309 H         1 UNK         0.3000 
    221 H221       -5.1601  -18.9691  -50.2887 H         1 UNK         0.0600 
    222 H222       -7.9289  -17.6774  -50.1465 H         1 UNK         0.0600 
    223 H223       -6.7566  -17.7799  -48.8315 H         1 UNK         0.0600 
    224 H224       -6.4017  -16.8096  -50.2509 H         1 UNK         0.0600 
    225 H225       -7.9543  -19.8987  -52.2014 H         1 UNK         0.3000 
    226 H226       -7.4090  -18.4245  -54.5820 H         1 UNK         0.0600 
    227 H227       -9.6203  -19.4417  -54.0959 H         1 UNK         0.0600 
    228 H228       -8.9887  -20.0733  -55.6083 H         1 UNK         0.0600 
    229 H229       -8.9201  -21.0603  -54.1529 H         1 UNK         0.0600 
    230 H230       -6.2042  -21.5401  -53.3572 H         1 UNK         0.3000 
    231 H231       -4.6966  -22.0910  -55.8538 H         1 UNK         0.0600 
    232 H232       -5.8915  -23.9648  -54.7982 H         1 UNK         0.0600 
    233 H233       -5.0485  -23.6810  -53.2763 H         1 UNK         0.0600 
    234 H234       -4.1559  -24.2274  -54.6986 H         1 UNK         0.0600 
    235 H235       -4.2041  -21.1997  -52.4180 H         1 UNK         0.3000 
    236 H236       -1.3085  -21.1109  -52.5710 H         1 UNK         0.0600 
    237 H237       -1.5578  -20.1069  -50.2815 H         1 UNK         0.0600 
    238 H238       -3.3005  -20.1225  -50.4767 H         1 UNK         0.0600 
    239 H239       -2.4033  -21.6344  -50.4645 H         1 UNK         0.0600 
    240 H240       -1.6409  -19.8579  -54.6516 H         1 UNK         0.3000 
    241 H241       -1.2504  -18.1914  -55.9254 H         1 UNK         0.0600 
    242 H242       -3.6946  -17.4588  -53.8108 H         1 UNK         0.3800 
    243 H243       -4.0807  -15.9154  -54.5164 H         1 UNK         0.3800 
    244 H244        0.8696  -18.2503  -54.6292 H         1 UNK         0.0800 
    245 H245        0.5867  -16.7858  -55.5179 H         1 UNK         0.0800 
    246 H246        2.7754  -17.0871  -53.8161 H         1 UNK         0.0800 
    247 H247        2.8054  -15.5865  -52.9365 H         1 UNK         0.0800 
@<TRIPOS>BOND
     1    1    2 1    
     2    1  127 1    
     3    1  128 1    
     4    1  129 1    
     5    2    3 2    
     6    2    4 am   BACKBONE|DICT|INTERRES
     7    4    5 1    
     8    4  130 1    
     9    5    6 1    
    10    5   65 1    
    11    5  131 1    
    12    6    7 1    
    13    6  132 1    
    14    6  133 1    
    15    7    8 1    
    16    8    9 1    
    17    8  134 1    
    18    8  135 1    
    19    9   10 ar   
    20    9   14 ar   
    21   10   11 ar   
    22   10  136 1    
    23   11   12 ar   
    24   11  126 1    
    25   12   13 ar   
    26   12  137 1    
    27   13   14 ar   
    28   13   15 1    
    29   14  138 1    
    30   15   16 1    
    31   15  139 1    
    32   15  140 1    
    33   16   17 1    
    34   17   18 1    
    35   17  141 1    
    36   17  142 1    
    37   18   19 1    
    38   18   67 1    
    39   18  143 1    
    40   19   20 am   BACKBONE|DICT|INTERRES
    41   19  144 1    
    42   20   21 2    
    43   20   22 1    
    44   22   23 1    
    45   22   24 1    
    46   22  145 1    
    47   23  146 1    
    48   23  147 1    
    49   23  148 1    
    50   24   25 am   BACKBONE|DICT|INTERRES
    51   24  149 1    
    52   25   26 2    
    53   25   27 1    
    54   27   28 1    
    55   27   29 1    
    56   27  150 1    
    57   28  151 1    
    58   28  152 1    
    59   28  153 1    
    60   29   30 am   BACKBONE|DICT|INTERRES
    61   29  154 1    
    62   30   31 2    
    63   30   32 1    
    64   32   33 1    
    65   32   34 1    
    66   32  155 1    
    67   33  156 1    
    68   33  157 1    
    69   33  158 1    
    70   34   35 am   BACKBONE|DICT|INTERRES
    71   34  159 1    
    72   35   36 2    
    73   35   37 1    
    74   37   38 1    
    75   37   39 1    
    76   37  160 1    
    77   38  161 1    
    78   38  162 1    
    79   38  163 1    
    80   39   40 am   BACKBONE|DICT|INTERRES
    81   39  164 1    
    82   40   41 2    
    83   40   42 1    
    84   42   43 1    
    85   42   44 1    
    86   42  165 1    
    87   43  166 1    
    88   43  167 1    
    89   43  168 1    
    90   44   45 am   BACKBONE|DICT|INTERRES
    91   44  169 1    
    92   45   46 2    
    93   45   47 1    
    94   47   48 1    
    95   47   49 1    
    96   47  170 1    
    97   48  171 1    
    98   48  172 1    
    99   48  173 1    
   100   49   50 am   BACKBONE|DICT|INTERRES
   101   49  174 1    
   102   50   51 2    
   103   50   52 1    
   104   52   53 1    
   105   52   54 1    
   106   52  175 1    
   107   53  176 1    
   108   53  177 1    
   109   53  178 1    
   110   54   55 am   BACKBONE|DICT|INTERRES
   111   54  179 1    
   112   55   56 2    
   113   55   57 1    
   114   57   58 1    
   115   57   59 1    
   116   57  180 1    
   117   58  181 1    
   118   58  182 1    
   119   58  183 1    
   120   59   60 am   BACKBONE|DICT|INTERRES
   121   59  184 1    
   122   60   61 2    
   123   60   62 1    
   124   62   63 1    
   125   62   64 1    
   126   62  185 1    
   127   63  186 1    
   128   63  187 1    
   129   63  188 1    
   130   64   65 am   BACKBONE|DICT|INTERRES
   131   64  189 1    
   132   65   66 2    
   133   67   68 2    
   134   67   69 am   BACKBONE|DICT|INTERRES
   135   69   70 1    
   136   69  190 1    
   137   70   71 1    
   138   70   72 1    
   139   70  191 1    
   140   71  192 1    
   141   71  193 1    
   142   71  194 1    
   143   72   73 2    
   144   72   74 am   BACKBONE|DICT|INTERRES
   145   74   75 1    
   146   74  195 1    
   147   75   76 1    
   148   75   77 1    
   149   75  196 1    
   150   76  197 1    
   151   76  198 1    
   152   76  199 1    
   153   77   78 2    
   154   77   79 am   BACKBONE|DICT|INTERRES
   155   79   80 1    
   156   79  200 1    
   157   80   81 1    
   158   80   82 1    
   159   80  201 1    
   160   81  202 1    
   161   81  203 1    
   162   81  204 1    
   163   82   83 2    
   164   82   84 am   BACKBONE|DICT|INTERRES
   165   84   85 1    
   166   84  205 1    
   167   85   86 1    
   168   85   87 1    
   169   85  206 1    
   170   86  207 1    
   171   86  208 1    
   172   86  209 1    
   173   87   88 2    
   174   87   89 am   BACKBONE|DICT|INTERRES
   175   89   90 1    
   176   89  210 1    
   177   90   91 1    
   178   90   92 1    
   179   90  211 1    
   180   91  212 1    
   181   91  213 1    
   182   91  214 1    
   183   92   93 2    
   184   92   94 am   BACKBONE|DICT|INTERRES
   185   94   95 1    
   186   94  215 1    
   187   95   96 1    
   188   95   97 1    
   189   95  216 1    
   190   96  217 1    
   191   96  218 1    
   192   96  219 1    
   193   97   98 2    
   194   97   99 am   BACKBONE|DICT|INTERRES
   195   99  100 1    
   196   99  220 1    
   197  100  101 1    
   198  100  102 1    
   199  100  221 1    
   200  101  222 1    
   201  101  223 1    
   202  101  224 1    
   203  102  103 2    
   204  102  104 am   BACKBONE|DICT|INTERRES
   205  104  105 1    
   206  104  225 1    
   207  105  106 1    
   208  105  107 1    
   209  105  226 1    
   210  106  227 1    
   211  106  228 1    
   212  106  229 1    
   213  107  108 2    
   214  107  109 am   BACKBONE|DICT|INTERRES
   215  109  110 1    
   216  109  230 1    
   217  110  111 1    
   218  110  112 1    
   219  110  231 1    
   220  111  232 1    
   221  111  233 1    
   222  111  234 1    
   223  112  113 2    
   224  112  114 am   BACKBONE|DICT|INTERRES
   225  114  115 1    
   226  114  235 1    
   227  115  116 1    
   228  115  117 1    
   229  115  236 1    
   230  116  237 1    
   231  116  238 1    
   232  116  239 1    
   233  117  118 2    
   234  117  119 am   BACKBONE|DICT|INTERRES
   235  119  120 1    
   236  119  240 1    
   237  120  121 1    
   238  120  124 1    
   239  120  241 1    
   240  121  122 am   BACKBONE|DICT|INTERRES
   241  121  123 2    
   242  122  242 1    
   243  122  243 1    
   244  124  125 1    
   245  124  244 1    
   246  124  245 1    
   247  125  126 1    
   248  126  246 1    
   249  126  247 1    
@<TRIPOS>SUBSTRUCTURE
     1 UNK         1 GROUP             0       ****    0 ROOT    
