@<TRIPOS>MOLECULE
3R540
247   249    1
SMALL
USER_CHARGES


@<TRIPOS>ATOM
      1 CA          1.7044  -17.7218  -48.8578 C.3       0 UNK        -0.1800 
      2 C           1.8972  -16.4689  -48.0184 C.2       0 UNK         0.5000 
      3 O           2.4538  -16.5447  -46.9231 O.2       0 UNK        -0.5000 
      4 N           1.4587  -15.3150  -48.5365 N.am      1 UNK        -0.5000 
      5 CA          1.5324  -13.9869  -47.9144 C.3       1 UNK         0.1400 
      6 C6          0.4618  -13.0199  -48.4910 C.3       23 UNK        -0.0398 
      7 S7          0.4344  -12.9032  -50.3197 S.3       23 UNK        -0.2404 
      8 C8         -1.2450  -13.4848  -50.7276 C.3       23 UNK        -0.0205 
      9 C9         -1.4089  -14.9763  -50.4784 C.ar      23 UNK        -0.0193 
     10 C10        -0.9410  -15.9027  -51.4145 C.ar      23 UNK        -0.1150 
     11 C11        -1.0624  -17.2755  -51.1778 C.ar      23 UNK        -0.0193 
     12 C12        -1.6551  -17.7205  -49.9931 C.ar      23 UNK        -0.1150 
     13 C13        -2.1267  -16.8012  -49.0513 C.ar      23 UNK        -0.0193 
     14 C14        -2.0165  -15.4324  -49.3062 C.ar      23 UNK        -0.1150 
     15 C15        -2.7038  -17.2791  -47.7319 C.3       23 UNK        -0.0205 
     16 S16        -1.4288  -17.1711  -46.4417 S.3       23 UNK        -0.2404 
     17 C17        -1.7356  -18.6659  -45.4584 C.3       23 UNK        -0.0398 
     18 CA         -1.0026  -19.9027  -46.0428 C.3       11 UNK         0.1400 
     19 N          -0.2636  -20.6503  -45.0252 N.am      11 UNK        -0.5000 
     20 C           0.6548  -21.5902  -45.2965 C.2       10 UNK         0.5000 
     21 O           0.9985  -21.9002  -46.4368 O.2       10 UNK        -0.5000 
     22 CA          1.2543  -22.3491  -44.0966 C.3       10 UNK         0.1400 
     23 CB          2.4950  -21.6172  -43.5640 C.3       10 UNK        -0.1800 
     24 N           0.2992  -22.5326  -43.0036 N.am      10 UNK        -0.5000 
     25 C          -0.8640  -23.1917  -43.1016 C.2       9 UNK         0.5000 
     26 O          -1.2162  -23.8047  -44.1091 O.2       9 UNK        -0.5000 
     27 CA         -1.8194  -23.1038  -41.8964 C.3       9 UNK         0.1400 
     28 CB         -1.7066  -24.3673  -41.0308 C.3       9 UNK        -0.1800 
     29 N          -1.6109  -21.9211  -41.0519 N.am      9 UNK        -0.5000 
     30 C          -1.7551  -20.6469  -41.4444 C.2       8 UNK         0.5000 
     31 O          -2.0629  -20.3226  -42.5945 O.2       8 UNK        -0.5000 
     32 CA         -1.5032  -19.5849  -40.3550 C.3       8 UNK         0.1400 
     33 CB         -0.0390  -19.6068  -39.8648 C.3       8 UNK        -0.1800 
     34 N          -1.9210  -18.2309  -40.7411 N.am      8 UNK        -0.5000 
     35 C          -1.3479  -17.3933  -41.6179 C.2       7 UNK         0.5000 
     36 O          -0.3092  -17.6264  -42.2405 O.2       7 UNK        -0.5000 
     37 CA         -2.0594  -16.0426  -41.7901 C.3       7 UNK         0.1400 
     38 CB         -1.8140  -15.1313  -40.5724 C.3       7 UNK        -0.1800 
     39 N          -1.5938  -15.3643  -42.9956 N.am      7 UNK        -0.5000 
     40 C          -2.3014  -14.4762  -43.7013 C.2       6 UNK         0.5000 
     41 O          -3.4652  -14.1717  -43.4317 O.2       6 UNK        -0.5000 
     42 CA         -1.5681  -13.7715  -44.8633 C.3       6 UNK         0.1400 
     43 CB         -2.5086  -12.9013  -45.7175 C.3       6 UNK        -0.1800 
     44 N          -0.4780  -12.9338  -44.3624 N.am      6 UNK        -0.5000 
     45 C           0.7277  -13.3859  -43.9979 C.2       5 UNK         0.5000 
     46 O           1.0608  -14.5683  -44.1058 O.2       5 UNK        -0.5000 
     47 CA          1.7228  -12.3338  -43.4670 C.3       5 UNK         0.1400 
     48 CB          1.1108  -11.4242  -42.3789 C.3       5 UNK        -0.1800 
     49 N           2.9812  -12.9390  -43.0210 N.am      5 UNK        -0.5000 
     50 C           3.1959  -13.7206  -41.9498 C.2       4 UNK         0.5000 
     51 O           2.3522  -13.9435  -41.0802 O.2       4 UNK        -0.5000 
     52 CA          4.5850  -14.3874  -41.8239 C.3       4 UNK         0.1400 
     53 CB          4.4613  -15.9133  -41.9708 C.3       4 UNK        -0.1800 
     54 N           5.5601  -13.9086  -42.8065 N.am      4 UNK        -0.5000 
     55 C           6.1891  -12.7262  -42.7650 C.2       3 UNK         0.5000 
     56 O           6.0924  -11.9354  -41.8262 O.2       3 UNK        -0.5000 
     57 CA          7.0454  -12.3481  -43.9936 C.3       3 UNK         0.1400 
     58 CB          8.5339  -12.5991  -43.7071 C.3       3 UNK        -0.1800 
     59 N           6.6767  -13.0453  -45.2340 N.am      3 UNK        -0.5000 
     60 C           5.4871  -12.9701  -45.8489 C.2       2 UNK         0.5000 
     61 O           4.5502  -12.3017  -45.4065 O.2       2 UNK        -0.5000 
     62 CA          5.3135  -13.7906  -47.1476 C.3       2 UNK         0.1400 
     63 CB          6.1573  -15.0806  -47.1631 C.3       2 UNK        -0.1800 
     64 N           3.9148  -14.1600  -47.3552 N.am      2 UNK        -0.5000 
     65 C           2.9670  -13.3991  -47.9137 C.2       1 UNK         0.5000 
     66 O           3.1945  -12.2938  -48.4094 O.2       1 UNK        -0.5000 
     67 C          -1.9800  -20.8206  -46.7964 C.2       11 UNK         0.5000 
     68 O          -2.0213  -20.7906  -48.0256 O.2       11 UNK        -0.5000 
     69 N          -2.7213  -21.6479  -46.0441 N.am      12 UNK        -0.5000 
     70 CA         -3.6486  -22.6405  -46.5858 C.3       12 UNK         0.1400 
     71 CB         -4.4630  -23.2780  -45.4512 C.3       12 UNK        -0.1800 
     72 C          -2.9284  -23.7123  -47.4195 C.2       12 UNK         0.5000 
     73 O          -3.4243  -24.0732  -48.4861 O.2       12 UNK        -0.5000 
     74 N          -1.7572  -24.1607  -46.9467 N.am      13 UNK        -0.5000 
     75 CA         -0.8683  -25.0824  -47.6527 C.3       13 UNK         0.1400 
     76 CB          0.2881  -25.4966  -46.7309 C.3       13 UNK        -0.1800 
     77 C          -0.3410  -24.4979  -48.9760 C.2       13 UNK         0.5000 
     78 O          -0.4261  -25.1696  -50.0044 O.2       13 UNK        -0.5000 
     79 N           0.1392  -23.2451  -48.9435 N.am      14 UNK        -0.5000 
     80 CA          0.6009  -22.4969  -50.1190 C.3       14 UNK         0.1400 
     81 CB          1.2155  -21.1644  -49.6679 C.3       14 UNK        -0.1800 
     82 C          -0.5123  -22.2505  -51.1554 C.2       14 UNK         0.5000 
     83 O          -0.2519  -22.2976  -52.3572 O.2       14 UNK        -0.5000 
     84 N          -1.7390  -22.0371  -50.6653 N.am      15 UNK        -0.5000 
     85 CA         -2.9632  -21.9047  -51.4522 C.3       15 UNK         0.1400 
     86 CB         -3.9976  -21.1468  -50.6054 C.3       15 UNK        -0.1800 
     87 C          -3.5347  -23.2457  -51.9642 C.2       15 UNK         0.5000 
     88 O          -4.5787  -23.2214  -52.6173 O.2       15 UNK        -0.5000 
     89 N          -2.8648  -24.3708  -51.6689 N.am      16 UNK        -0.5000 
     90 CA         -3.2078  -25.7500  -52.0316 C.3       16 UNK         0.1400 
     91 CB         -3.2288  -25.9420  -53.5605 C.3       16 UNK        -0.1800 
     92 C          -4.5037  -26.2212  -51.3479 C.2       16 UNK         0.5000 
     93 O          -5.4933  -26.5195  -52.0169 O.2       16 UNK        -0.5000 
     94 N          -4.4646  -26.2510  -50.0097 N.am      17 UNK        -0.5000 
     95 CA         -5.5618  -26.5770  -49.0923 C.3       17 UNK         0.1400 
     96 CB         -6.0559  -28.0261  -49.2879 C.3       17 UNK        -0.1800 
     97 C          -6.6869  -25.5255  -49.1537 C.2       17 UNK         0.5000 
     98 O          -7.8687  -25.8734  -49.1718 O.2       17 UNK        -0.5000 
     99 N          -6.2737  -24.2494  -49.1916 N.am      18 UNK        -0.5000 
    100 CA        -7.1089  -23.0443  -49.2523 C.3       18 UNK         0.1400 
    101 CB        -7.9375  -22.8870  -47.9604 C.3       18 UNK        -0.1800 
    102 C         -7.9635  -22.9313  -50.5356 C.2       18 UNK         0.5000 
    103 O         -8.9960  -22.2593  -50.5256 O.2       18 UNK        -0.5000 
    104 N         -7.5101  -23.5608  -51.6292 N.am      19 UNK        -0.5000 
    105 CA        -8.1413  -23.4962  -52.9507 C.3       19 UNK         0.1400 
    106 CB        -7.6548  -24.6874  -53.7902 C.3       19 UNK        -0.1800 
    107 C         -7.8592  -22.1734  -53.6918 C.2       19 UNK         0.5000 
    108 O         -8.5659  -21.8576  -54.6494 O.2       19 UNK        -0.5000 
    109 N         -6.8225  -21.4480  -53.2462 N.am      20 UNK        -0.5000 
    110 CA        -6.2481  -20.2333  -53.8342 C.3       20 UNK         0.1400 
    111 CB        -7.2747  -19.0833  -53.8920 C.3       20 UNK        -0.1800 
    112 C         -5.5610  -20.5134  -55.1854 C.2       20 UNK         0.5000 
    113 O         -5.5472  -19.6528  -56.0680 O.2       20 UNK        -0.5000 
    114 N         -4.9695  -21.7119  -55.3114 N.am      21 UNK        -0.5000 
    115 CA        -4.2807  -22.1942  -56.5136 C.3       21 UNK         0.1400 
    116 CB        -3.9121  -23.6697  -56.3160 C.3       21 UNK        -0.1800 
    117 C         -3.0278  -21.3775  -56.8876 C.2       21 UNK         0.5000 
    118 O         -2.6117  -21.3994  -58.0465 O.2       21 UNK        -0.5000 
    119 N         -2.4658  -20.6615  -55.9068 N.am      22 UNK        -0.5000 
    120 CA        -1.3889  -19.6798  -56.0804 C.3       22 UNK         0.1400 
    121 C         -1.8084  -18.3666  -56.8114 C.2       22 UNK         0.5000 
    122 N         -3.0919  -18.0953  -57.0268 N.am      22 UNK        -0.7600 
    123 O         -0.9471  -17.5845  -57.2045 O.2       22 UNK        -0.5000 
    124 C124       -0.6717  -19.3970  -54.7358 C.3       23 UNK        -0.0398 
    125 S125       -1.7566  -18.6797  -53.4509 S.3       23 UNK        -0.2404 
    126 C126       -0.5170  -18.2711  -52.1871 C.3       23 UNK        -0.0205 
    127 H127        0.8264  -18.2646  -48.5112 H         1 UNK         0.0600 
    128 H128        2.5706  -18.3776  -48.7699 H         1 UNK         0.0600 
    129 H129        1.5681  -17.4813  -49.9119 H         1 UNK         0.0600 
    130 H130        1.0163  -15.3236  -49.4453 H         1 UNK         0.3000 
    131 H131        1.2806  -14.1204  -46.8609 H         1 UNK         0.0600 
    132 H132       -0.5180  -13.3440  -48.1459 H         1 UNK         0.0800 
    133 H133        0.5827  -12.0163  -48.0798 H         1 UNK         0.0800 
    134 H134       -1.9794  -12.9135  -50.1575 H         1 UNK         0.0800 
    135 H135       -1.4451  -13.2707  -51.7785 H         1 UNK         0.0800 
    136 H136       -0.4714  -15.5543  -52.3239 H         1 UNK         0.1150 
    137 H137       -1.7270  -18.7807  -49.7945 H         1 UNK         0.1150 
    138 H138       -2.3769  -14.7249  -48.5731 H         1 UNK         0.1150 
    139 H139       -3.5605  -16.6663  -47.4482 H         1 UNK         0.0800 
    140 H140       -3.0737  -18.2993  -47.8332 H         1 UNK         0.0800 
    141 H141       -2.8095  -18.8167  -45.3299 H         1 UNK         0.0800 
    142 H142       -1.3609  -18.4446  -44.4608 H         1 UNK         0.0800 
    143 H143       -0.2597  -19.5674  -46.7697 H         1 UNK         0.0600 
    144 H144       -0.5356  -20.4857  -44.0630 H         1 UNK         0.3000 
    145 H145        1.5594  -23.3377  -44.4449 H         1 UNK         0.0600 
    146 H146        2.9739  -22.1821  -42.7641 H         1 UNK         0.0600 
    147 H147        3.2359  -21.4810  -44.3531 H         1 UNK         0.0600 
    148 H148        2.2440  -20.6293  -43.1752 H         1 UNK         0.0600 
    149 H149        0.5068  -22.0620  -42.1356 H         1 UNK         0.3000 
    150 H150       -2.8350  -23.0515  -42.2942 H         1 UNK         0.0600 
    151 H151       -1.8826  -25.2651  -41.6251 H         1 UNK         0.0600 
    152 H152       -2.4432  -24.3628  -40.2272 H         1 UNK         0.0600 
    153 H153       -0.7173  -24.4600  -40.5810 H         1 UNK         0.0600 
    154 H154       -1.3597  -22.1052  -40.0911 H         1 UNK         0.3000 
    155 H155       -2.1384  -19.8522  -39.5091 H         1 UNK         0.0600 
    156 H156        0.6695  -19.4788  -40.6838 H         1 UNK         0.0600 
    157 H157        0.1450  -18.8166  -39.1368 H         1 UNK         0.0600 
    158 H158        0.2006  -20.5521  -39.3774 H         1 UNK         0.0600 
    159 H159       -2.7821  -17.9265  -40.3091 H         1 UNK         0.3000 
    160 H160       -3.1288  -16.2446  -41.8823 H         1 UNK         0.0600 
    161 H161       -0.7548  -14.8943  -40.4601 H         1 UNK         0.0600 
    162 H162       -2.1455  -15.6043  -39.6474 H         1 UNK         0.0600 
    163 H163       -2.3576  -14.1909  -40.6649 H         1 UNK         0.0600 
    164 H164       -0.6410  -15.5803  -43.2760 H         1 UNK         0.3000 
    165 H165       -1.1484  -14.5369  -45.5154 H         1 UNK         0.0600 
    166 H166       -1.9739  -12.4200  -46.5354 H         1 UNK         0.0600 
    167 H167       -3.3016  -13.5059  -46.1595 H         1 UNK         0.0600 
    168 H168       -2.9824  -12.1167  -45.1263 H         1 UNK         0.0600 
    169 H169       -0.6956  -11.9575  -44.2257 H         1 UNK         0.3000 
    170 H170        1.9874  -11.7037  -44.3174 H         1 UNK         0.0600 
    171 H171        0.6595  -12.0008  -41.5708 H         1 UNK         0.0600 
    172 H172        1.8653  -10.7694  -41.9426 H         1 UNK         0.0600 
    173 H173        0.3327  -10.7820  -42.7920 H         1 UNK         0.0600 
    174 H174        3.7379  -12.8410  -43.6901 H         1 UNK         0.3000 
    175 H175        4.9628  -14.1688  -40.8230 H         1 UNK         0.0600 
    176 H176        5.4251  -16.4041  -41.8346 H         1 UNK         0.0600 
    177 H177        4.0758  -16.1912  -42.9529 H         1 UNK         0.0600 
    178 H178        3.7804  -16.3253  -41.2247 H         1 UNK         0.0600 
    179 H179        5.7061  -14.4937  -43.6155 H         1 UNK         0.3000 
    180 H180        6.9063  -11.2786  -44.1644 H         1 UNK         0.0600 
    181 H181        8.7410  -13.6594  -43.5565 H         1 UNK         0.0600 
    182 H182        8.8541  -12.0713  -42.8076 H         1 UNK         0.0600 
    183 H183        9.1595  -12.2467  -44.5275 H         1 UNK         0.0600 
    184 H184        7.3956  -13.6196  -45.6501 H         1 UNK         0.3000 
    185 H185        5.6416  -13.1596  -47.9759 H         1 UNK         0.0600 
    186 H186        5.9389  -15.7161  -46.3037 H         1 UNK         0.0600 
    187 H187        5.9605  -15.6644  -48.0627 H         1 UNK         0.0600 
    188 H188        7.2259  -14.8636  -47.1586 H         1 UNK         0.0600 
    189 H189        3.6175  -15.0566  -46.9784 H         1 UNK         0.3000 
    190 H190       -2.6035  -21.6304  -45.0412 H         1 UNK         0.3000 
    191 H191       -4.3446  -22.1195  -47.2461 H         1 UNK         0.0600 
    192 H192       -5.0232  -22.5249  -44.8969 H         1 UNK         0.0600 
    193 H193       -5.1852  -23.9935  -45.8468 H         1 UNK         0.0600 
    194 H194       -3.8280  -23.8120  -44.7442 H         1 UNK         0.0600 
    195 H195       -1.4581  -23.8540  -46.0252 H         1 UNK         0.3000 
    196 H196       -1.4456  -25.9780  -47.8916 H         1 UNK         0.0600 
    197 H197        0.9363  -26.2237  -47.2214 H         1 UNK         0.0600 
    198 H198       -0.0833  -25.9564  -45.8148 H         1 UNK         0.0600 
    199 H199        0.9060  -24.6443  -46.4494 H         1 UNK         0.0600 
    200 H200        0.2070  -22.7662  -48.0504 H         1 UNK         0.3000 
    201 H201        1.3807  -23.0870  -50.6044 H         1 UNK         0.0600 
    202 H202        2.0551  -21.3247  -48.9915 H         1 UNK         0.0600 
    203 H203        0.4831  -20.5448  -49.1504 H         1 UNK         0.0600 
    204 H204        1.5885  -20.5943  -50.5195 H         1 UNK         0.0600 
    205 H205       -1.8432  -21.9436  -49.6596 H         1 UNK         0.3000 
    206 H206       -2.7452  -21.3035  -52.3361 H         1 UNK         0.0600 
    207 H207       -3.6540  -20.1369  -50.3820 H         1 UNK         0.0600 
    208 H208       -4.9553  -21.0531  -51.1143 H         1 UNK         0.0600 
    209 H209       -4.1762  -21.6509  -49.6570 H         1 UNK         0.0600 
    210 H210       -2.0302  -24.2810  -51.1019 H         1 UNK         0.3000 
    211 H211       -2.4038  -26.3753  -51.6407 H         1 UNK         0.0600 
    212 H212       -4.0676  -25.4216  -54.0209 H         1 UNK         0.0600 
    213 H213       -3.3273  -26.9976  -53.8154 H         1 UNK         0.0600 
    214 H214       -2.3082  -25.5803  -54.0181 H         1 UNK         0.0600 
    215 H215       -3.6423  -25.8649  -49.5609 H         1 UNK         0.3000 
    216 H216       -5.1435  -26.5103  -48.0868 H         1 UNK         0.0600 
    217 H217       -6.7646  -28.3029  -48.5067 H         1 UNK         0.0600 
    218 H218       -5.2287  -28.7343  -49.2408 H         1 UNK         0.0600 
    219 H219       -6.5601  -28.1613  -50.2450 H         1 UNK         0.0600 
    220 H220       -5.2703  -24.0942  -49.1573 H         1 UNK         0.3000 
    221 H221       -6.4187  -22.2024  -49.2877 H         1 UNK         0.0600 
    222 H222       -8.7087  -23.6531  -47.8771 H         1 UNK         0.0600 
    223 H223       -7.3042  -22.9499  -47.0756 H         1 UNK         0.0600 
    224 H224       -8.4368  -21.9179  -47.9300 H         1 UNK         0.0600 
    225 H225       -6.6517  -24.0928  -51.5699 H         1 UNK         0.3000 
    226 H226       -9.2228  -23.5835  -52.8284 H         1 UNK         0.0600 
    227 H227       -7.8955  -25.6344  -53.3067 H         1 UNK         0.0600 
    228 H228       -8.1272  -24.6949  -54.7732 H         1 UNK         0.0600 
    229 H229       -6.5755  -24.6564  -53.9448 H         1 UNK         0.0600 
    230 H230       -6.2719  -21.8779  -52.5144 H         1 UNK         0.3000 
    231 H231       -5.4511  -19.9167  -53.1607 H         1 UNK         0.0600 
    232 H232       -8.0582  -19.2708  -54.6262 H         1 UNK         0.0600 
    233 H233       -6.7913  -18.1452  -54.1674 H         1 UNK         0.0600 
    234 H234       -7.7502  -18.9303  -52.9232 H         1 UNK         0.0600 
    235 H235       -5.0053  -22.3501  -54.5242 H         1 UNK         0.3000 
    236 H236       -4.9807  -22.1224  -57.3484 H         1 UNK         0.0600 
    237 H237       -4.7904  -24.2703  -56.0787 H         1 UNK         0.0600 
    238 H238       -3.4670  -24.0870  -57.2201 H         1 UNK         0.0600 
    239 H239       -3.1879  -23.7880  -55.5099 H         1 UNK         0.0600 
    240 H240       -2.8821  -20.6970  -54.9893 H         1 UNK         0.3000 
    241 H241       -0.6482  -20.1438  -56.7345 H         1 UNK         0.0600 
    242 H242       -3.3409  -17.2448  -57.5059 H         1 UNK         0.3800 
    243 H243       -3.8243  -18.7179  -56.7051 H         1 UNK         0.3800 
    244 H244       -0.2493  -20.3239  -54.3450 H         1 UNK         0.0800 
    245 H245        0.1773  -18.7309  -54.8989 H         1 UNK         0.0800 
    246 H246       -0.2006  -19.1864  -51.6857 H         1 UNK         0.0800 
    247 H247        0.3738  -17.8550  -52.6600 H         1 UNK         0.0800 
@<TRIPOS>BOND
     1    1    2 1    
     2    1  127 1    
     3    1  128 1    
     4    1  129 1    
     5    2    3 2    
     6    2    4 am   BACKBONE|DICT|INTERRES
     7    4    5 1    
     8    4  130 1    
     9    5    6 1    
    10    5   65 1    
    11    5  131 1    
    12    6    7 1    
    13    6  132 1    
    14    6  133 1    
    15    7    8 1    
    16    8    9 1    
    17    8  134 1    
    18    8  135 1    
    19    9   10 ar   
    20    9   14 ar   
    21   10   11 ar   
    22   10  136 1    
    23   11   12 ar   
    24   11  126 1    
    25   12   13 ar   
    26   12  137 1    
    27   13   14 ar   
    28   13   15 1    
    29   14  138 1    
    30   15   16 1    
    31   15  139 1    
    32   15  140 1    
    33   16   17 1    
    34   17   18 1    
    35   17  141 1    
    36   17  142 1    
    37   18   19 1    
    38   18   67 1    
    39   18  143 1    
    40   19   20 am   BACKBONE|DICT|INTERRES
    41   19  144 1    
    42   20   21 2    
    43   20   22 1    
    44   22   23 1    
    45   22   24 1    
    46   22  145 1    
    47   23  146 1    
    48   23  147 1    
    49   23  148 1    
    50   24   25 am   BACKBONE|DICT|INTERRES
    51   24  149 1    
    52   25   26 2    
    53   25   27 1    
    54   27   28 1    
    55   27   29 1    
    56   27  150 1    
    57   28  151 1    
    58   28  152 1    
    59   28  153 1    
    60   29   30 am   BACKBONE|DICT|INTERRES
    61   29  154 1    
    62   30   31 2    
    63   30   32 1    
    64   32   33 1    
    65   32   34 1    
    66   32  155 1    
    67   33  156 1    
    68   33  157 1    
    69   33  158 1    
    70   34   35 am   BACKBONE|DICT|INTERRES
    71   34  159 1    
    72   35   36 2    
    73   35   37 1    
    74   37   38 1    
    75   37   39 1    
    76   37  160 1    
    77   38  161 1    
    78   38  162 1    
    79   38  163 1    
    80   39   40 am   BACKBONE|DICT|INTERRES
    81   39  164 1    
    82   40   41 2    
    83   40   42 1    
    84   42   43 1    
    85   42   44 1    
    86   42  165 1    
    87   43  166 1    
    88   43  167 1    
    89   43  168 1    
    90   44   45 am   BACKBONE|DICT|INTERRES
    91   44  169 1    
    92   45   46 2    
    93   45   47 1    
    94   47   48 1    
    95   47   49 1    
    96   47  170 1    
    97   48  171 1    
    98   48  172 1    
    99   48  173 1    
   100   49   50 am   BACKBONE|DICT|INTERRES
   101   49  174 1    
   102   50   51 2    
   103   50   52 1    
   104   52   53 1    
   105   52   54 1    
   106   52  175 1    
   107   53  176 1    
   108   53  177 1    
   109   53  178 1    
   110   54   55 am   BACKBONE|DICT|INTERRES
   111   54  179 1    
   112   55   56 2    
   113   55   57 1    
   114   57   58 1    
   115   57   59 1    
   116   57  180 1    
   117   58  181 1    
   118   58  182 1    
   119   58  183 1    
   120   59   60 am   BACKBONE|DICT|INTERRES
   121   59  184 1    
   122   60   61 2    
   123   60   62 1    
   124   62   63 1    
   125   62   64 1    
   126   62  185 1    
   127   63  186 1    
   128   63  187 1    
   129   63  188 1    
   130   64   65 am   BACKBONE|DICT|INTERRES
   131   64  189 1    
   132   65   66 2    
   133   67   68 2    
   134   67   69 am   BACKBONE|DICT|INTERRES
   135   69   70 1    
   136   69  190 1    
   137   70   71 1    
   138   70   72 1    
   139   70  191 1    
   140   71  192 1    
   141   71  193 1    
   142   71  194 1    
   143   72   73 2    
   144   72   74 am   BACKBONE|DICT|INTERRES
   145   74   75 1    
   146   74  195 1    
   147   75   76 1    
   148   75   77 1    
   149   75  196 1    
   150   76  197 1    
   151   76  198 1    
   152   76  199 1    
   153   77   78 2    
   154   77   79 am   BACKBONE|DICT|INTERRES
   155   79   80 1    
   156   79  200 1    
   157   80   81 1    
   158   80   82 1    
   159   80  201 1    
   160   81  202 1    
   161   81  203 1    
   162   81  204 1    
   163   82   83 2    
   164   82   84 am   BACKBONE|DICT|INTERRES
   165   84   85 1    
   166   84  205 1    
   167   85   86 1    
   168   85   87 1    
   169   85  206 1    
   170   86  207 1    
   171   86  208 1    
   172   86  209 1    
   173   87   88 2    
   174   87   89 am   BACKBONE|DICT|INTERRES
   175   89   90 1    
   176   89  210 1    
   177   90   91 1    
   178   90   92 1    
   179   90  211 1    
   180   91  212 1    
   181   91  213 1    
   182   91  214 1    
   183   92   93 2    
   184   92   94 am   BACKBONE|DICT|INTERRES
   185   94   95 1    
   186   94  215 1    
   187   95   96 1    
   188   95   97 1    
   189   95  216 1    
   190   96  217 1    
   191   96  218 1    
   192   96  219 1    
   193   97   98 2    
   194   97   99 am   BACKBONE|DICT|INTERRES
   195   99  100 1    
   196   99  220 1    
   197  100  101 1    
   198  100  102 1    
   199  100  221 1    
   200  101  222 1    
   201  101  223 1    
   202  101  224 1    
   203  102  103 2    
   204  102  104 am   BACKBONE|DICT|INTERRES
   205  104  105 1    
   206  104  225 1    
   207  105  106 1    
   208  105  107 1    
   209  105  226 1    
   210  106  227 1    
   211  106  228 1    
   212  106  229 1    
   213  107  108 2    
   214  107  109 am   BACKBONE|DICT|INTERRES
   215  109  110 1    
   216  109  230 1    
   217  110  111 1    
   218  110  112 1    
   219  110  231 1    
   220  111  232 1    
   221  111  233 1    
   222  111  234 1    
   223  112  113 2    
   224  112  114 am   BACKBONE|DICT|INTERRES
   225  114  115 1    
   226  114  235 1    
   227  115  116 1    
   228  115  117 1    
   229  115  236 1    
   230  116  237 1    
   231  116  238 1    
   232  116  239 1    
   233  117  118 2    
   234  117  119 am   BACKBONE|DICT|INTERRES
   235  119  120 1    
   236  119  240 1    
   237  120  121 1    
   238  120  124 1    
   239  120  241 1    
   240  121  122 am   BACKBONE|DICT|INTERRES
   241  121  123 2    
   242  122  242 1    
   243  122  243 1    
   244  124  125 1    
   245  124  244 1    
   246  124  245 1    
   247  125  126 1    
   248  126  246 1    
   249  126  247 1    
@<TRIPOS>SUBSTRUCTURE
     1 UNK         1 GROUP             0       ****    0 ROOT    
