@<TRIPOS>MOLECULE
3R540
247   249    1
SMALL
USER_CHARGES


@<TRIPOS>ATOM
      1 CA          6.4327  -15.6197  -46.0969 C.3       0 UNK        -0.1800 
      2 C           5.1071  -14.9711  -45.7281 C.2       0 UNK         0.5000 
      3 O           4.6847  -15.0540  -44.5759 O.2       0 UNK        -0.5000 
      4 N           4.4454  -14.3299  -46.6990 N.am      1 UNK        -0.5000 
      5 CA          3.1425  -13.6706  -46.5551 C.3       1 UNK         0.1400 
      6 C6          2.4239  -13.4954  -47.9202 C.3       23 UNK        -0.0398 
      7 S7          2.2550  -15.0471  -48.8698 S.3       23 UNK        -0.2404 
      8 C8          0.6257  -15.6683  -48.3247 C.3       23 UNK        -0.0205 
      9 C9          0.1283  -16.8831  -49.1128 C.ar      23 UNK        -0.0193 
     10 C10        -1.2415  -17.0244  -49.3579 C.ar      23 UNK        -0.1150 
     11 C11        -1.7442  -18.1118  -50.0808 C.ar      23 UNK        -0.0193 
     12 C12        -0.8457  -19.0766  -50.5567 C.ar      23 UNK        -0.1150 
     13 C13         0.5281  -18.9467  -50.3396 C.ar      23 UNK        -0.0193 
     14 C14         1.0047  -17.8613  -49.5990 C.ar      23 UNK        -0.1150 
     15 C15         1.5068  -19.9395  -50.9598 C.3       23 UNK        -0.0205 
     16 S16         1.2892  -21.6524  -50.3788 S.3       23 UNK        -0.2404 
     17 C17         1.6676  -21.4902  -48.6019 C.3       23 UNK        -0.0398 
     18 CA          0.7133  -22.2248  -47.6233 C.3       11 UNK         0.1400 
     19 N           1.1016  -21.8737  -46.2542 N.am      11 UNK        -0.5000 
     20 C           0.5364  -22.2011  -45.0873 C.2       10 UNK         0.5000 
     21 O          -0.4629  -22.9121  -44.9918 O.2       10 UNK        -0.5000 
     22 CA          1.1633  -21.5863  -43.8150 C.3       10 UNK         0.1400 
     23 CB          2.1280  -22.5765  -43.1379 C.3       10 UNK        -0.1800 
     24 N           1.7979  -20.2701  -44.0158 N.am      10 UNK        -0.5000 
     25 C           2.8843  -19.9527  -44.7398 C.2       9 UNK         0.5000 
     26 O           3.5633  -20.7762  -45.3528 O.2       9 UNK        -0.5000 
     27 CA          3.2264  -18.4613  -44.8761 C.3       9 UNK         0.1400 
     28 CB          2.5677  -17.8955  -46.1430 C.3       9 UNK        -0.1800 
     29 N           2.8074  -17.6796  -43.7146 N.am      9 UNK        -0.5000 
     30 C           3.5018  -17.6296  -42.5692 C.2       8 UNK         0.5000 
     31 O           4.5554  -18.2397  -42.3792 O.2       8 UNK        -0.5000 
     32 CA          2.9108  -16.7769  -41.4334 C.3       8 UNK         0.1400 
     33 CB          3.1526  -15.2799  -41.6777 C.3       8 UNK        -0.1800 
     34 N           1.4824  -17.0064  -41.2363 N.am      8 UNK        -0.5000 
     35 C           0.9349  -18.1497  -40.8033 C.2       7 UNK         0.5000 
     36 O           1.5772  -19.1638  -40.5307 O.2       7 UNK        -0.5000 
     37 CA         -0.5950  -18.1584  -40.6568 C.3       7 UNK         0.1400 
     38 CB         -1.0165  -17.5319  -39.3185 C.3       7 UNK        -0.1800 
     39 N          -1.2439  -17.4399  -41.7510 N.am      7 UNK        -0.5000 
     40 C          -1.4322  -17.9447  -42.9763 C.2       6 UNK         0.5000 
     41 O          -1.1023  -19.0828  -43.3106 O.2       6 UNK        -0.5000 
     42 CA         -2.0769  -17.0066  -44.0114 C.3       6 UNK         0.1400 
     43 CB         -3.6080  -17.0249  -43.8865 C.3       6 UNK        -0.1800 
     44 N          -1.6005  -15.6280  -43.9243 N.am      6 UNK        -0.5000 
     45 C          -0.3421  -15.2547  -44.1853 C.2       5 UNK         0.5000 
     46 O           0.5645  -16.0340  -44.4745 O.2       5 UNK        -0.5000 
     47 CA         -0.0400  -13.7528  -44.0963 C.3       5 UNK         0.1400 
     48 CB         -0.6097  -13.0371  -45.3323 C.3       5 UNK        -0.1800 
     49 N          -0.4967  -13.0693  -42.8816 N.am      5 UNK        -0.5000 
     50 C          -0.4110  -13.5017  -41.6145 C.2       4 UNK         0.5000 
     51 O          -0.0940  -14.6468  -41.2915 O.2       4 UNK        -0.5000 
     52 CA         -0.6551  -12.4367  -40.5326 C.3       4 UNK         0.1400 
     53 CB         -0.4976  -12.9919  -39.1049 C.3       4 UNK        -0.1800 
     54 N           0.3127  -11.3599  -40.7347 N.am      4 UNK        -0.5000 
     55 C           0.0266  -10.1178  -41.1422 C.2       3 UNK         0.5000 
     56 O          -1.1185   -9.6912  -41.2939 O.2       3 UNK        -0.5000 
     57 CA          1.2285   -9.2091  -41.4747 C.3       3 UNK         0.1400 
     58 CB          1.6608   -8.4144  -40.2330 C.3       3 UNK        -0.1800 
     59 N           2.3898   -9.9302  -42.0127 N.am      3 UNK        -0.5000 
     60 C           2.4048  -10.6151  -43.1663 C.2       2 UNK         0.5000 
     61 O           1.4170  -10.7081  -43.8952 O.2       2 UNK        -0.5000 
     62 CA          3.7373  -11.2981  -43.5592 C.3       2 UNK         0.1400 
     63 CB          4.5195  -11.8159  -42.3363 C.3       2 UNK        -0.1800 
     64 N           3.5554  -12.4152  -44.4894 N.am      2 UNK        -0.5000 
     65 C           3.2929  -12.3276  -45.7996 C.2       1 UNK         0.5000 
     66 O           3.2165  -11.2602  -46.4111 O.2       1 UNK        -0.5000 
     67 C          -0.7845  -21.9795  -47.9290 C.2       11 UNK         0.5000 
     68 O          -1.3842  -22.7433  -48.6889 O.2       11 UNK        -0.5000 
     69 N          -1.3757  -20.9580  -47.2951 N.am      12 UNK        -0.5000 
     70 CA         -2.7934  -20.6184  -47.3968 C.3       12 UNK         0.1400 
     71 CB         -3.0349  -19.2848  -46.6830 C.3       12 UNK        -0.1800 
     72 C          -3.7372  -21.6953  -46.8288 C.2       12 UNK         0.5000 
     73 O          -4.8618  -21.8121  -47.3135 O.2       12 UNK        -0.5000 
     74 N          -3.2738  -22.4822  -45.8446 N.am      13 UNK        -0.5000 
     75 CA         -4.0363  -23.5891  -45.2572 C.3       13 UNK         0.1400 
     76 CB         -3.4004  -24.0076  -43.9230 C.3       13 UNK        -0.1800 
     77 C          -4.1437  -24.7932  -46.2117 C.2       13 UNK         0.5000 
     78 O          -5.1538  -25.4968  -46.1947 O.2       13 UNK        -0.5000 
     79 N          -3.1165  -24.9814  -47.0511 N.am      14 UNK        -0.5000 
     80 CA         -3.1003  -25.9453  -48.1529 C.3       14 UNK         0.1400 
     81 CB         -1.6448  -26.3694  -48.4092 C.3       14 UNK        -0.1800 
     82 C          -3.7195  -25.3688  -49.4421 C.2       14 UNK         0.5000 
     83 O          -3.8889  -26.1092  -50.4112 O.2       14 UNK        -0.5000 
     84 N          -3.9938  -24.0558  -49.4494 N.am      15 UNK        -0.5000 
     85 CA         -4.4532  -23.2314  -50.5689 C.3       15 UNK         0.1400 
     86 CB         -5.9227  -23.5493  -50.9079 C.3       15 UNK        -0.1800 
     87 C          -3.5132  -23.3180  -51.7884 C.2       15 UNK         0.5000 
     88 O          -3.9837  -23.4472  -52.9174 O.2       15 UNK        -0.5000 
     89 N          -2.1959  -23.3060  -51.5279 N.am      16 UNK        -0.5000 
     90 CA         -1.1147  -23.5118  -52.5012 C.3       16 UNK         0.1400 
     91 CB         -0.9718  -22.2863  -53.4265 C.3       16 UNK        -0.1800 
     92 C          -1.2518  -24.8423  -53.2753 C.2       16 UNK         0.5000 
     93 O          -1.1069  -24.8693  -54.4984 O.2       16 UNK        -0.5000 
     94 N          -1.5491  -25.9150  -52.5264 N.am      17 UNK        -0.5000 
     95 CA         -1.8574  -27.2708  -52.9907 C.3       17 UNK         0.1400 
     96 CB         -0.6601  -27.9040  -53.7316 C.3       17 UNK        -0.1800 
     97 C          -3.1768  -27.3177  -53.7887 C.2       17 UNK         0.5000 
     98 O          -3.2089  -27.8144  -54.9164 O.2       17 UNK        -0.5000 
     99 N          -4.2431  -26.8034  -53.1589 N.am      18 UNK        -0.5000 
    100 CA        -5.6319  -26.7725  -53.6290 C.3       18 UNK         0.1400 
    101 CB        -6.2164  -28.2002  -53.6723 C.3       18 UNK        -0.1800 
    102 C         -5.8321  -25.9967  -54.9489 C.2       18 UNK         0.5000 
    103 O         -6.6102  -26.4242  -55.8050 O.2       18 UNK        -0.5000 
    104 N         -5.1398  -24.8610  -55.0890 N.am      19 UNK        -0.5000 
    105 CA        -5.3101  -23.9229  -56.1933 C.3       19 UNK         0.1400 
    106 CB        -3.9815  -23.1937  -56.4371 C.3       19 UNK        -0.1800 
    107 C         -6.4307  -22.9242  -55.8587 C.2       19 UNK         0.5000 
    108 O         -6.5716  -22.5208  -54.7005 O.2       19 UNK        -0.5000 
    109 N         -7.1999  -22.5269  -56.8809 N.am      20 UNK        -0.5000 
    110 CA        -8.3043  -21.5704  -56.7815 C.3       20 UNK         0.1400 
    111 CB        -9.0117  -21.4709  -58.1425 C.3       20 UNK        -0.1800 
    112 C         -7.8077  -20.1927  -56.3080 C.2       20 UNK         0.5000 
    113 O         -7.0636  -19.5337  -57.0376 O.2       20 UNK        -0.5000 
    114 N         -8.1710  -19.8250  -55.0704 N.am      21 UNK        -0.5000 
    115 CA        -7.7372  -18.6235  -54.3435 C.3       21 UNK         0.1400 
    116 CB        -8.3831  -17.3641  -54.9583 C.3       21 UNK        -0.1800 
    117 C         -6.1998  -18.5080  -54.2157 C.2       21 UNK         0.5000 
    118 O         -5.6620  -17.3999  -54.2488 O.2       21 UNK        -0.5000 
    119 N         -5.5264  -19.6624  -54.1055 N.am      22 UNK        -0.5000 
    120 CA        -4.0626  -19.8288  -54.1361 C.3       22 UNK         0.1400 
    121 C         -3.4116  -19.5768  -55.5326 C.2       22 UNK         0.5000 
    122 N         -4.1648  -19.4458  -56.6190 N.am      22 UNK        -0.7600 
    123 O         -2.1902  -19.5305  -55.6468 O.2       22 UNK        -0.5000 
    124 C124       -3.3131  -19.0779  -52.9976 C.3       23 UNK        -0.0398 
    125 S125       -3.8679  -19.5718  -51.3306 S.3       23 UNK        -0.2404 
    126 C126       -3.2571  -18.1776  -50.3193 C.3       23 UNK        -0.0205 
    127 H127        7.2402  -15.1805  -45.5114 H         1 UNK         0.0600 
    128 H128        6.6673  -15.4912  -47.1537 H         1 UNK         0.0600 
    129 H129        6.3968  -16.6880  -45.8834 H         1 UNK         0.0600 
    130 H130        4.8475  -14.2889  -47.6245 H         1 UNK         0.3000 
    131 H131        2.5079  -14.3155  -45.9436 H         1 UNK         0.0600 
    132 H132        1.4380  -13.0498  -47.7830 H         1 UNK         0.0800 
    133 H133        2.9786  -12.7981  -48.5506 H         1 UNK         0.0800 
    134 H134        0.6721  -15.9272  -47.2670 H         1 UNK         0.0800 
    135 H135       -0.0964  -14.8558  -48.4162 H         1 UNK         0.0800 
    136 H136       -1.9272  -16.2757  -48.9860 H         1 UNK         0.1150 
    137 H137       -1.1974  -19.9332  -51.1090 H         1 UNK         0.1150 
    138 H138        2.0667  -17.7665  -49.4247 H         1 UNK         0.1150 
    139 H139        1.3769  -19.9231  -52.0427 H         1 UNK         0.0800 
    140 H140        2.5381  -19.6351  -50.7746 H         1 UNK         0.0800 
    141 H141        1.6981  -20.4302  -48.3468 H         1 UNK         0.0800 
    142 H142        2.6861  -21.8518  -48.4529 H         1 UNK         0.0800 
    143 H143        0.8780  -23.2982  -47.7326 H         1 UNK         0.0600 
    144 H144        1.9681  -21.3511  -46.1727 H         1 UNK         0.3000 
    145 H145        0.3388  -21.4111  -43.1224 H         1 UNK         0.0600 
    146 H146        2.5288  -22.1629  -42.2122 H         1 UNK         0.0600 
    147 H147        1.6149  -23.5049  -42.8842 H         1 UNK         0.0600 
    148 H148        2.9682  -22.8363  -43.7822 H         1 UNK         0.0600 
    149 H149        1.2914  -19.5014  -43.5967 H         1 UNK         0.3000 
    150 H150        4.3088  -18.3703  -44.9910 H         1 UNK         0.0600 
    151 H151        2.9352  -18.4028  -47.0357 H         1 UNK         0.0600 
    152 H152        2.7866  -16.8353  -46.2607 H         1 UNK         0.0600 
    153 H153        1.4835  -18.0131  -46.1221 H         1 UNK         0.0600 
    154 H154        1.9666  -17.1170  -43.8206 H         1 UNK         0.3000 
    155 H155        3.4226  -17.0540  -40.5095 H         1 UNK         0.0600 
    156 H156        4.2155  -15.0734  -41.8081 H         1 UNK         0.0600 
    157 H157        2.8040  -14.6818  -40.8357 H         1 UNK         0.0600 
    158 H158        2.6368  -14.9308  -42.5726 H         1 UNK         0.0600 
    159 H159        0.8714  -16.2081  -41.3937 H         1 UNK         0.3000 
    160 H160       -0.9303  -19.1979  -40.6665 H         1 UNK         0.0600 
    161 H161       -0.7166  -16.4854  -39.2491 H         1 UNK         0.0600 
    162 H162       -0.5606  -18.0602  -38.4802 H         1 UNK         0.0600 
    163 H163       -2.0972  -17.5802  -39.1842 H         1 UNK         0.0600 
    164 H164       -1.4599  -16.4654  -41.5886 H         1 UNK         0.3000 
    165 H165       -1.8039  -17.3768  -45.0001 H         1 UNK         0.0600 
    166 H166       -4.0755  -16.4679  -44.6986 H         1 UNK         0.0600 
    167 H167       -3.9954  -18.0436  -43.9275 H         1 UNK         0.0600 
    168 H168       -3.9401  -16.5881  -42.9439 H         1 UNK         0.0600 
    169 H169       -2.2755  -14.9205  -43.6736 H         1 UNK         0.3000 
    170 H170        1.0446  -13.6495  -44.1134 H         1 UNK         0.0600 
    171 H171       -0.3304  -13.5534  -46.2505 H         1 UNK         0.0600 
    172 H172       -1.6989  -12.9923  -45.3038 H         1 UNK         0.0600 
    173 H173       -0.2379  -12.0166  -45.4129 H         1 UNK         0.0600 
    174 H174       -0.7370  -12.0966  -43.0124 H         1 UNK         0.3000 
    175 H175       -1.6792  -12.0771  -40.6497 H         1 UNK         0.0600 
    176 H176        0.5035  -13.3898  -38.9333 H         1 UNK         0.0600 
    177 H177       -0.6813  -12.2170  -38.3606 H         1 UNK         0.0600 
    178 H178       -1.2089  -13.7973  -38.9181 H         1 UNK         0.0600 
    179 H179        1.2856  -11.6225  -40.6712 H         1 UNK         0.3000 
    180 H180        0.8987   -8.4985  -42.2355 H         1 UNK         0.0600 
    181 H181        2.0316   -9.0699  -39.4440 H         1 UNK         0.0600 
    182 H182        0.8250   -7.8465  -39.8220 H         1 UNK         0.0600 
    183 H183        2.4482   -7.7004  -40.4753 H         1 UNK         0.0600 
    184 H184        3.2363   -9.8880  -41.4639 H         1 UNK         0.3000 
    185 H185        4.3488  -10.5422  -44.0558 H         1 UNK         0.0600 
    186 H186        4.8679  -10.9967  -41.7066 H         1 UNK         0.0600 
    187 H187        3.9095  -12.4747  -41.7180 H         1 UNK         0.0600 
    188 H188        5.4049  -12.3742  -42.6422 H         1 UNK         0.0600 
    189 H189        3.7046  -13.3454  -44.1131 H         1 UNK         0.3000 
    190 H190       -0.8174  -20.3916  -46.6745 H         1 UNK         0.3000 
    191 H191       -3.0296  -20.4965  -48.4553 H         1 UNK         0.0600 
    192 H192       -2.3948  -18.4981  -47.0813 H         1 UNK         0.0600 
    193 H193       -4.0685  -18.9569  -46.8005 H         1 UNK         0.0600 
    194 H194       -2.8385  -19.3794  -45.6155 H         1 UNK         0.0600 
    195 H195       -2.3183  -22.3697  -45.5196 H         1 UNK         0.3000 
    196 H196       -5.0487  -23.2353  -45.0506 H         1 UNK         0.0600 
    197 H197       -4.0128  -24.7572  -43.4205 H         1 UNK         0.0600 
    198 H198       -3.3039  -23.1585  -43.2462 H         1 UNK         0.0600 
    199 H199       -2.4095  -24.4397  -44.0643 H         1 UNK         0.0600 
    200 H200       -2.3297  -24.3492  -46.9963 H         1 UNK         0.3000 
    201 H201       -3.6743  -26.8319  -47.8759 H         1 UNK         0.0600 
    202 H202       -1.1984  -26.8037  -47.5145 H         1 UNK         0.0600 
    203 H203       -1.0260  -25.5252  -48.7162 H         1 UNK         0.0600 
    204 H204       -1.5879  -27.1224  -49.1963 H         1 UNK         0.0600 
    205 H205       -3.7915  -23.5449  -48.6024 H         1 UNK         0.3000 
    206 H206       -4.4117  -22.1998  -50.2210 H         1 UNK         0.0600 
    207 H207       -6.5648  -23.3993  -50.0401 H         1 UNK         0.0600 
    208 H208       -6.2927  -22.8987  -51.7017 H         1 UNK         0.0600 
    209 H209       -6.0467  -24.5785  -51.2409 H         1 UNK         0.0600 
    210 H210       -1.9045  -23.1864  -50.5610 H         1 UNK         0.3000 
    211 H211       -0.1946  -23.6008  -51.9245 H         1 UNK         0.0600 
    212 H212       -1.8427  -22.1586  -54.0678 H         1 UNK         0.0600 
    213 H213       -0.1013  -22.3862  -54.0754 H         1 UNK         0.0600 
    214 H214       -0.8398  -21.3710  -52.8529 H         1 UNK         0.0600 
    215 H215       -1.6996  -25.7595  -51.5399 H         1 UNK         0.3000 
    216 H216       -2.0276  -27.8649  -52.0914 H         1 UNK         0.0600 
    217 H217       -0.8537  -28.9544  -53.9515 H         1 UNK         0.0600 
    218 H218        0.2454  -27.8608  -53.1266 H         1 UNK         0.0600 
    219 H219       -0.4542  -27.4081  -54.6804 H         1 UNK         0.0600 
    220 H220       -4.0985  -26.4304  -52.2225 H         1 UNK         0.3000 
    221 H221       -6.1921  -26.2201  -52.8750 H         1 UNK         0.0600 
    222 H222       -5.7396  -28.8099  -54.4403 H         1 UNK         0.0600 
    223 H223       -6.0900  -28.7065  -52.7152 H         1 UNK         0.0600 
    224 H224       -7.2854  -28.1799  -53.8873 H         1 UNK         0.0600 
    225 H225       -4.6010  -24.5113  -54.2984 H         1 UNK         0.3000 
    226 H226       -5.5731  -24.4666  -57.1031 H         1 UNK         0.0600 
    227 H227       -3.1902  -23.8956  -56.7013 H         1 UNK         0.0600 
    228 H228       -4.0696  -22.4753  -57.2529 H         1 UNK         0.0600 
    229 H229       -3.6565  -22.6495  -55.5518 H         1 UNK         0.0600 
    230 H230       -7.0004  -22.8783  -57.8061 H         1 UNK         0.3000 
    231 H231       -9.0220  -21.9588  -56.0558 H         1 UNK         0.0600 
    232 H232       -8.3339  -21.1317  -58.9269 H         1 UNK         0.0600 
    233 H233       -9.8422  -20.7650  -58.0988 H         1 UNK         0.0600 
    234 H234       -9.4209  -22.4346  -58.4462 H         1 UNK         0.0600 
    235 H235       -8.7418  -20.4661  -54.5365 H         1 UNK         0.3000 
    236 H236       -8.1162  -18.7257  -53.3257 H         1 UNK         0.0600 
    237 H237       -9.4663  -17.4672  -55.0210 H         1 UNK         0.0600 
    238 H238       -8.1778  -16.4815  -54.3514 H         1 UNK         0.0600 
    239 H239       -8.0063  -17.1660  -55.9623 H         1 UNK         0.0600 
    240 H240       -6.0528  -20.5293  -54.1189 H         1 UNK         0.3000 
    241 H241       -3.9095  -20.8927  -53.9594 H         1 UNK         0.0600 
    242 H242       -3.7141  -19.2915  -57.5064 H         1 UNK         0.3800 
    243 H243       -5.1789  -19.4669  -56.5770 H         1 UNK         0.3800 
    244 H244       -2.2430  -19.2761  -53.0584 H         1 UNK         0.0800 
    245 H245       -3.4202  -17.9990  -53.1109 H         1 UNK         0.0800 
    246 H246       -3.5860  -17.2447  -50.7796 H         1 UNK         0.0800 
    247 H247       -3.7554  -18.2268  -49.3511 H         1 UNK         0.0800 
@<TRIPOS>BOND
     1    1    2 1    
     2    1  127 1    
     3    1  128 1    
     4    1  129 1    
     5    2    3 2    
     6    2    4 am   BACKBONE|DICT|INTERRES
     7    4    5 1    
     8    4  130 1    
     9    5    6 1    
    10    5   65 1    
    11    5  131 1    
    12    6    7 1    
    13    6  132 1    
    14    6  133 1    
    15    7    8 1    
    16    8    9 1    
    17    8  134 1    
    18    8  135 1    
    19    9   10 ar   
    20    9   14 ar   
    21   10   11 ar   
    22   10  136 1    
    23   11   12 ar   
    24   11  126 1    
    25   12   13 ar   
    26   12  137 1    
    27   13   14 ar   
    28   13   15 1    
    29   14  138 1    
    30   15   16 1    
    31   15  139 1    
    32   15  140 1    
    33   16   17 1    
    34   17   18 1    
    35   17  141 1    
    36   17  142 1    
    37   18   19 1    
    38   18   67 1    
    39   18  143 1    
    40   19   20 am   BACKBONE|DICT|INTERRES
    41   19  144 1    
    42   20   21 2    
    43   20   22 1    
    44   22   23 1    
    45   22   24 1    
    46   22  145 1    
    47   23  146 1    
    48   23  147 1    
    49   23  148 1    
    50   24   25 am   BACKBONE|DICT|INTERRES
    51   24  149 1    
    52   25   26 2    
    53   25   27 1    
    54   27   28 1    
    55   27   29 1    
    56   27  150 1    
    57   28  151 1    
    58   28  152 1    
    59   28  153 1    
    60   29   30 am   BACKBONE|DICT|INTERRES
    61   29  154 1    
    62   30   31 2    
    63   30   32 1    
    64   32   33 1    
    65   32   34 1    
    66   32  155 1    
    67   33  156 1    
    68   33  157 1    
    69   33  158 1    
    70   34   35 am   BACKBONE|DICT|INTERRES
    71   34  159 1    
    72   35   36 2    
    73   35   37 1    
    74   37   38 1    
    75   37   39 1    
    76   37  160 1    
    77   38  161 1    
    78   38  162 1    
    79   38  163 1    
    80   39   40 am   BACKBONE|DICT|INTERRES
    81   39  164 1    
    82   40   41 2    
    83   40   42 1    
    84   42   43 1    
    85   42   44 1    
    86   42  165 1    
    87   43  166 1    
    88   43  167 1    
    89   43  168 1    
    90   44   45 am   BACKBONE|DICT|INTERRES
    91   44  169 1    
    92   45   46 2    
    93   45   47 1    
    94   47   48 1    
    95   47   49 1    
    96   47  170 1    
    97   48  171 1    
    98   48  172 1    
    99   48  173 1    
   100   49   50 am   BACKBONE|DICT|INTERRES
   101   49  174 1    
   102   50   51 2    
   103   50   52 1    
   104   52   53 1    
   105   52   54 1    
   106   52  175 1    
   107   53  176 1    
   108   53  177 1    
   109   53  178 1    
   110   54   55 am   BACKBONE|DICT|INTERRES
   111   54  179 1    
   112   55   56 2    
   113   55   57 1    
   114   57   58 1    
   115   57   59 1    
   116   57  180 1    
   117   58  181 1    
   118   58  182 1    
   119   58  183 1    
   120   59   60 am   BACKBONE|DICT|INTERRES
   121   59  184 1    
   122   60   61 2    
   123   60   62 1    
   124   62   63 1    
   125   62   64 1    
   126   62  185 1    
   127   63  186 1    
   128   63  187 1    
   129   63  188 1    
   130   64   65 am   BACKBONE|DICT|INTERRES
   131   64  189 1    
   132   65   66 2    
   133   67   68 2    
   134   67   69 am   BACKBONE|DICT|INTERRES
   135   69   70 1    
   136   69  190 1    
   137   70   71 1    
   138   70   72 1    
   139   70  191 1    
   140   71  192 1    
   141   71  193 1    
   142   71  194 1    
   143   72   73 2    
   144   72   74 am   BACKBONE|DICT|INTERRES
   145   74   75 1    
   146   74  195 1    
   147   75   76 1    
   148   75   77 1    
   149   75  196 1    
   150   76  197 1    
   151   76  198 1    
   152   76  199 1    
   153   77   78 2    
   154   77   79 am   BACKBONE|DICT|INTERRES
   155   79   80 1    
   156   79  200 1    
   157   80   81 1    
   158   80   82 1    
   159   80  201 1    
   160   81  202 1    
   161   81  203 1    
   162   81  204 1    
   163   82   83 2    
   164   82   84 am   BACKBONE|DICT|INTERRES
   165   84   85 1    
   166   84  205 1    
   167   85   86 1    
   168   85   87 1    
   169   85  206 1    
   170   86  207 1    
   171   86  208 1    
   172   86  209 1    
   173   87   88 2    
   174   87   89 am   BACKBONE|DICT|INTERRES
   175   89   90 1    
   176   89  210 1    
   177   90   91 1    
   178   90   92 1    
   179   90  211 1    
   180   91  212 1    
   181   91  213 1    
   182   91  214 1    
   183   92   93 2    
   184   92   94 am   BACKBONE|DICT|INTERRES
   185   94   95 1    
   186   94  215 1    
   187   95   96 1    
   188   95   97 1    
   189   95  216 1    
   190   96  217 1    
   191   96  218 1    
   192   96  219 1    
   193   97   98 2    
   194   97   99 am   BACKBONE|DICT|INTERRES
   195   99  100 1    
   196   99  220 1    
   197  100  101 1    
   198  100  102 1    
   199  100  221 1    
   200  101  222 1    
   201  101  223 1    
   202  101  224 1    
   203  102  103 2    
   204  102  104 am   BACKBONE|DICT|INTERRES
   205  104  105 1    
   206  104  225 1    
   207  105  106 1    
   208  105  107 1    
   209  105  226 1    
   210  106  227 1    
   211  106  228 1    
   212  106  229 1    
   213  107  108 2    
   214  107  109 am   BACKBONE|DICT|INTERRES
   215  109  110 1    
   216  109  230 1    
   217  110  111 1    
   218  110  112 1    
   219  110  231 1    
   220  111  232 1    
   221  111  233 1    
   222  111  234 1    
   223  112  113 2    
   224  112  114 am   BACKBONE|DICT|INTERRES
   225  114  115 1    
   226  114  235 1    
   227  115  116 1    
   228  115  117 1    
   229  115  236 1    
   230  116  237 1    
   231  116  238 1    
   232  116  239 1    
   233  117  118 2    
   234  117  119 am   BACKBONE|DICT|INTERRES
   235  119  120 1    
   236  119  240 1    
   237  120  121 1    
   238  120  124 1    
   239  120  241 1    
   240  121  122 am   BACKBONE|DICT|INTERRES
   241  121  123 2    
   242  122  242 1    
   243  122  243 1    
   244  124  125 1    
   245  124  244 1    
   246  124  245 1    
   247  125  126 1    
   248  126  246 1    
   249  126  247 1    
@<TRIPOS>SUBSTRUCTURE
     1 UNK         1 GROUP             0       ****    0 ROOT    
