@<TRIPOS>MOLECULE
3R540
247   249    1
SMALL
USER_CHARGES


@<TRIPOS>ATOM
      1 CA          3.3465  -11.1519  -47.8207 C.3       0 UNK        -0.1800 
      2 C           2.2136  -11.7488  -46.9994 C.2       0 UNK         0.5000 
      3 O           2.2529  -11.6831  -45.7717 O.2       0 UNK        -0.5000 
      4 N           1.2109  -12.3302  -47.6712 N.am      1 UNK        -0.5000 
      5 CA          0.0222  -12.9590  -47.0813 C.3       1 UNK         0.1400 
      6 C6         -0.9467  -13.4913  -48.1637 C.3       23 UNK        -0.0398 
      7 S7         -0.1815  -14.7120  -49.2827 S.3       23 UNK        -0.2404 
      8 C8         -1.0486  -16.2332  -48.7939 C.3       23 UNK        -0.0205 
      9 C9         -0.8951  -17.3098  -49.8542 C.ar      23 UNK        -0.0193 
     10 C10        -1.8231  -17.4044  -50.8966 C.ar      23 UNK        -0.1150 
     11 C11        -1.6951  -18.3968  -51.8721 C.ar      23 UNK        -0.0193 
     12 C12        -0.6286  -19.2954  -51.7990 C.ar      23 UNK        -0.1150 
     13 C13         0.2908  -19.2252  -50.7514 C.ar      23 UNK        -0.0193 
     14 C14         0.1616  -18.2218  -49.7868 C.ar      23 UNK        -0.1150 
     15 C15         1.3976  -20.2610  -50.6505 C.3       23 UNK        -0.0205 
     16 S16         0.7987  -21.7753  -49.8357 S.3       23 UNK        -0.2404 
     17 C17         0.5758  -21.1730  -48.1280 C.3       23 UNK        -0.0398 
     18 CA          0.5405  -22.3265  -47.0890 C.3       11 UNK         0.1400 
     19 N           1.3324  -21.9897  -45.9064 N.am      11 UNK        -0.5000 
     20 C           2.4617  -22.5972  -45.5226 C.2       10 UNK         0.5000 
     21 O           2.9558  -23.5576  -46.1141 O.2       10 UNK        -0.5000 
     22 CA          3.1709  -22.0454  -44.2689 C.3       10 UNK         0.1400 
     23 CB          4.4692  -21.3266  -44.6674 C.3       10 UNK        -0.1800 
     24 N           2.3438  -21.1357  -43.4703 N.am      10 UNK        -0.5000 
     25 C           1.2761  -21.5137  -42.7540 C.2       9 UNK         0.5000 
     26 O           0.8874  -22.6796  -42.6807 O.2       9 UNK        -0.5000 
     27 CA          0.4803  -20.4051  -42.0417 C.3       9 UNK         0.1400 
     28 CB          1.1086  -20.0835  -40.6783 C.3       9 UNK        -0.1800 
     29 N           0.3429  -19.1713  -42.8214 N.am      9 UNK        -0.5000 
     30 C          -0.2712  -19.0741  -44.0104 C.2       8 UNK         0.5000 
     31 O          -0.7180  -20.0380  -44.6301 O.2       8 UNK        -0.5000 
     32 CA         -0.3817  -17.6679  -44.6234 C.3       8 UNK         0.1400 
     33 CB         -1.4365  -16.8185  -43.8976 C.3       8 UNK        -0.1800 
     34 N           0.9039  -16.9788  -44.5965 N.am      8 UNK        -0.5000 
     35 C           1.8988  -17.2180  -45.4610 C.2       7 UNK         0.5000 
     36 O           1.8019  -17.9723  -46.4290 O.2       7 UNK        -0.5000 
     37 CA          3.2377  -16.5144  -45.1759 C.3       7 UNK         0.1400 
     38 CB          3.2669  -15.1251  -45.8300 C.3       7 UNK        -0.1800 
     39 N           3.5184  -16.3814  -43.7442 N.am      7 UNK        -0.5000 
     40 C           3.7339  -17.4121  -42.9132 C.2       6 UNK         0.5000 
     41 O           3.7147  -18.5901  -43.2643 O.2       6 UNK        -0.5000 
     42 CA          3.9679  -17.0754  -41.4302 C.3       6 UNK         0.1400 
     43 CB          5.4521  -16.7734  -41.1761 C.3       6 UNK        -0.1800 
     44 N           3.1598  -15.9526  -40.9551 N.am      6 UNK        -0.5000 
     45 C           1.8193  -15.9080  -40.9418 C.2       5 UNK         0.5000 
     46 O           1.0969  -16.8199  -41.3438 O.2       5 UNK        -0.5000 
     47 CA          1.1865  -14.5981  -40.4387 C.3       5 UNK         0.1400 
     48 CB          0.9725  -14.6497  -38.9190 C.3       5 UNK        -0.1800 
     49 N           1.9980  -13.4259  -40.7796 N.am      5 UNK        -0.5000 
     50 C           2.1652  -12.9793  -42.0301 C.2       4 UNK         0.5000 
     51 O           1.6085  -13.4795  -43.0117 O.2       4 UNK        -0.5000 
     52 CA          3.1307  -11.8020  -42.2201 C.3       4 UNK         0.1400 
     53 CB          4.4079  -12.2640  -42.9394 C.3       4 UNK        -0.1800 
     54 N           2.4466  -10.8158  -43.0398 N.am      4 UNK        -0.5000 
     55 C           2.0138   -9.6223  -42.6190 C.2       3 UNK         0.5000 
     56 O           2.3499   -9.0981  -41.5562 O.2       3 UNK        -0.5000 
     57 CA          0.9617   -8.9379  -43.5112 C.3       3 UNK         0.1400 
     58 CB          1.6189   -8.2410  -44.7124 C.3       3 UNK        -0.1800 
     59 N          -0.0340   -9.9014  -43.9856 N.am      3 UNK        -0.5000 
     60 C          -0.9047  -10.5574  -43.2057 C.2       2 UNK         0.5000 
     61 O          -1.0683  -10.3005  -42.0123 O.2       2 UNK        -0.5000 
     62 CA         -1.7008  -11.7235  -43.8285 C.3       2 UNK         0.1400 
     63 CB         -3.1191  -11.2808  -44.2375 C.3       2 UNK        -0.1800 
     64 N          -1.0137  -12.4280  -44.9215 N.am      2 UNK        -0.5000 
     65 C          -0.7347  -11.9857  -46.1548 C.2       1 UNK         0.5000 
     66 O          -1.0283  -10.8622  -46.5691 O.2       1 UNK        -0.5000 
     67 C          -0.8952  -22.7312  -46.6894 C.2       11 UNK         0.5000 
     68 O          -1.7939  -22.6975  -47.5271 O.2       11 UNK        -0.5000 
     69 N          -1.1054  -23.1170  -45.4211 N.am      12 UNK        -0.5000 
     70 CA         -2.4172  -23.4645  -44.8653 C.3       12 UNK         0.1400 
     71 CB         -2.3047  -23.5515  -43.3363 C.3       12 UNK        -0.1800 
     72 C          -3.0286  -24.7598  -45.4383 C.2       12 UNK         0.5000 
     73 O          -4.2397  -24.9522  -45.3168 O.2       12 UNK        -0.5000 
     74 N          -2.1890  -25.6110  -46.0480 N.am      13 UNK        -0.5000 
     75 CA         -2.5204  -26.8882  -46.6831 C.3       13 UNK         0.1400 
     76 CB         -1.2525  -27.4553  -47.3421 C.3       13 UNK        -0.1800 
     77 C          -3.6689  -26.7672  -47.7030 C.2       13 UNK         0.5000 
     78 O          -3.4694  -26.2358  -48.7988 O.2       13 UNK        -0.5000 
     79 N          -4.8613  -27.2181  -47.2864 N.am      14 UNK        -0.5000 
     80 CA         -6.1356  -27.1539  -48.0101 C.3       14 UNK         0.1400 
     81 CB         -6.1296  -28.1508  -49.1877 C.3       14 UNK        -0.1800 
     82 C          -6.5273  -25.7202  -48.4319 C.2       14 UNK         0.5000 
     83 O          -7.1043  -25.5362  -49.5039 O.2       14 UNK        -0.5000 
     84 N          -6.1753  -24.7293  -47.5956 N.am      15 UNK        -0.5000 
     85 CA         -6.3292  -23.2882  -47.8261 C.3       15 UNK         0.1400 
     86 CB         -7.8191  -22.8870  -47.8039 C.3       15 UNK        -0.1800 
     87 C          -5.6005  -22.8367  -49.1087 C.2       15 UNK         0.5000 
     88 O          -6.2194  -22.2715  -50.0125 O.2       15 UNK        -0.5000 
     89 N          -4.3000  -23.1551  -49.1775 N.am      16 UNK        -0.5000 
     90 CA         -3.3942  -22.9324  -50.3086 C.3       16 UNK         0.1400 
     91 CB         -3.1507  -21.4243  -50.5163 C.3       16 UNK        -0.1800 
     92 C          -3.8655  -23.6595  -51.5831 C.2       16 UNK         0.5000 
     93 O          -3.8533  -23.0772  -52.6698 O.2       16 UNK        -0.5000 
     94 N          -4.3120  -24.9132  -51.4047 N.am      17 UNK        -0.5000 
     95 CA         -4.9463  -25.7753  -52.4081 C.3       17 UNK         0.1400 
     96 CB         -3.9107  -26.2210  -53.4622 C.3       17 UNK        -0.1800 
     97 C          -6.1964  -25.1178  -53.0315 C.2       17 UNK         0.5000 
     98 O          -6.3078  -25.0399  -54.2539 O.2       17 UNK        -0.5000 
     99 N          -7.0882  -24.5992  -52.1746 N.am      18 UNK        -0.5000 
    100 CA        -8.2524  -23.7680  -52.5088 C.3       18 UNK         0.1400 
    101 CB        -9.3409  -24.6103  -53.2053 C.3       18 UNK        -0.1800 
    102 C         -7.8570  -22.5034  -53.3054 C.2       18 UNK         0.5000 
    103 O         -8.5006  -22.1591  -54.2981 O.2       18 UNK        -0.5000 
    104 N         -6.7653  -21.8676  -52.8595 N.am      19 UNK        -0.5000 
    105 CA        -6.0680  -20.7192  -53.4449 C.3       19 UNK         0.1400 
    106 CB        -6.9692  -19.4679  -53.4416 C.3       19 UNK        -0.1800 
    107 C         -5.4180  -20.9718  -54.8251 C.2       19 UNK         0.5000 
    108 O         -4.9546  -20.0142  -55.4449 O.2       19 UNK        -0.5000 
    109 N         -5.3479  -22.2303  -55.2864 N.am      20 UNK        -0.5000 
    110 CA        -4.7281  -22.6027  -56.5625 C.3       20 UNK         0.1400 
    111 CB        -5.2191  -23.9915  -56.9963 C.3       20 UNK        -0.1800 
    112 C         -3.1877  -22.5647  -56.5343 C.2       20 UNK         0.5000 
    113 O         -2.5719  -22.5618  -57.6008 O.2       20 UNK        -0.5000 
    114 N         -2.5832  -22.5272  -55.3373 N.am      21 UNK        -0.5000 
    115 CA        -1.1338  -22.4324  -55.1381 C.3       21 UNK         0.1400 
    116 CB        -0.7884  -22.9071  -53.7172 C.3       21 UNK        -0.1800 
    117 C         -0.5409  -21.0329  -55.4244 C.2       21 UNK         0.5000 
    118 O          0.6721  -20.8635  -55.2924 O.2       21 UNK        -0.5000 
    119 N         -1.3744  -20.0594  -55.8102 N.am      22 UNK        -0.5000 
    120 CA        -0.9723  -18.7093  -56.2228 C.3       22 UNK         0.1400 
    121 C         -1.8119  -18.1951  -57.4268 C.2       22 UNK         0.5000 
    122 N         -1.4789  -17.0335  -57.9746 N.am      22 UNK        -0.7600 
    123 O         -2.7516  -18.8399  -57.8879 O.2       22 UNK        -0.5000 
    124 C124       -0.9069  -17.7240  -55.0232 C.3       23 UNK        -0.0398 
    125 S125       -2.5234  -17.2812  -54.2875 S.3       23 UNK        -0.2404 
    126 C126       -2.7295  -18.5294  -52.9794 C.3       23 UNK        -0.0205 
    127 H127        4.2903  -11.6289  -47.5562 H         1 UNK         0.0600 
    128 H128        3.4335  -10.0847  -47.6171 H         1 UNK         0.0600 
    129 H129        3.1856  -11.2837  -48.8909 H         1 UNK         0.0600 
    130 H130        1.2419  -12.3450  -48.6802 H         1 UNK         0.3000 
    131 H131        0.3698  -13.8060  -46.4861 H         1 UNK         0.0600 
    132 H132       -1.8298  -13.9318  -47.6975 H         1 UNK         0.0800 
    133 H133       -1.3161  -12.6688  -48.7795 H         1 UNK         0.0800 
    134 H134       -0.6558  -16.5809  -47.8373 H         1 UNK         0.0800 
    135 H135       -2.1093  -16.0289  -48.6406 H         1 UNK         0.0800 
    136 H136       -2.6471  -16.7066  -50.9491 H         1 UNK         0.1150 
    137 H137       -0.5272  -20.0711  -52.5432 H         1 UNK         0.1150 
    138 H138        0.8720  -18.1602  -48.9742 H         1 UNK         0.1150 
    139 H139        1.7558  -20.5144  -51.6495 H         1 UNK         0.0800 
    140 H140        2.2561  -19.8594  -50.1099 H         1 UNK         0.0800 
    141 H141       -0.3159  -20.5450  -48.0770 H         1 UNK         0.0800 
    142 H142        1.4094  -20.5018  -47.9140 H         1 UNK         0.0800 
    143 H143        0.9606  -23.2227  -47.5495 H         1 UNK         0.0600 
    144 H144        0.9695  -21.2278  -45.3450 H         1 UNK         0.3000 
    145 H145        3.4349  -22.9008  -43.6436 H         1 UNK         0.0600 
    146 H146        5.1259  -21.9853  -45.2370 H         1 UNK         0.0600 
    147 H147        4.2676  -20.4494  -45.2838 H         1 UNK         0.0600 
    148 H148        5.0243  -20.9991  -43.7882 H         1 UNK         0.0600 
    149 H149        2.6313  -20.1601  -43.4577 H         1 UNK         0.3000 
    150 H150       -0.5264  -20.7887  -41.8652 H         1 UNK         0.0600 
    151 H151        1.1746  -20.9778  -40.0574 H         1 UNK         0.0600 
    152 H152        0.5146  -19.3509  -40.1316 H         1 UNK         0.0600 
    153 H153        2.1166  -19.6846  -40.7875 H         1 UNK         0.0600 
    154 H154        0.6723  -18.3201  -42.3720 H         1 UNK         0.3000 
    155 H155       -0.7024  -17.7813  -45.6612 H         1 UNK         0.0600 
    156 H156       -1.5590  -15.8484  -44.3794 H         1 UNK         0.0600 
    157 H157       -1.1720  -16.6425  -42.8545 H         1 UNK         0.0600 
    158 H158       -2.4089  -17.3123  -43.9103 H         1 UNK         0.0600 
    159 H159        1.0844  -16.3748  -43.8069 H         1 UNK         0.3000 
    160 H160        4.0299  -17.1201  -45.6209 H         1 UNK         0.0600 
    161 H161        2.5277  -14.4585  -45.3855 H         1 UNK         0.0600 
    162 H162        3.0510  -15.1877  -46.8976 H         1 UNK         0.0600 
    163 H163        4.2453  -14.6570  -45.7229 H         1 UNK         0.0600 
    164 H164        3.5111  -15.4461  -43.3652 H         1 UNK         0.3000 
    165 H165        3.6951  -17.9530  -40.8424 H         1 UNK         0.0600 
    166 H166        5.6477  -16.6200  -40.1147 H         1 UNK         0.0600 
    167 H167        6.0806  -17.6027  -41.5040 H         1 UNK         0.0600 
    168 H168        5.7801  -15.8813  -41.7112 H         1 UNK         0.0600 
    169 H169        3.6639  -15.1513  -40.6064 H         1 UNK         0.3000 
    170 H170        0.2107  -14.4945  -40.9185 H         1 UNK         0.0600 
    171 H171        0.3555  -15.5055  -38.6415 H         1 UNK         0.0600 
    172 H172        1.9167  -14.7371  -38.3799 H         1 UNK         0.0600 
    173 H173        0.4632  -13.7543  -38.5623 H         1 UNK         0.0600 
    174 H174        2.4689  -12.9604  -40.0168 H         1 UNK         0.3000 
    175 H175        3.4017  -11.3873  -41.2470 H         1 UNK         0.0600 
    176 H176        5.0940  -11.4309  -43.0919 H         1 UNK         0.0600 
    177 H177        4.9354  -13.0193  -42.3558 H         1 UNK         0.0600 
    178 H178        4.1877  -12.6956  -43.9169 H         1 UNK         0.0600 
    179 H179        2.1293  -11.1640  -43.9428 H         1 UNK         0.3000 
    180 H180        0.4483   -8.1822  -42.9131 H         1 UNK         0.0600 
    181 H181        2.1408   -8.9492  -45.3564 H         1 UNK         0.0600 
    182 H182        2.3477   -7.5003  -44.3811 H         1 UNK         0.0600 
    183 H183        0.8780   -7.7203  -45.3192 H         1 UNK         0.0600 
    184 H184        0.0019  -10.1583  -44.9653 H         1 UNK         0.3000 
    185 H185       -1.8110  -12.4675  -43.0377 H         1 UNK         0.0600 
    186 H186       -3.6649  -10.8903  -43.3777 H         1 UNK         0.0600 
    187 H187       -3.1019  -10.4939  -44.9919 H         1 UNK         0.0600 
    188 H188       -3.6947  -12.1166  -44.6350 H         1 UNK         0.0600 
    189 H189       -0.6446  -13.3312  -44.6573 H         1 UNK         0.3000 
    190 H190       -0.3275  -23.1086  -44.7751 H         1 UNK         0.3000 
    191 H191       -3.1063  -22.6524  -45.1064 H         1 UNK         0.0600 
    192 H192       -1.9857  -22.5992  -42.9128 H         1 UNK         0.0600 
    193 H193       -3.2656  -23.8002  -42.8839 H         1 UNK         0.0600 
    194 H194       -1.5877  -24.3135  -43.0284 H         1 UNK         0.0600 
    195 H195       -1.2206  -25.3339  -46.1005 H         1 UNK         0.3000 
    196 H196       -2.8247  -27.5781  -45.8937 H         1 UNK         0.0600 
    197 H197       -1.4594  -28.4083  -47.8308 H         1 UNK         0.0600 
    198 H198       -0.4690  -27.6325  -46.6052 H         1 UNK         0.0600 
    199 H199       -0.8543  -26.7782  -48.0992 H         1 UNK         0.0600 
    200 H200       -4.9218  -27.5862  -46.3470 H         1 UNK         0.3000 
    201 H201       -6.9067  -27.4772  -47.3096 H         1 UNK         0.0600 
    202 H202       -5.9403  -29.1659  -48.8387 H         1 UNK         0.0600 
    203 H203       -5.3626  -27.9054  -49.9211 H         1 UNK         0.0600 
    204 H204       -7.0903  -28.1628  -49.7039 H         1 UNK         0.0600 
    205 H205       -5.6623  -24.9801  -46.7553 H         1 UNK         0.3000 
    206 H206       -5.8370  -22.7838  -46.9932 H         1 UNK         0.0600 
    207 H207       -8.2959  -23.1960  -46.8738 H         1 UNK         0.0600 
    208 H208       -7.9308  -21.8051  -47.8827 H         1 UNK         0.0600 
    209 H209       -8.3752  -23.3322  -48.6295 H         1 UNK         0.0600 
    210 H210       -3.8759  -23.6308  -48.3926 H         1 UNK         0.3000 
    211 H211       -2.4391  -23.3871  -50.0428 H         1 UNK         0.0600 
    212 H212       -4.0677  -20.8835  -50.7456 H         1 UNK         0.0600 
    213 H213       -2.4600  -21.2555  -51.3382 H         1 UNK         0.0600 
    214 H214       -2.7081  -20.9724  -49.6286 H         1 UNK         0.0600 
    215 H215       -4.2439  -25.3033  -50.4696 H         1 UNK         0.3000 
    216 H216       -5.2952  -26.6657  -51.8862 H         1 UNK         0.0600 
    217 H217       -4.3465  -26.9389  -54.1578 H         1 UNK         0.0600 
    218 H218       -3.0538  -26.7031  -52.9920 H         1 UNK         0.0600 
    219 H219       -3.5403  -25.3806  -54.0504 H         1 UNK         0.0600 
    220 H220       -6.9402  -24.7535  -51.1790 H         1 UNK         0.3000 
    221 H221       -8.6596  -23.4180  -51.5591 H         1 UNK         0.0600 
    222 H222       -9.0177  -24.9609  -54.1859 H         1 UNK         0.0600 
    223 H223       -9.6051  -25.4825  -52.6074 H         1 UNK         0.0600 
    224 H224      -10.2515  -24.0280  -53.3499 H         1 UNK         0.0600 
    225 H225       -6.3471  -22.2237  -52.0045 H         1 UNK         0.3000 
    226 H226       -5.2361  -20.5174  -52.7706 H         1 UNK         0.0600 
    227 H227       -7.3886  -19.2871  -52.4519 H         1 UNK         0.0600 
    228 H228       -6.4042  -18.5773  -53.7194 H         1 UNK         0.0600 
    229 H229       -7.7957  -19.5620  -54.1462 H         1 UNK         0.0600 
    230 H230       -5.7140  -22.9872  -54.7203 H         1 UNK         0.3000 
    231 H231       -5.0565  -21.8854  -57.3177 H         1 UNK         0.0600 
    232 H232       -4.8161  -24.7773  -56.3570 H         1 UNK         0.0600 
    233 H233       -4.9037  -24.2128  -58.0165 H         1 UNK         0.0600 
    234 H234       -6.3071  -24.0565  -56.9703 H         1 UNK         0.0600 
    235 H235       -3.1546  -22.5736  -54.4981 H         1 UNK         0.3000 
    236 H236       -0.6532  -23.1205  -55.8365 H         1 UNK         0.0600 
    237 H237       -1.1487  -23.9209  -53.5415 H         1 UNK         0.0600 
    238 H238        0.2896  -22.9135  -53.5515 H         1 UNK         0.0600 
    239 H239       -1.2300  -22.2610  -52.9616 H         1 UNK         0.0600 
    240 H240       -2.3556  -20.2669  -55.9443 H         1 UNK         0.3000 
    241 H241        0.0388  -18.7870  -56.6273 H         1 UNK         0.0600 
    242 H242       -2.0149  -16.6945  -58.7585 H         1 UNK         0.3800 
    243 H243       -0.7076  -16.4828  -57.6310 H         1 UNK         0.3800 
    244 H244       -0.2467  -18.1235  -54.2547 H         1 UNK         0.0800 
    245 H245       -0.4317  -16.7946  -55.3386 H         1 UNK         0.0800 
    246 H246       -2.7010  -19.5272  -53.4187 H         1 UNK         0.0800 
    247 H247       -3.7264  -18.4206  -52.5506 H         1 UNK         0.0800 
@<TRIPOS>BOND
     1    1    2 1    
     2    1  127 1    
     3    1  128 1    
     4    1  129 1    
     5    2    3 2    
     6    2    4 am   BACKBONE|DICT|INTERRES
     7    4    5 1    
     8    4  130 1    
     9    5    6 1    
    10    5   65 1    
    11    5  131 1    
    12    6    7 1    
    13    6  132 1    
    14    6  133 1    
    15    7    8 1    
    16    8    9 1    
    17    8  134 1    
    18    8  135 1    
    19    9   10 ar   
    20    9   14 ar   
    21   10   11 ar   
    22   10  136 1    
    23   11   12 ar   
    24   11  126 1    
    25   12   13 ar   
    26   12  137 1    
    27   13   14 ar   
    28   13   15 1    
    29   14  138 1    
    30   15   16 1    
    31   15  139 1    
    32   15  140 1    
    33   16   17 1    
    34   17   18 1    
    35   17  141 1    
    36   17  142 1    
    37   18   19 1    
    38   18   67 1    
    39   18  143 1    
    40   19   20 am   BACKBONE|DICT|INTERRES
    41   19  144 1    
    42   20   21 2    
    43   20   22 1    
    44   22   23 1    
    45   22   24 1    
    46   22  145 1    
    47   23  146 1    
    48   23  147 1    
    49   23  148 1    
    50   24   25 am   BACKBONE|DICT|INTERRES
    51   24  149 1    
    52   25   26 2    
    53   25   27 1    
    54   27   28 1    
    55   27   29 1    
    56   27  150 1    
    57   28  151 1    
    58   28  152 1    
    59   28  153 1    
    60   29   30 am   BACKBONE|DICT|INTERRES
    61   29  154 1    
    62   30   31 2    
    63   30   32 1    
    64   32   33 1    
    65   32   34 1    
    66   32  155 1    
    67   33  156 1    
    68   33  157 1    
    69   33  158 1    
    70   34   35 am   BACKBONE|DICT|INTERRES
    71   34  159 1    
    72   35   36 2    
    73   35   37 1    
    74   37   38 1    
    75   37   39 1    
    76   37  160 1    
    77   38  161 1    
    78   38  162 1    
    79   38  163 1    
    80   39   40 am   BACKBONE|DICT|INTERRES
    81   39  164 1    
    82   40   41 2    
    83   40   42 1    
    84   42   43 1    
    85   42   44 1    
    86   42  165 1    
    87   43  166 1    
    88   43  167 1    
    89   43  168 1    
    90   44   45 am   BACKBONE|DICT|INTERRES
    91   44  169 1    
    92   45   46 2    
    93   45   47 1    
    94   47   48 1    
    95   47   49 1    
    96   47  170 1    
    97   48  171 1    
    98   48  172 1    
    99   48  173 1    
   100   49   50 am   BACKBONE|DICT|INTERRES
   101   49  174 1    
   102   50   51 2    
   103   50   52 1    
   104   52   53 1    
   105   52   54 1    
   106   52  175 1    
   107   53  176 1    
   108   53  177 1    
   109   53  178 1    
   110   54   55 am   BACKBONE|DICT|INTERRES
   111   54  179 1    
   112   55   56 2    
   113   55   57 1    
   114   57   58 1    
   115   57   59 1    
   116   57  180 1    
   117   58  181 1    
   118   58  182 1    
   119   58  183 1    
   120   59   60 am   BACKBONE|DICT|INTERRES
   121   59  184 1    
   122   60   61 2    
   123   60   62 1    
   124   62   63 1    
   125   62   64 1    
   126   62  185 1    
   127   63  186 1    
   128   63  187 1    
   129   63  188 1    
   130   64   65 am   BACKBONE|DICT|INTERRES
   131   64  189 1    
   132   65   66 2    
   133   67   68 2    
   134   67   69 am   BACKBONE|DICT|INTERRES
   135   69   70 1    
   136   69  190 1    
   137   70   71 1    
   138   70   72 1    
   139   70  191 1    
   140   71  192 1    
   141   71  193 1    
   142   71  194 1    
   143   72   73 2    
   144   72   74 am   BACKBONE|DICT|INTERRES
   145   74   75 1    
   146   74  195 1    
   147   75   76 1    
   148   75   77 1    
   149   75  196 1    
   150   76  197 1    
   151   76  198 1    
   152   76  199 1    
   153   77   78 2    
   154   77   79 am   BACKBONE|DICT|INTERRES
   155   79   80 1    
   156   79  200 1    
   157   80   81 1    
   158   80   82 1    
   159   80  201 1    
   160   81  202 1    
   161   81  203 1    
   162   81  204 1    
   163   82   83 2    
   164   82   84 am   BACKBONE|DICT|INTERRES
   165   84   85 1    
   166   84  205 1    
   167   85   86 1    
   168   85   87 1    
   169   85  206 1    
   170   86  207 1    
   171   86  208 1    
   172   86  209 1    
   173   87   88 2    
   174   87   89 am   BACKBONE|DICT|INTERRES
   175   89   90 1    
   176   89  210 1    
   177   90   91 1    
   178   90   92 1    
   179   90  211 1    
   180   91  212 1    
   181   91  213 1    
   182   91  214 1    
   183   92   93 2    
   184   92   94 am   BACKBONE|DICT|INTERRES
   185   94   95 1    
   186   94  215 1    
   187   95   96 1    
   188   95   97 1    
   189   95  216 1    
   190   96  217 1    
   191   96  218 1    
   192   96  219 1    
   193   97   98 2    
   194   97   99 am   BACKBONE|DICT|INTERRES
   195   99  100 1    
   196   99  220 1    
   197  100  101 1    
   198  100  102 1    
   199  100  221 1    
   200  101  222 1    
   201  101  223 1    
   202  101  224 1    
   203  102  103 2    
   204  102  104 am   BACKBONE|DICT|INTERRES
   205  104  105 1    
   206  104  225 1    
   207  105  106 1    
   208  105  107 1    
   209  105  226 1    
   210  106  227 1    
   211  106  228 1    
   212  106  229 1    
   213  107  108 2    
   214  107  109 am   BACKBONE|DICT|INTERRES
   215  109  110 1    
   216  109  230 1    
   217  110  111 1    
   218  110  112 1    
   219  110  231 1    
   220  111  232 1    
   221  111  233 1    
   222  111  234 1    
   223  112  113 2    
   224  112  114 am   BACKBONE|DICT|INTERRES
   225  114  115 1    
   226  114  235 1    
   227  115  116 1    
   228  115  117 1    
   229  115  236 1    
   230  116  237 1    
   231  116  238 1    
   232  116  239 1    
   233  117  118 2    
   234  117  119 am   BACKBONE|DICT|INTERRES
   235  119  120 1    
   236  119  240 1    
   237  120  121 1    
   238  120  124 1    
   239  120  241 1    
   240  121  122 am   BACKBONE|DICT|INTERRES
   241  121  123 2    
   242  122  242 1    
   243  122  243 1    
   244  124  125 1    
   245  124  244 1    
   246  124  245 1    
   247  125  126 1    
   248  126  246 1    
   249  126  247 1    
@<TRIPOS>SUBSTRUCTURE
     1 UNK         1 GROUP             0       ****    0 ROOT    
