@<TRIPOS>MOLECULE
3R540
247   249    1
SMALL
USER_CHARGES


@<TRIPOS>ATOM
      1 CA         -5.5955  -13.5607  -47.4558 C.3       0 UNK        -0.1800 
      2 C          -4.1895  -13.8667  -46.9638 C.2       0 UNK         0.5000 
      3 O          -3.7317  -13.2551  -45.9983 O.2       0 UNK        -0.5000 
      4 N          -3.5114  -14.8250  -47.6106 N.am      1 UNK        -0.5000 
      5 CA         -2.1296  -15.2578  -47.3496 C.3       1 UNK         0.1400 
      6 C6         -1.7120  -16.4263  -48.2713 C.3       23 UNK        -0.0398 
      7 S7         -1.7992  -16.0119  -50.0420 S.3       23 UNK        -0.2404 
      8 C8         -0.1014  -15.4340  -50.3502 C.3       23 UNK        -0.0205 
      9 C9          0.9034  -16.5750  -50.4392 C.ar      23 UNK        -0.0193 
     10 C10         0.9952  -17.3324  -51.6104 C.ar      23 UNK        -0.1150 
     11 C11         1.9674  -18.3281  -51.7375 C.ar      23 UNK        -0.0193 
     12 C12         2.8505  -18.5642  -50.6799 C.ar      23 UNK        -0.1150 
     13 C13         2.7550  -17.8335  -49.4932 C.ar      23 UNK        -0.0193 
     14 C14         1.7778  -16.8394  -49.3792 C.ar      23 UNK        -0.1150 
     15 C15         3.7469  -18.0860  -48.3642 C.3       23 UNK        -0.0205 
     16 S16         3.5667  -19.7421  -47.6223 S.3       23 UNK        -0.2404 
     17 C17         2.0259  -19.5518  -46.6692 C.3       23 UNK        -0.0398 
     18 CA          0.8830  -20.4411  -47.2065 C.3       11 UNK         0.1400 
     19 N           1.1671  -21.8732  -47.0672 N.am      11 UNK        -0.5000 
     20 C           0.5381  -22.8458  -47.7417 C.2       10 UNK         0.5000 
     21 O          -0.3171  -22.6354  -48.6000 O.2       10 UNK        -0.5000 
     22 CA          0.8898  -24.2979  -47.3593 C.3       10 UNK         0.1400 
     23 CB          2.1389  -24.7765  -48.1114 C.3       10 UNK        -0.1800 
     24 N           1.1132  -24.4652  -45.9232 N.am      10 UNK        -0.5000 
     25 C           0.1648  -24.3418  -44.9847 C.2       9 UNK         0.5000 
     26 O          -1.0195  -24.1306  -45.2388 O.2       9 UNK        -0.5000 
     27 CA          0.6260  -24.4094  -43.5145 C.3       9 UNK         0.1400 
     28 CB          0.5399  -25.8501  -42.9902 C.3       9 UNK        -0.1800 
     29 N           1.9831  -23.8943  -43.2982 N.am      9 UNK        -0.5000 
     30 C           2.3827  -22.6487  -43.5884 C.2       8 UNK         0.5000 
     31 O           1.6396  -21.7973  -44.0802 O.2       8 UNK        -0.5000 
     32 CA          3.8775  -22.3488  -43.3730 C.3       8 UNK         0.1400 
     33 CB          4.7102  -22.9972  -44.4917 C.3       8 UNK        -0.1800 
     34 N           4.1768  -20.9177  -43.3571 N.am      8 UNK        -0.5000 
     35 C           3.8173  -20.0525  -42.4005 C.2       7 UNK         0.5000 
     36 O           3.2026  -20.3765  -41.3814 O.2       7 UNK        -0.5000 
     37 CA          4.2737  -18.5861  -42.5756 C.3       7 UNK         0.1400 
     38 CB          4.8699  -18.2622  -43.9664 C.3       7 UNK        -0.1800 
     39 N           3.2284  -17.6170  -42.2382 N.am      7 UNK        -0.5000 
     40 C           2.0338  -17.4813  -42.8298 C.2       6 UNK         0.5000 
     41 O           1.6093  -18.2192  -43.7176 O.2       6 UNK        -0.5000 
     42 CA          1.1753  -16.2754  -42.4104 C.3       6 UNK         0.1400 
     43 CB          1.4617  -15.7351  -40.9916 C.3       6 UNK        -0.1800 
     44 N           1.2689  -15.2243  -43.4261 N.am      6 UNK        -0.5000 
     45 C           2.3633  -14.5341  -43.7843 C.2       5 UNK         0.5000 
     46 O           3.4398  -14.5815  -43.1884 O.2       5 UNK        -0.5000 
     47 CA          2.2439  -13.6447  -45.0303 C.3       5 UNK         0.1400 
     48 CB          2.4776  -14.4812  -46.2987 C.3       5 UNK        -0.1800 
     49 N           0.9300  -13.0054  -45.1113 N.am      5 UNK        -0.5000 
     50 C           0.7264  -11.6825  -45.1235 C.2       4 UNK         0.5000 
     51 O           1.6294  -10.8463  -45.0696 O.2       4 UNK        -0.5000 
     52 CA         -0.7323  -11.2015  -45.2205 C.3       4 UNK         0.1400 
     53 CB         -1.1790  -11.1282  -46.6888 C.3       4 UNK        -0.1800 
     54 N          -1.6786  -12.0277  -44.4703 N.am      4 UNK        -0.5000 
     55 C          -1.7541  -12.0757  -43.1323 C.2       3 UNK         0.5000 
     56 O          -0.9795  -11.4824  -42.3813 O.2       3 UNK        -0.5000 
     57 CA         -2.8933  -12.9143  -42.5307 C.3       3 UNK         0.1400 
     58 CB         -4.2150  -12.1309  -42.5679 C.3       3 UNK        -0.1800 
     59 N          -3.0611  -14.1688  -43.2604 N.am      3 UNK        -0.5000 
     60 C          -2.6605  -15.3673  -42.8171 C.2       2 UNK         0.5000 
     61 O          -2.1740  -15.5576  -41.7027 O.2       2 UNK        -0.5000 
     62 CA         -2.8194  -16.5646  -43.7768 C.3       2 UNK         0.1400 
     63 CB         -4.0986  -17.3481  -43.4434 C.3       2 UNK        -0.1800 
     64 N          -2.8553  -16.1916  -45.1909 N.am      2 UNK        -0.5000 
     65 C          -1.8524  -15.6266  -45.8759 C.2       1 UNK         0.5000 
     66 O          -0.7651  -15.3396  -45.3765 O.2       1 UNK        -0.5000 
     67 C          -0.4496  -20.0737  -46.5263 C.2       11 UNK         0.5000 
     68 O          -1.1652  -19.2158  -47.0359 O.2       11 UNK        -0.5000 
     69 N          -0.7938  -20.7437  -45.4177 N.am      12 UNK        -0.5000 
     70 CA         -2.1002  -20.6087  -44.7729 C.3       12 UNK         0.1400 
     71 CB         -2.0815  -21.2821  -43.3936 C.3       12 UNK        -0.1800 
     72 C          -3.2351  -21.1593  -45.6591 C.2       12 UNK         0.5000 
     73 O          -4.2513  -20.4869  -45.8335 O.2       12 UNK        -0.5000 
     74 N          -3.0184  -22.3445  -46.2490 N.am      13 UNK        -0.5000 
     75 CA         -3.9277  -22.9905  -47.1986 C.3       13 UNK         0.1400 
     76 CB         -3.4158  -24.4010  -47.5223 C.3       13 UNK        -0.1800 
     77 C          -4.1316  -22.1822  -48.4924 C.2       13 UNK         0.5000 
     78 O          -5.2468  -22.1501  -49.0136 O.2       13 UNK        -0.5000 
     79 N          -3.0741  -21.5020  -48.9591 N.am      14 UNK        -0.5000 
     80 CA         -3.0745  -20.6267  -50.1344 C.3       14 UNK         0.1400 
     81 CB         -1.6507  -20.1127  -50.3902 C.3       14 UNK        -0.1800 
     82 C          -4.0656  -19.4494  -50.0610 C.2       14 UNK         0.5000 
     83 O          -4.4552  -18.9366  -51.1098 O.2       14 UNK        -0.5000 
     84 N          -4.4835  -19.0574  -48.8489 N.am      15 UNK        -0.5000 
     85 CA         -5.5225  -18.0516  -48.6278 C.3       15 UNK         0.1400 
     86 CB         -5.5196  -17.6409  -47.1495 C.3       15 UNK        -0.1800 
     87 C          -6.9208  -18.5530  -49.0309 C.2       15 UNK         0.5000 
     88 O          -7.7100  -17.7799  -49.5736 O.2       15 UNK        -0.5000 
     89 N          -7.1968  -19.8347  -48.7576 N.am      16 UNK        -0.5000 
     90 CA         -8.4618  -20.4952  -49.0729 C.3       16 UNK         0.1400 
     91 CB         -8.7102  -21.6200  -48.0557 C.3       16 UNK        -0.1800 
     92 C          -8.4618  -21.0496  -50.5057 C.2       16 UNK         0.5000 
     93 O          -9.4682  -20.9337  -51.2056 O.2       16 UNK        -0.5000 
     94 N          -7.3291  -21.6344  -50.9163 N.am      17 UNK        -0.5000 
     95 CA         -7.1303  -22.2397  -52.2331 C.3       17 UNK         0.1400 
     96 CB         -5.9662  -23.2380  -52.1402 C.3       17 UNK        -0.1800 
     97 C          -6.9050  -21.2164  -53.3662 C.2       17 UNK         0.5000 
     98 O          -7.0131  -21.5974  -54.5323 O.2       17 UNK        -0.5000 
     99 N          -6.6168  -19.9535  -53.0090 N.am      18 UNK        -0.5000 
    100 CA        -6.2842  -18.8239  -53.8855 C.3       18 UNK         0.1400 
    101 CB        -7.4738  -18.4490  -54.7943 C.3       18 UNK        -0.1800 
    102 C         -4.9816  -19.1020  -54.6597 C.2       18 UNK         0.5000 
    103 O         -5.0052  -19.3046  -55.8755 O.2       18 UNK        -0.5000 
    104 N         -3.8793  -19.1585  -53.8998 N.am      19 UNK        -0.5000 
    105 CA        -2.5786  -19.7262  -54.2660 C.3       19 UNK         0.1400 
    106 CB        -1.9410  -19.0104  -55.4780 C.3       19 UNK        -0.1800 
    107 C         -2.7020  -21.2574  -54.4032 C.2       19 UNK         0.5000 
    108 O         -3.4235  -21.8629  -53.6093 O.2       19 UNK        -0.5000 
    109 N         -2.0008  -21.8602  -55.3735 N.am      20 UNK        -0.5000 
    110 CA        -2.0084  -23.2792  -55.7624 C.3       20 UNK         0.1400 
    111 CB        -3.4061  -23.7212  -56.2385 C.3       20 UNK        -0.1800 
    112 C         -1.4493  -24.2489  -54.7015 C.2       20 UNK         0.5000 
    113 O         -0.5172  -24.9965  -55.0000 O.2       20 UNK        -0.5000 
    114 N         -1.9953  -24.2051  -53.4794 N.am      21 UNK        -0.5000 
    115 CA        -1.5974  -25.0150  -52.3224 C.3       21 UNK         0.1400 
    116 CB        -2.5625  -24.7358  -51.1604 C.3       21 UNK        -0.1800 
    117 C         -0.1420  -24.7718  -51.8794 C.2       21 UNK         0.5000 
    118 O          0.4998  -25.6817  -51.3546 O.2       21 UNK        -0.5000 
    119 N          0.3500  -23.5566  -52.1370 N.am      22 UNK        -0.5000 
    120 CA         1.7462  -23.1391  -51.9797 C.3       22 UNK         0.1400 
    121 C          2.7065  -23.6133  -53.1128 C.2       22 UNK         0.5000 
    122 N          2.2405  -24.2762  -54.1656 N.am      22 UNK        -0.7600 
    123 O          3.9108  -23.3904  -53.0259 O.2       22 UNK        -0.5000 
    124 C124        1.8391  -21.6158  -51.7230 C.3       23 UNK        -0.0398 
    125 S125        1.0106  -20.5997  -53.0005 S.3       23 UNK        -0.2404 
    126 C126        2.0794  -19.1290  -53.0263 C.3       23 UNK        -0.0205 
    127 H127       -5.8781  -14.1933  -48.2976 H         1 UNK         0.0600 
    128 H128       -5.6620  -12.5201  -47.7728 H         1 UNK         0.0600 
    129 H129       -6.3152  -13.7206  -46.6530 H         1 UNK         0.0600 
    130 H130       -3.9387  -15.2560  -48.4172 H         1 UNK         0.3000 
    131 H131       -1.4866  -14.4071  -47.5795 H         1 UNK         0.0600 
    132 H132       -0.7051  -16.7729  -48.0351 H         1 UNK         0.0800 
    133 H133       -2.3710  -17.2791  -48.1106 H         1 UNK         0.0800 
    134 H134       -0.0905  -14.8777  -51.2886 H         1 UNK         0.0800 
    135 H135        0.1894  -14.7215  -49.5766 H         1 UNK         0.0800 
    136 H136        0.3187  -17.1348  -52.4301 H         1 UNK         0.1150 
    137 H137        3.6200  -19.3165  -50.7758 H         1 UNK         0.1150 
    138 H138        1.7145  -16.2519  -48.4764 H         1 UNK         0.1150 
    139 H139        4.7583  -17.9932  -48.7620 H         1 UNK         0.0800 
    140 H140        3.6590  -17.3268  -47.5854 H         1 UNK         0.0800 
    141 H141        1.7309  -18.5005  -46.6694 H         1 UNK         0.0800 
    142 H142        2.2445  -19.8017  -45.6317 H         1 UNK         0.0800 
    143 H143        0.7676  -20.2223  -48.2707 H         1 UNK         0.0600 
    144 H144        1.8070  -22.1243  -46.3276 H         1 UNK         0.3000 
    145 H145        0.0511  -24.9345  -47.6490 H         1 UNK         0.0600 
    146 H146        2.4078  -25.7934  -47.8253 H         1 UNK         0.0600 
    147 H147        1.9603  -24.7871  -49.1847 H         1 UNK         0.0600 
    148 H148        2.9999  -24.1340  -47.9223 H         1 UNK         0.0600 
    149 H149        2.0601  -24.6471  -45.6265 H         1 UNK         0.3000 
    150 H150       -0.0568  -23.7919  -42.9281 H         1 UNK         0.0600 
    151 H151        1.2272  -26.5128  -43.5176 H         1 UNK         0.0600 
    152 H152       -0.4663  -26.2520  -43.1172 H         1 UNK         0.0600 
    153 H153        0.7750  -25.8982  -41.9268 H         1 UNK         0.0600 
    154 H154        2.6514  -24.5448  -42.9106 H         1 UNK         0.3000 
    155 H155        4.1789  -22.7728  -42.4130 H         1 UNK         0.0600 
    156 H156        4.4413  -22.6038  -45.4734 H         1 UNK         0.0600 
    157 H157        4.5664  -24.0779  -44.5202 H         1 UNK         0.0600 
    158 H158        5.7757  -22.8211  -44.3421 H         1 UNK         0.0600 
    159 H159        4.6565  -20.5553  -44.1673 H         1 UNK         0.3000 
    160 H160        5.0668  -18.4362  -41.8419 H         1 UNK         0.0600 
    161 H161        4.1531  -18.4331  -44.7696 H         1 UNK         0.0600 
    162 H162        5.7562  -18.8632  -44.1727 H         1 UNK         0.0600 
    163 H163        5.1776  -17.2177  -44.0221 H         1 UNK         0.0600 
    164 H164        3.4725  -16.9466  -41.5236 H         1 UNK         0.3000 
    165 H165        0.1443  -16.6267  -42.4214 H         1 UNK         0.0600 
    166 H166        0.7525  -14.9493  -40.7308 H         1 UNK         0.0600 
    167 H167        1.3530  -16.5249  -40.2474 H         1 UNK         0.0600 
    168 H168        2.4639  -15.3201  -40.8874 H         1 UNK         0.0600 
    169 H169        0.4711  -15.1815  -44.0550 H         1 UNK         0.3000 
    170 H170        3.0359  -12.8954  -44.9702 H         1 UNK         0.0600 
    171 H171        3.4671  -14.9400  -46.2869 H         1 UNK         0.0600 
    172 H172        1.7459  -15.2843  -46.3871 H         1 UNK         0.0600 
    173 H173        2.4131  -13.8661  -47.1964 H         1 UNK         0.0600 
    174 H174        0.1304  -13.6279  -45.1521 H         1 UNK         0.3000 
    175 H175       -0.7727  -10.1910  -44.8080 H         1 UNK         0.0600 
    176 H176       -1.1708  -12.1096  -47.1622 H         1 UNK         0.0600 
    177 H177       -2.1880  -10.7246  -46.7745 H         1 UNK         0.0600 
    178 H178       -0.5189  -10.4798  -47.2662 H         1 UNK         0.0600 
    179 H179       -2.3867  -12.5101  -45.0187 H         1 UNK         0.3000 
    180 H180       -2.6479  -13.1070  -41.4842 H         1 UNK         0.0600 
    181 H181       -4.1234  -11.1844  -42.0336 H         1 UNK         0.0600 
    182 H182       -5.0185  -12.6952  -42.0944 H         1 UNK         0.0600 
    183 H183       -4.5235  -11.9040  -43.5894 H         1 UNK         0.0600 
    184 H184       -3.4274  -14.0920  -44.2029 H         1 UNK         0.3000 
    185 H185       -1.9613  -17.2235  -43.6290 H         1 UNK         0.0600 
    186 H186       -4.2153  -18.2186  -44.0885 H         1 UNK         0.0600 
    187 H187       -4.0785  -17.7081  -42.4139 H         1 UNK         0.0600 
    188 H188       -4.9892  -16.7287  -43.5574 H         1 UNK         0.0600 
    189 H189       -3.7269  -16.3510  -45.6720 H         1 UNK         0.3000 
    190 H190       -0.1205  -21.3756  -44.9981 H         1 UNK         0.3000 
    191 H191       -2.2824  -19.5437  -44.6210 H         1 UNK         0.0600 
    192 H192       -1.2714  -20.8935  -42.7758 H         1 UNK         0.0600 
    193 H193       -3.0155  -21.0978  -42.8616 H         1 UNK         0.0600 
    194 H194       -1.9580  -22.3617  -43.4694 H         1 UNK         0.0600 
    195 H195       -2.1785  -22.8638  -46.0058 H         1 UNK         0.3000 
    196 H196       -4.9018  -23.0840  -46.7143 H         1 UNK         0.0600 
    197 H197       -4.0773  -24.9064  -48.2272 H         1 UNK         0.0600 
    198 H198       -3.3645  -25.0171  -46.6245 H         1 UNK         0.0600 
    199 H199       -2.4202  -24.3737  -47.9655 H         1 UNK         0.0600 
    200 H200       -2.1783  -21.6382  -48.5049 H         1 UNK         0.3000 
    201 H201       -3.3710  -21.2338  -50.9903 H         1 UNK         0.0600 
    202 H202       -1.6192  -19.4168  -51.2267 H         1 UNK         0.0600 
    203 H203       -0.9751  -20.9346  -50.6220 H         1 UNK         0.0600 
    204 H204       -1.2511  -19.5774  -49.5323 H         1 UNK         0.0600 
    205 H205       -4.1226  -19.5337  -48.0321 H         1 UNK         0.3000 
    206 H206       -5.2822  -17.1747  -49.2327 H         1 UNK         0.0600 
    207 H207       -4.5129  -17.4079  -46.8163 H         1 UNK         0.0600 
    208 H208       -6.1415  -16.7601  -46.9858 H         1 UNK         0.0600 
    209 H209       -5.9000  -18.4355  -46.5063 H         1 UNK         0.0600 
    210 H210       -6.4681  -20.4176  -48.3663 H         1 UNK         0.3000 
    211 H211       -9.2794  -19.7761  -48.9871 H         1 UNK         0.0600 
    212 H212       -7.9213  -22.3728  -48.0826 H         1 UNK         0.0600 
    213 H213       -9.6549  -22.1265  -48.2574 H         1 UNK         0.0600 
    214 H214       -8.7623  -21.2269  -47.0403 H         1 UNK         0.0600 
    215 H215       -6.5611  -21.7297  -50.2554 H         1 UNK         0.3000 
    216 H216       -8.0295  -22.8029  -52.4915 H         1 UNK         0.0600 
    217 H217       -5.7415  -23.6800  -53.1118 H         1 UNK         0.0600 
    218 H218       -6.2020  -24.0538  -51.4568 H         1 UNK         0.0600 
    219 H219       -5.0577  -22.7581  -51.7788 H         1 UNK         0.0600 
    220 H220       -6.5075  -19.7712  -52.0211 H         1 UNK         0.3000 
    221 H221       -6.0927  -17.9701  -53.2335 H         1 UNK         0.0600 
    222 H222       -7.7189  -19.2409  -55.5023 H         1 UNK         0.0600 
    223 H223       -8.3666  -18.2389  -54.2054 H         1 UNK         0.0600 
    224 H224       -7.2481  -17.5541  -55.3750 H         1 UNK         0.0600 
    225 H225       -4.0152  -19.0198  -52.9003 H         1 UNK         0.3000 
    226 H226       -1.9227  -19.5513  -53.4159 H         1 UNK         0.0600 
    227 H227       -0.8950  -19.2963  -55.5943 H         1 UNK         0.0600 
    228 H228       -2.4526  -19.2401  -56.4129 H         1 UNK         0.0600 
    229 H229       -1.9607  -17.9287  -55.3456 H         1 UNK         0.0600 
    230 H230       -1.4099  -21.2720  -55.9441 H         1 UNK         0.3000 
    231 H231       -1.3413  -23.3472  -56.6232 H         1 UNK         0.0600 
    232 H232       -4.1460  -23.6803  -55.4385 H         1 UNK         0.0600 
    233 H233       -3.3846  -24.7468  -56.6089 H         1 UNK         0.0600 
    234 H234       -3.7617  -23.0891  -57.0523 H         1 UNK         0.0600 
    235 H235       -2.7184  -23.5039  -53.3290 H         1 UNK         0.3000 
    236 H236       -1.6869  -26.0660  -52.6037 H         1 UNK         0.0600 
    237 H237       -3.5908  -24.9719  -51.4334 H         1 UNK         0.0600 
    238 H238       -2.3097  -25.3432  -50.2907 H         1 UNK         0.0600 
    239 H239       -2.5265  -23.6904  -50.8526 H         1 UNK         0.0600 
    240 H240       -0.2549  -22.8813  -52.5797 H         1 UNK         0.3000 
    241 H241        2.1286  -23.6220  -51.0816 H         1 UNK         0.0600 
    242 H242        1.2552  -24.4927  -54.2682 H         1 UNK         0.3800 
    243 H243        2.8864  -24.5767  -54.8780 H         1 UNK         0.3800 
    244 H244        1.3848  -21.3802  -50.7596 H         1 UNK         0.0800 
    245 H245        2.8843  -21.3194  -51.6319 H         1 UNK         0.0800 
    246 H246        3.1136  -19.4280  -53.2037 H         1 UNK         0.0800 
    247 H247        1.7952  -18.5042  -53.8742 H         1 UNK         0.0800 
@<TRIPOS>BOND
     1    1    2 1    
     2    1  127 1    
     3    1  128 1    
     4    1  129 1    
     5    2    3 2    
     6    2    4 am   BACKBONE|DICT|INTERRES
     7    4    5 1    
     8    4  130 1    
     9    5    6 1    
    10    5   65 1    
    11    5  131 1    
    12    6    7 1    
    13    6  132 1    
    14    6  133 1    
    15    7    8 1    
    16    8    9 1    
    17    8  134 1    
    18    8  135 1    
    19    9   10 ar   
    20    9   14 ar   
    21   10   11 ar   
    22   10  136 1    
    23   11   12 ar   
    24   11  126 1    
    25   12   13 ar   
    26   12  137 1    
    27   13   14 ar   
    28   13   15 1    
    29   14  138 1    
    30   15   16 1    
    31   15  139 1    
    32   15  140 1    
    33   16   17 1    
    34   17   18 1    
    35   17  141 1    
    36   17  142 1    
    37   18   19 1    
    38   18   67 1    
    39   18  143 1    
    40   19   20 am   BACKBONE|DICT|INTERRES
    41   19  144 1    
    42   20   21 2    
    43   20   22 1    
    44   22   23 1    
    45   22   24 1    
    46   22  145 1    
    47   23  146 1    
    48   23  147 1    
    49   23  148 1    
    50   24   25 am   BACKBONE|DICT|INTERRES
    51   24  149 1    
    52   25   26 2    
    53   25   27 1    
    54   27   28 1    
    55   27   29 1    
    56   27  150 1    
    57   28  151 1    
    58   28  152 1    
    59   28  153 1    
    60   29   30 am   BACKBONE|DICT|INTERRES
    61   29  154 1    
    62   30   31 2    
    63   30   32 1    
    64   32   33 1    
    65   32   34 1    
    66   32  155 1    
    67   33  156 1    
    68   33  157 1    
    69   33  158 1    
    70   34   35 am   BACKBONE|DICT|INTERRES
    71   34  159 1    
    72   35   36 2    
    73   35   37 1    
    74   37   38 1    
    75   37   39 1    
    76   37  160 1    
    77   38  161 1    
    78   38  162 1    
    79   38  163 1    
    80   39   40 am   BACKBONE|DICT|INTERRES
    81   39  164 1    
    82   40   41 2    
    83   40   42 1    
    84   42   43 1    
    85   42   44 1    
    86   42  165 1    
    87   43  166 1    
    88   43  167 1    
    89   43  168 1    
    90   44   45 am   BACKBONE|DICT|INTERRES
    91   44  169 1    
    92   45   46 2    
    93   45   47 1    
    94   47   48 1    
    95   47   49 1    
    96   47  170 1    
    97   48  171 1    
    98   48  172 1    
    99   48  173 1    
   100   49   50 am   BACKBONE|DICT|INTERRES
   101   49  174 1    
   102   50   51 2    
   103   50   52 1    
   104   52   53 1    
   105   52   54 1    
   106   52  175 1    
   107   53  176 1    
   108   53  177 1    
   109   53  178 1    
   110   54   55 am   BACKBONE|DICT|INTERRES
   111   54  179 1    
   112   55   56 2    
   113   55   57 1    
   114   57   58 1    
   115   57   59 1    
   116   57  180 1    
   117   58  181 1    
   118   58  182 1    
   119   58  183 1    
   120   59   60 am   BACKBONE|DICT|INTERRES
   121   59  184 1    
   122   60   61 2    
   123   60   62 1    
   124   62   63 1    
   125   62   64 1    
   126   62  185 1    
   127   63  186 1    
   128   63  187 1    
   129   63  188 1    
   130   64   65 am   BACKBONE|DICT|INTERRES
   131   64  189 1    
   132   65   66 2    
   133   67   68 2    
   134   67   69 am   BACKBONE|DICT|INTERRES
   135   69   70 1    
   136   69  190 1    
   137   70   71 1    
   138   70   72 1    
   139   70  191 1    
   140   71  192 1    
   141   71  193 1    
   142   71  194 1    
   143   72   73 2    
   144   72   74 am   BACKBONE|DICT|INTERRES
   145   74   75 1    
   146   74  195 1    
   147   75   76 1    
   148   75   77 1    
   149   75  196 1    
   150   76  197 1    
   151   76  198 1    
   152   76  199 1    
   153   77   78 2    
   154   77   79 am   BACKBONE|DICT|INTERRES
   155   79   80 1    
   156   79  200 1    
   157   80   81 1    
   158   80   82 1    
   159   80  201 1    
   160   81  202 1    
   161   81  203 1    
   162   81  204 1    
   163   82   83 2    
   164   82   84 am   BACKBONE|DICT|INTERRES
   165   84   85 1    
   166   84  205 1    
   167   85   86 1    
   168   85   87 1    
   169   85  206 1    
   170   86  207 1    
   171   86  208 1    
   172   86  209 1    
   173   87   88 2    
   174   87   89 am   BACKBONE|DICT|INTERRES
   175   89   90 1    
   176   89  210 1    
   177   90   91 1    
   178   90   92 1    
   179   90  211 1    
   180   91  212 1    
   181   91  213 1    
   182   91  214 1    
   183   92   93 2    
   184   92   94 am   BACKBONE|DICT|INTERRES
   185   94   95 1    
   186   94  215 1    
   187   95   96 1    
   188   95   97 1    
   189   95  216 1    
   190   96  217 1    
   191   96  218 1    
   192   96  219 1    
   193   97   98 2    
   194   97   99 am   BACKBONE|DICT|INTERRES
   195   99  100 1    
   196   99  220 1    
   197  100  101 1    
   198  100  102 1    
   199  100  221 1    
   200  101  222 1    
   201  101  223 1    
   202  101  224 1    
   203  102  103 2    
   204  102  104 am   BACKBONE|DICT|INTERRES
   205  104  105 1    
   206  104  225 1    
   207  105  106 1    
   208  105  107 1    
   209  105  226 1    
   210  106  227 1    
   211  106  228 1    
   212  106  229 1    
   213  107  108 2    
   214  107  109 am   BACKBONE|DICT|INTERRES
   215  109  110 1    
   216  109  230 1    
   217  110  111 1    
   218  110  112 1    
   219  110  231 1    
   220  111  232 1    
   221  111  233 1    
   222  111  234 1    
   223  112  113 2    
   224  112  114 am   BACKBONE|DICT|INTERRES
   225  114  115 1    
   226  114  235 1    
   227  115  116 1    
   228  115  117 1    
   229  115  236 1    
   230  116  237 1    
   231  116  238 1    
   232  116  239 1    
   233  117  118 2    
   234  117  119 am   BACKBONE|DICT|INTERRES
   235  119  120 1    
   236  119  240 1    
   237  120  121 1    
   238  120  124 1    
   239  120  241 1    
   240  121  122 am   BACKBONE|DICT|INTERRES
   241  121  123 2    
   242  122  242 1    
   243  122  243 1    
   244  124  125 1    
   245  124  244 1    
   246  124  245 1    
   247  125  126 1    
   248  126  246 1    
   249  126  247 1    
@<TRIPOS>SUBSTRUCTURE
     1 UNK         1 GROUP             0       ****    0 ROOT    
