@<TRIPOS>MOLECULE
3R540
247   249    1
SMALL
USER_CHARGES


@<TRIPOS>ATOM
      1 CA          0.6115  -15.7685  -52.2339 C.3       0 UNK        -0.1800 
      2 C           1.3135  -14.8348  -51.2587 C.2       0 UNK         0.5000 
      3 O           1.4411  -13.6405  -51.5307 O.2       0 UNK        -0.5000 
      4 N           1.7837  -15.3833  -50.1328 N.am      1 UNK        -0.5000 
      5 CA          2.4663  -14.6680  -49.0492 C.3       1 UNK         0.1400 
      6 C6          3.0934  -15.6327  -48.0124 C.3       23 UNK        -0.0398 
      7 S7          4.1227  -16.9514  -48.7476 S.3       23 UNK        -0.2404 
      8 C8          3.1727  -18.4433  -48.3029 C.3       23 UNK        -0.0205 
      9 C9          1.9275  -18.6184  -49.1595 C.ar      23 UNK        -0.0193 
     10 C10         1.9910  -19.3419  -50.3536 C.ar      23 UNK        -0.1150 
     11 C11         0.8567  -19.5131  -51.1544 C.ar      23 UNK        -0.0193 
     12 C12        -0.3461  -18.9177  -50.7526 C.ar      23 UNK        -0.1150 
     13 C13        -0.4271  -18.2015  -49.5570 C.ar      23 UNK        -0.0193 
     14 C14         0.7079  -18.0697  -48.7558 C.ar      23 UNK        -0.1150 
     15 C15        -1.7436  -17.5703  -49.1343 C.3       23 UNK        -0.0205 
     16 S16        -2.9050  -18.8063  -48.4723 S.3       23 UNK        -0.2404 
     17 C17        -2.0396  -19.3608  -46.9687 C.3       23 UNK        -0.0398 
     18 CA         -1.2184  -20.6695  -47.1474 C.3       11 UNK         0.1400 
     19 N          -0.0670  -20.7027  -46.2357 N.am      11 UNK        -0.5000 
     20 C           0.8625  -21.6667  -46.1688 C.2       10 UNK         0.5000 
     21 O           0.8981  -22.6352  -46.9239 O.2       10 UNK        -0.5000 
     22 CA          1.8926  -21.5763  -45.0262 C.3       10 UNK         0.1400 
     23 CB          3.0810  -20.6841  -45.4034 C.3       10 UNK        -0.1800 
     24 N           1.3108  -21.1126  -43.7672 N.am      10 UNK        -0.5000 
     25 C           0.3871  -21.7881  -43.0697 C.2       9 UNK         0.5000 
     26 O          -0.0357  -22.8980  -43.3924 O.2       9 UNK        -0.5000 
     27 CA         -0.2005  -21.0849  -41.8339 C.3       9 UNK         0.1400 
     28 CB          0.7600  -21.1833  -40.6396 C.3       9 UNK        -0.1800 
     29 N          -0.5255  -19.6818  -42.0919 N.am      9 UNK        -0.5000 
     30 C          -1.4348  -19.2636  -42.9839 C.2       8 UNK         0.5000 
     31 O          -2.1395  -20.0236  -43.6504 O.2       8 UNK        -0.5000 
     32 CA         -1.5342  -17.7424  -43.2076 C.3       8 UNK         0.1400 
     33 CB         -2.3626  -17.0747  -42.1003 C.3       8 UNK        -0.1800 
     34 N          -0.2237  -17.0947  -43.2974 N.am      8 UNK        -0.5000 
     35 C           0.6897  -17.3582  -44.2427 C.2       7 UNK         0.5000 
     36 O           0.5226  -18.1599  -45.1572 O.2       7 UNK        -0.5000 
     37 CA          2.0396  -16.6409  -44.1238 C.3       7 UNK         0.1400 
     38 CB          1.9296  -15.2002  -44.6399 C.3       7 UNK        -0.1800 
     39 N           2.5408  -16.6548  -42.7506 N.am      7 UNK        -0.5000 
     40 C           2.9336  -17.7624  -42.1034 C.2       6 UNK         0.5000 
     41 O           2.9676  -18.8805  -42.6170 O.2       6 UNK        -0.5000 
     42 CA          3.3039  -17.5990  -40.6180 C.3       6 UNK         0.1400 
     43 CB          4.7582  -17.1279  -40.4701 C.3       6 UNK        -0.1800 
     44 N           2.4169  -16.6688  -39.9171 N.am      6 UNK        -0.5000 
     45 C           1.1099  -16.8814  -39.7068 C.2       5 UNK         0.5000 
     46 O           0.5207  -17.9064  -40.0476 O.2       5 UNK        -0.5000 
     47 CA          0.3183  -15.7351  -39.0500 C.3       5 UNK         0.1400 
     48 CB          0.3741  -15.8490  -37.5194 C.3       5 UNK        -0.1800 
     49 N           0.7724  -14.4005  -39.4549 N.am      5 UNK        -0.5000 
     50 C           0.7498  -13.9300  -40.7101 C.2       4 UNK         0.5000 
     51 O           0.3674  -14.5980  -41.6716 O.2       4 UNK        -0.5000 
     52 CA          1.2408  -12.4896  -40.9496 C.3       4 UNK         0.1400 
     53 CB          1.6017  -11.7267  -39.6590 C.3       4 UNK        -0.1800 
     54 N           2.4220  -12.5205  -41.8172 N.am      4 UNK        -0.5000 
     55 C           2.5366  -12.1311  -43.0954 C.2       3 UNK         0.5000 
     56 O           3.6094  -12.2281  -43.6947 O.2       3 UNK        -0.5000 
     57 CA          1.3274  -11.5350  -43.8420 C.3       3 UNK         0.1400 
     58 CB          1.1069  -10.0632  -43.4285 C.3       3 UNK        -0.1800 
     59 N           1.5663  -11.6039  -45.2845 N.am      3 UNK        -0.5000 
     60 C           0.6365  -11.4135  -46.2280 C.2       2 UNK         0.5000 
     61 O          -0.5626  -11.2702  -45.9851 O.2       2 UNK        -0.5000 
     62 CA          1.1260  -11.3251  -47.6854 C.3       2 UNK         0.1400 
     63 CB          1.8820  -10.0077  -47.9247 C.3       2 UNK        -0.1800 
     64 N           1.9618  -12.4469  -48.1182 N.am      2 UNK        -0.5000 
     65 C           1.4987  -13.6809  -48.3569 C.2       1 UNK         0.5000 
     66 O           0.3569  -14.0512  -48.0738 O.2       1 UNK        -0.5000 
     67 C          -2.1052  -21.9241  -46.9867 C.2       11 UNK         0.5000 
     68 O          -2.4337  -22.5861  -47.9746 O.2       11 UNK        -0.5000 
     69 N          -2.4282  -22.2552  -45.7278 N.am      12 UNK        -0.5000 
     70 CA         -3.1775  -23.4521  -45.3531 C.3       12 UNK         0.1400 
     71 CB         -3.5664  -23.3722  -43.8691 C.3       12 UNK        -0.1800 
     72 C          -2.4099  -24.7514  -45.6597 C.2       12 UNK         0.5000 
     73 O          -2.9843  -25.6627  -46.2559 O.2       12 UNK        -0.5000 
     74 N          -1.1243  -24.8037  -45.2810 N.am      13 UNK        -0.5000 
     75 CA         -0.2350  -25.9507  -45.4915 C.3       13 UNK         0.1400 
     76 CB          1.0927  -25.7132  -44.7575 C.3       13 UNK        -0.1800 
     77 C           0.0197  -26.2721  -46.9767 C.2       13 UNK         0.5000 
     78 O           0.1034  -27.4467  -47.3373 O.2       13 UNK        -0.5000 
     79 N           0.1082  -25.2302  -47.8139 N.am      14 UNK        -0.5000 
     80 CA          0.2441  -25.3279  -49.2682 C.3       14 UNK         0.1400 
     81 CB          0.6921  -23.9628  -49.8191 C.3       14 UNK        -0.1800 
     82 C          -1.0445  -25.7839  -49.9811 C.2       14 UNK         0.5000 
     83 O          -0.9762  -26.1319  -51.1606 O.2       14 UNK        -0.5000 
     84 N          -2.1869  -25.7472  -49.2748 N.am      15 UNK        -0.5000 
     85 CA         -3.5474  -25.9672  -49.7774 C.3       15 UNK         0.1400 
     86 CB         -3.7495  -27.4294  -50.2256 C.3       15 UNK        -0.1800 
     87 C          -3.9220  -24.9370  -50.8627 C.2       15 UNK         0.5000 
     88 O          -4.5241  -25.2831  -51.8817 O.2       15 UNK        -0.5000 
     89 N          -3.5413  -23.6752  -50.6142 N.am      16 UNK        -0.5000 
     90 CA         -3.6338  -22.5461  -51.5415 C.3       16 UNK         0.1400 
     91 CB         -3.0041  -21.3298  -50.8669 C.3       16 UNK        -0.1800 
     92 C          -5.0597  -22.1969  -52.0000 C.2       16 UNK         0.5000 
     93 O          -5.2148  -21.5737  -53.0511 O.2       16 UNK        -0.5000 
     94 N          -6.0648  -22.6325  -51.2254 N.am      17 UNK        -0.5000 
     95 CA         -7.4988  -22.5187  -51.4991 C.3       17 UNK         0.1400 
     96 CB         -8.2776  -23.1592  -50.3410 C.3       17 UNK        -0.1800 
     97 C          -7.9353  -23.1318  -52.8440 C.2       17 UNK         0.5000 
     98 O          -8.9210  -22.6716  -53.4212 O.2       17 UNK        -0.5000 
     99 N          -7.1664  -24.1079  -53.3517 N.am      18 UNK        -0.5000 
    100 CA        -7.3169  -24.6967  -54.6858 C.3       18 UNK         0.1400 
    101 CB        -6.3315  -25.8671  -54.8224 C.3       18 UNK        -0.1800 
    102 C         -7.1192  -23.6881  -55.8397 C.2       18 UNK         0.5000 
    103 O         -7.6227  -23.9236  -56.9386 O.2       18 UNK        -0.5000 
    104 N         -6.4174  -22.5813  -55.5657 N.am      19 UNK        -0.5000 
    105 CA        -6.2250  -21.4418  -56.4582 C.3       19 UNK         0.1400 
    106 CB        -4.7850  -21.4690  -56.9998 C.3       19 UNK        -0.1800 
    107 C         -6.5634  -20.1383  -55.7088 C.2       19 UNK         0.5000 
    108 O         -5.8759  -19.1296  -55.8841 O.2       19 UNK        -0.5000 
    109 N         -7.5949  -20.1964  -54.8513 N.am      20 UNK        -0.5000 
    110 CA        -8.1149  -19.1605  -53.9483 C.3       20 UNK         0.1400 
    111 CB        -8.6075  -17.9244  -54.7254 C.3       20 UNK        -0.1800 
    112 C         -7.1475  -18.7665  -52.8139 C.2       20 UNK         0.5000 
    113 O         -7.5234  -18.8452  -51.6443 O.2       20 UNK        -0.5000 
    114 N         -5.9278  -18.3657  -53.1782 N.am      21 UNK        -0.5000 
    115 CA        -4.8249  -17.9974  -52.2954 C.3       21 UNK         0.1400 
    116 CB        -5.1170  -16.6543  -51.5917 C.3       21 UNK        -0.1800 
    117 C         -3.5216  -17.9733  -53.1154 C.2       21 UNK         0.5000 
    118 O         -2.7643  -17.0058  -53.0334 O.2       21 UNK        -0.5000 
    119 N         -3.3051  -19.0211  -53.9257 N.am      22 UNK        -0.5000 
    120 CA        -2.2153  -19.1247  -54.9184 C.3       22 UNK         0.1400 
    121 C         -2.3114  -18.0609  -56.0573 C.2       22 UNK         0.5000 
    122 N         -3.5050  -17.7349  -56.5376 N.am      22 UNK        -0.7600 
    123 O         -1.3070  -17.5328  -56.5281 O.2       22 UNK        -0.5000 
    124 C124       -0.7963  -19.2114  -54.2833 C.3       23 UNK        -0.0398 
    125 S125       -0.5553  -20.7385  -53.3181 S.3       23 UNK        -0.2404 
    126 C126        0.9941  -20.3483  -52.4305 C.3       23 UNK        -0.0205 
    127 H127        0.6848  -15.3888  -53.2531 H         1 UNK         0.0600 
    128 H128       -0.4439  -15.8576  -51.9767 H         1 UNK         0.0600 
    129 H129        1.0568  -16.7630  -52.2146 H         1 UNK         0.0600 
    130 H130        1.6397  -16.3708  -49.9704 H         1 UNK         0.3000 
    131 H131        3.2764  -14.0960  -49.5065 H         1 UNK         0.0600 
    132 H132        2.3176  -16.0984  -47.4091 H         1 UNK         0.0800 
    133 H133        3.7191  -15.0740  -47.3144 H         1 UNK         0.0800 
    134 H134        3.8180  -19.3167  -48.4073 H         1 UNK         0.0800 
    135 H135        2.8971  -18.3917  -47.2508 H         1 UNK         0.0800 
    136 H136        2.9308  -19.7808  -50.6589 H         1 UNK         0.1150 
    137 H137       -1.2351  -19.0081  -51.3559 H         1 UNK         0.1150 
    138 H138        0.6384  -17.5312  -47.8217 H         1 UNK         0.1150 
    139 H139       -2.1972  -17.0825  -49.9977 H         1 UNK         0.0800 
    140 H140       -1.5786  -16.7853  -48.3941 H         1 UNK         0.0800 
    141 H141       -2.7716  -19.4528  -46.1652 H         1 UNK         0.0800 
    142 H142       -1.3923  -18.5417  -46.6649 H         1 UNK         0.0800 
    143 H143       -0.8051  -20.6915  -48.1577 H         1 UNK         0.0600 
    144 H144        0.0350  -19.9016  -45.6182 H         1 UNK         0.3000 
    145 H145        2.2794  -22.5832  -44.8608 H         1 UNK         0.0600 
    146 H146        3.4698  -20.9359  -46.3907 H         1 UNK         0.0600 
    147 H147        3.8975  -20.8012  -44.6908 H         1 UNK         0.0600 
    148 H148        2.7997  -19.6330  -45.4069 H         1 UNK         0.0600 
    149 H149        1.6370  -20.2174  -43.4182 H         1 UNK         0.3000 
    150 H150       -1.1270  -21.5986  -41.5691 H         1 UNK         0.0600 
    151 H151        1.0083  -22.2228  -40.4221 H         1 UNK         0.0600 
    152 H152        0.3132  -20.7600  -39.7398 H         1 UNK         0.0600 
    153 H153        1.6943  -20.6537  -40.8286 H         1 UNK         0.0600 
    154 H154       -0.0231  -18.9901  -41.5422 H         1 UNK         0.3000 
    155 H155       -2.0470  -17.5811  -44.1581 H         1 UNK         0.0600 
    156 H156       -1.9039  -17.2021  -41.1198 H         1 UNK         0.0600 
    157 H157       -3.3644  -17.5033  -42.0517 H         1 UNK         0.0600 
    158 H158       -2.4735  -16.0053  -42.2810 H         1 UNK         0.0600 
    159 H159       -0.0073  -16.3924  -42.5978 H         1 UNK         0.3000 
    160 H160        2.7548  -17.1720  -44.7557 H         1 UNK         0.0600 
    161 H161        1.3303  -14.5798  -43.9793 H         1 UNK         0.0600 
    162 H162        1.4396  -15.1609  -45.6111 H         1 UNK         0.0600 
    163 H163        2.9126  -14.7414  -44.7440 H         1 UNK         0.0600 
    164 H164        2.4823  -15.7879  -42.2377 H         1 UNK         0.3000 
    165 H165        3.2115  -18.5780  -40.1428 H         1 UNK         0.0600 
    166 H166        5.0531  -17.0829  -39.4215 H         1 UNK         0.0600 
    167 H167        5.4428  -17.8146  -40.9698 H         1 UNK         0.0600 
    168 H168        4.9094  -16.1391  -40.9049 H         1 UNK         0.0600 
    169 H169        2.8206  -15.8005  -39.5989 H         1 UNK         0.3000 
    170 H170       -0.7235  -15.8378  -39.3604 H         1 UNK         0.0600 
    171 H171       -0.2593  -15.0995  -37.0446 H         1 UNK         0.0600 
    172 H172        1.3892  -15.7201  -37.1419 H         1 UNK         0.0600 
    173 H173        0.0219  -16.8268  -37.1877 H         1 UNK         0.0600 
    174 H174        1.0998  -13.7934  -38.7175 H         1 UNK         0.3000 
    175 H175        0.4062  -11.9635  -41.4102 H         1 UNK         0.0600 
    176 H176        0.7498  -11.6671  -38.9800 H         1 UNK         0.0600 
    177 H177        2.4310  -12.1910  -39.1238 H         1 UNK         0.0600 
    178 H178        1.8951  -10.7016  -39.8869 H         1 UNK         0.0600 
    179 H179        3.2465  -12.9099  -41.3852 H         1 UNK         0.3000 
    180 H180        0.4426  -12.1332  -43.6178 H         1 UNK         0.0600 
    181 H181        0.1953   -9.6574  -43.8668 H         1 UNK         0.0600 
    182 H182        1.9380   -9.4335  -43.7484 H         1 UNK         0.0600 
    183 H183        1.0169   -9.9502  -42.3485 H         1 UNK         0.0600 
    184 H184        2.5334  -11.7583  -45.5411 H         1 UNK         0.3000 
    185 H185        0.2384  -11.3108  -48.3222 H         1 UNK         0.0600 
    186 H186        2.1182   -9.8755  -48.9807 H         1 UNK         0.0600 
    187 H187        1.2802   -9.1507  -47.6189 H         1 UNK         0.0600 
    188 H188        2.8168   -9.9684  -47.3643 H         1 UNK         0.0600 
    189 H189        2.9146  -12.2227  -48.3664 H         1 UNK         0.3000 
    190 H190       -2.1257  -21.6496  -44.9719 H         1 UNK         0.3000 
    191 H191       -4.0976  -23.4650  -45.9412 H         1 UNK         0.0600 
    192 H192       -4.1717  -22.4879  -43.6686 H         1 UNK         0.0600 
    193 H193       -4.1522  -24.2428  -43.5719 H         1 UNK         0.0600 
    194 H194       -2.6907  -23.3288  -43.2214 H         1 UNK         0.0600 
    195 H195       -0.7357  -24.0197  -44.7625 H         1 UNK         0.3000 
    196 H196       -0.7159  -26.8235  -45.0453 H         1 UNK         0.0600 
    197 H197        1.7547  -26.5741  -44.8584 H         1 UNK         0.0600 
    198 H198        0.9321  -25.5494  -43.6918 H         1 UNK         0.0600 
    199 H199        1.6193  -24.8461  -45.1555 H         1 UNK         0.0600 
    200 H200        0.1101  -24.2894  -47.4265 H         1 UNK         0.3000 
    201 H201        1.0212  -26.0609  -49.4938 H         1 UNK         0.0600 
    202 H202        0.8171  -23.9941  -50.9022 H         1 UNK         0.0600 
    203 H203        1.6481  -23.6592  -49.3926 H         1 UNK         0.0600 
    204 H204       -0.0365  -23.1816  -49.5964 H         1 UNK         0.0600 
    205 H205       -2.1287  -25.4613  -48.3050 H         1 UNK         0.3000 
    206 H206       -4.2174  -25.7846  -48.9361 H         1 UNK         0.0600 
    207 H207       -3.4712  -28.1252  -49.4341 H         1 UNK         0.0600 
    208 H208       -4.7948  -27.6190  -50.4723 H         1 UNK         0.0600 
    209 H209       -3.1584  -27.6713  -51.1091 H         1 UNK         0.0600 
    210 H210       -3.0767  -23.4770  -49.7329 H         1 UNK         0.3000 
    211 H211       -3.0514  -22.7942  -52.4310 H         1 UNK         0.0600 
    212 H212       -3.5591  -21.0651  -49.9686 H         1 UNK         0.0600 
    213 H213       -3.0115  -20.4660  -51.5274 H         1 UNK         0.0600 
    214 H214       -1.9679  -21.5174  -50.5842 H         1 UNK         0.0600 
    215 H215       -5.8116  -23.1321  -50.3862 H         1 UNK         0.3000 
    216 H216       -7.7451  -21.4578  -51.5302 H         1 UNK         0.0600 
    217 H217       -8.0456  -24.2202  -50.2388 H         1 UNK         0.0600 
    218 H218       -9.3537  -23.0715  -50.4975 H         1 UNK         0.0600 
    219 H219       -8.0486  -22.6712  -49.3935 H         1 UNK         0.0600 
    220 H220       -6.3672  -24.4217  -52.8127 H         1 UNK         0.3000 
    221 H221       -8.3325  -25.0894  -54.7646 H         1 UNK         0.0600 
    222 H222       -5.2973  -25.5324  -54.7306 H         1 UNK         0.0600 
    223 H223       -6.5070  -26.6226  -54.0562 H         1 UNK         0.0600 
    224 H224       -6.4350  -26.3565  -55.7917 H         1 UNK         0.0600 
    225 H225       -6.0471  -22.4546  -54.6278 H         1 UNK         0.3000 
    226 H226       -6.9135  -21.4959  -57.3036 H         1 UNK         0.0600 
    227 H227       -4.6054  -22.3712  -57.5845 H         1 UNK         0.0600 
    228 H228       -4.5854  -20.6168  -57.6506 H         1 UNK         0.0600 
    229 H229       -4.0581  -21.4503  -56.1886 H         1 UNK         0.0600 
    230 H230       -8.0559  -21.0932  -54.7556 H         1 UNK         0.3000 
    231 H231       -8.9874  -19.6079  -53.4693 H         1 UNK         0.0600 
    232 H232       -7.7951  -17.4067  -55.2357 H         1 UNK         0.0600 
    233 H233       -9.0767  -17.2059  -54.0523 H         1 UNK         0.0600 
    234 H234       -9.3501  -18.2011  -55.4738 H         1 UNK         0.0600 
    235 H235       -5.7184  -18.3796  -54.1731 H         1 UNK         0.3000 
    236 H236       -4.7152  -18.7714  -51.5338 H         1 UNK         0.0600 
    237 H237       -5.2618  -15.8498  -52.3134 H         1 UNK         0.0600 
    238 H238       -6.0101  -16.7112  -50.9701 H         1 UNK         0.0600 
    239 H239       -4.2948  -16.3659  -50.9367 H         1 UNK         0.0600 
    240 H240       -3.9719  -19.7824  -53.9186 H         1 UNK         0.3000 
    241 H241       -2.3757  -20.0705  -55.4341 H         1 UNK         0.0600 
    242 H242       -3.5673  -17.0498  -57.2732 H         1 UNK         0.3800 
    243 H243       -4.3504  -18.2044  -56.2208 H         1 UNK         0.3800 
    244 H244       -0.5927  -18.3401  -53.6606 H         1 UNK         0.0800 
    245 H245       -0.0278  -19.2135  -55.0578 H         1 UNK         0.0800 
    246 H246        1.4620  -21.2975  -52.1649 H         1 UNK         0.0800 
    247 H247        1.6825  -19.8481  -53.1129 H         1 UNK         0.0800 
@<TRIPOS>BOND
     1    1    2 1    
     2    1  127 1    
     3    1  128 1    
     4    1  129 1    
     5    2    3 2    
     6    2    4 am   BACKBONE|DICT|INTERRES
     7    4    5 1    
     8    4  130 1    
     9    5    6 1    
    10    5   65 1    
    11    5  131 1    
    12    6    7 1    
    13    6  132 1    
    14    6  133 1    
    15    7    8 1    
    16    8    9 1    
    17    8  134 1    
    18    8  135 1    
    19    9   10 ar   
    20    9   14 ar   
    21   10   11 ar   
    22   10  136 1    
    23   11   12 ar   
    24   11  126 1    
    25   12   13 ar   
    26   12  137 1    
    27   13   14 ar   
    28   13   15 1    
    29   14  138 1    
    30   15   16 1    
    31   15  139 1    
    32   15  140 1    
    33   16   17 1    
    34   17   18 1    
    35   17  141 1    
    36   17  142 1    
    37   18   19 1    
    38   18   67 1    
    39   18  143 1    
    40   19   20 am   BACKBONE|DICT|INTERRES
    41   19  144 1    
    42   20   21 2    
    43   20   22 1    
    44   22   23 1    
    45   22   24 1    
    46   22  145 1    
    47   23  146 1    
    48   23  147 1    
    49   23  148 1    
    50   24   25 am   BACKBONE|DICT|INTERRES
    51   24  149 1    
    52   25   26 2    
    53   25   27 1    
    54   27   28 1    
    55   27   29 1    
    56   27  150 1    
    57   28  151 1    
    58   28  152 1    
    59   28  153 1    
    60   29   30 am   BACKBONE|DICT|INTERRES
    61   29  154 1    
    62   30   31 2    
    63   30   32 1    
    64   32   33 1    
    65   32   34 1    
    66   32  155 1    
    67   33  156 1    
    68   33  157 1    
    69   33  158 1    
    70   34   35 am   BACKBONE|DICT|INTERRES
    71   34  159 1    
    72   35   36 2    
    73   35   37 1    
    74   37   38 1    
    75   37   39 1    
    76   37  160 1    
    77   38  161 1    
    78   38  162 1    
    79   38  163 1    
    80   39   40 am   BACKBONE|DICT|INTERRES
    81   39  164 1    
    82   40   41 2    
    83   40   42 1    
    84   42   43 1    
    85   42   44 1    
    86   42  165 1    
    87   43  166 1    
    88   43  167 1    
    89   43  168 1    
    90   44   45 am   BACKBONE|DICT|INTERRES
    91   44  169 1    
    92   45   46 2    
    93   45   47 1    
    94   47   48 1    
    95   47   49 1    
    96   47  170 1    
    97   48  171 1    
    98   48  172 1    
    99   48  173 1    
   100   49   50 am   BACKBONE|DICT|INTERRES
   101   49  174 1    
   102   50   51 2    
   103   50   52 1    
   104   52   53 1    
   105   52   54 1    
   106   52  175 1    
   107   53  176 1    
   108   53  177 1    
   109   53  178 1    
   110   54   55 am   BACKBONE|DICT|INTERRES
   111   54  179 1    
   112   55   56 2    
   113   55   57 1    
   114   57   58 1    
   115   57   59 1    
   116   57  180 1    
   117   58  181 1    
   118   58  182 1    
   119   58  183 1    
   120   59   60 am   BACKBONE|DICT|INTERRES
   121   59  184 1    
   122   60   61 2    
   123   60   62 1    
   124   62   63 1    
   125   62   64 1    
   126   62  185 1    
   127   63  186 1    
   128   63  187 1    
   129   63  188 1    
   130   64   65 am   BACKBONE|DICT|INTERRES
   131   64  189 1    
   132   65   66 2    
   133   67   68 2    
   134   67   69 am   BACKBONE|DICT|INTERRES
   135   69   70 1    
   136   69  190 1    
   137   70   71 1    
   138   70   72 1    
   139   70  191 1    
   140   71  192 1    
   141   71  193 1    
   142   71  194 1    
   143   72   73 2    
   144   72   74 am   BACKBONE|DICT|INTERRES
   145   74   75 1    
   146   74  195 1    
   147   75   76 1    
   148   75   77 1    
   149   75  196 1    
   150   76  197 1    
   151   76  198 1    
   152   76  199 1    
   153   77   78 2    
   154   77   79 am   BACKBONE|DICT|INTERRES
   155   79   80 1    
   156   79  200 1    
   157   80   81 1    
   158   80   82 1    
   159   80  201 1    
   160   81  202 1    
   161   81  203 1    
   162   81  204 1    
   163   82   83 2    
   164   82   84 am   BACKBONE|DICT|INTERRES
   165   84   85 1    
   166   84  205 1    
   167   85   86 1    
   168   85   87 1    
   169   85  206 1    
   170   86  207 1    
   171   86  208 1    
   172   86  209 1    
   173   87   88 2    
   174   87   89 am   BACKBONE|DICT|INTERRES
   175   89   90 1    
   176   89  210 1    
   177   90   91 1    
   178   90   92 1    
   179   90  211 1    
   180   91  212 1    
   181   91  213 1    
   182   91  214 1    
   183   92   93 2    
   184   92   94 am   BACKBONE|DICT|INTERRES
   185   94   95 1    
   186   94  215 1    
   187   95   96 1    
   188   95   97 1    
   189   95  216 1    
   190   96  217 1    
   191   96  218 1    
   192   96  219 1    
   193   97   98 2    
   194   97   99 am   BACKBONE|DICT|INTERRES
   195   99  100 1    
   196   99  220 1    
   197  100  101 1    
   198  100  102 1    
   199  100  221 1    
   200  101  222 1    
   201  101  223 1    
   202  101  224 1    
   203  102  103 2    
   204  102  104 am   BACKBONE|DICT|INTERRES
   205  104  105 1    
   206  104  225 1    
   207  105  106 1    
   208  105  107 1    
   209  105  226 1    
   210  106  227 1    
   211  106  228 1    
   212  106  229 1    
   213  107  108 2    
   214  107  109 am   BACKBONE|DICT|INTERRES
   215  109  110 1    
   216  109  230 1    
   217  110  111 1    
   218  110  112 1    
   219  110  231 1    
   220  111  232 1    
   221  111  233 1    
   222  111  234 1    
   223  112  113 2    
   224  112  114 am   BACKBONE|DICT|INTERRES
   225  114  115 1    
   226  114  235 1    
   227  115  116 1    
   228  115  117 1    
   229  115  236 1    
   230  116  237 1    
   231  116  238 1    
   232  116  239 1    
   233  117  118 2    
   234  117  119 am   BACKBONE|DICT|INTERRES
   235  119  120 1    
   236  119  240 1    
   237  120  121 1    
   238  120  124 1    
   239  120  241 1    
   240  121  122 am   BACKBONE|DICT|INTERRES
   241  121  123 2    
   242  122  242 1    
   243  122  243 1    
   244  124  125 1    
   245  124  244 1    
   246  124  245 1    
   247  125  126 1    
   248  126  246 1    
   249  126  247 1    
@<TRIPOS>SUBSTRUCTURE
     1 UNK         1 GROUP             0       ****    0 ROOT    
