@<TRIPOS>MOLECULE
3R540
247   249    1
SMALL
USER_CHARGES


@<TRIPOS>ATOM
      1 CA         -1.7755  -12.5516  -47.0434 C.3       0 UNK        -0.1800 
      2 C          -0.4180  -12.4526  -47.7247 C.2       0 UNK         0.5000 
      3 O          -0.1309  -11.4512  -48.3799 O.2       0 UNK        -0.5000 
      4 N           0.4133  -13.4905  -47.5758 N.am      1 UNK        -0.5000 
      5 CA          1.7672  -13.5674  -48.1280 C.3       1 UNK         0.1400 
      6 C6          2.2792  -15.0338  -48.1833 C.3       23 UNK        -0.0398 
      7 S7          3.1225  -15.4307  -49.7509 S.3       23 UNK        -0.2404 
      8 C8          1.7245  -15.5932  -50.9137 C.3       23 UNK        -0.0205 
      9 C9          0.7435  -16.6837  -50.5087 C.ar      23 UNK        -0.0193 
     10 C10        -0.4365  -16.3513  -49.8384 C.ar      23 UNK        -0.1150 
     11 C11        -1.3533  -17.3400  -49.4623 C.ar      23 UNK        -0.0193 
     12 C12        -1.0660  -18.6760  -49.7611 C.ar      23 UNK        -0.1150 
     13 C13         0.1126  -19.0233  -50.4308 C.ar      23 UNK        -0.0193 
     14 C14         1.0096  -18.0210  -50.8085 C.ar      23 UNK        -0.1150 
     15 C15         0.4165  -20.4798  -50.7530 C.3       23 UNK        -0.0205 
     16 S16         1.8341  -21.1371  -49.8101 S.3       23 UNK        -0.2404 
     17 C17         1.3050  -20.9164  -48.0765 C.3       23 UNK        -0.0398 
     18 CA          0.6653  -22.1783  -47.4505 C.3       11 UNK         0.1400 
     19 N           0.6106  -22.0893  -45.9895 N.am      11 UNK        -0.5000 
     20 C           0.2249  -23.0768  -45.1682 C.2       10 UNK         0.5000 
     21 O          -0.0652  -24.2104  -45.5492 O.2       10 UNK        -0.5000 
     22 CA          0.0842  -22.7217  -43.6761 C.3       10 UNK         0.1400 
     23 CB          1.4505  -22.7359  -42.9757 C.3       10 UNK        -0.1800 
     24 N          -0.5634  -21.4250  -43.4706 N.am      10 UNK        -0.5000 
     25 C          -1.8206  -21.1383  -43.8386 C.2       9 UNK         0.5000 
     26 O          -2.5925  -21.9599  -44.3312 O.2       9 UNK        -0.5000 
     27 CA         -2.2729  -19.6760  -43.6848 C.3       9 UNK         0.1400 
     28 CB         -2.7322  -19.3836  -42.2484 C.3       9 UNK        -0.1800 
     29 N          -1.2226  -18.7347  -44.0729 N.am      9 UNK        -0.5000 
     30 C          -0.7765  -18.5774  -45.3272 C.2       8 UNK         0.5000 
     31 O          -1.2333  -19.1821  -46.2965 O.2       8 UNK        -0.5000 
     32 CA          0.4127  -17.6203  -45.5169 C.3       8 UNK         0.1400 
     33 CB         -0.0661  -16.1612  -45.5613 C.3       8 UNK        -0.1800 
     34 N           1.4072  -17.7736  -44.4539 N.am      8 UNK        -0.5000 
     35 C           2.1872  -18.8554  -44.3040 C.2       7 UNK         0.5000 
     36 O           2.1688  -19.8143  -45.0737 O.2       7 UNK        -0.5000 
     37 CA          3.1090  -18.9046  -43.0683 C.3       7 UNK         0.1400 
     38 CB          4.4704  -18.2723  -43.3921 C.3       7 UNK        -0.1800 
     39 N           2.5412  -18.2417  -41.8947 N.am      7 UNK        -0.5000 
     40 C           1.3814  -18.5676  -41.3072 C.2       6 UNK         0.5000 
     41 O           0.7146  -19.5521  -41.6256 O.2       6 UNK        -0.5000 
     42 CA          0.8431  -17.6035  -40.2283 C.3       6 UNK         0.1400 
     43 CB          1.0978  -18.1761  -38.8263 C.3       6 UNK        -0.1800 
     44 N           1.3854  -16.2385  -40.2946 N.am      6 UNK        -0.5000 
     45 C           1.3104  -15.4158  -41.3510 C.2       5 UNK         0.5000 
     46 O           0.7912  -15.7348  -42.4238 O.2       5 UNK        -0.5000 
     47 CA          1.9956  -14.0441  -41.1942 C.3       5 UNK         0.1400 
     48 CB          3.5232  -14.2077  -41.1138 C.3       5 UNK        -0.1800 
     49 N           1.6956  -13.1526  -42.3120 N.am      5 UNK        -0.5000 
     50 C           0.5295  -12.5287  -42.5212 C.2       4 UNK         0.5000 
     51 O          -0.4222  -12.5705  -41.7389 O.2       4 UNK        -0.5000 
     52 CA          0.4386  -11.7208  -43.8317 C.3       4 UNK         0.1400 
     53 CB         -0.7729  -10.7667  -43.8896 C.3       4 UNK        -0.1800 
     54 N           1.6956  -11.0255  -44.1337 N.am      4 UNK        -0.5000 
     55 C           2.2500  -10.0068  -43.4569 C.2       3 UNK         0.5000 
     56 O           1.7109   -9.4474  -42.5012 O.2       3 UNK        -0.5000 
     57 CA          3.6590   -9.5423  -43.8880 C.3       3 UNK         0.1400 
     58 CB          4.6695   -9.7669  -42.7504 C.3       3 UNK        -0.1800 
     59 N           4.1650  -10.2132  -45.0869 N.am      3 UNK        -0.5000 
     60 C           3.8086   -9.9345  -46.3470 C.2       2 UNK         0.5000 
     61 O           3.0195   -9.0397  -46.6527 O.2       2 UNK        -0.5000 
     62 CA          4.4153  -10.8216  -47.4563 C.3       2 UNK         0.1400 
     63 CB          5.6986  -11.5696  -47.0285 C.3       2 UNK        -0.1800 
     64 N           3.4371  -11.7696  -48.0006 N.am      2 UNK        -0.5000 
     65 C           2.7178  -12.6699  -47.3149 C.2       1 UNK         0.5000 
     66 O           2.7815  -12.8231  -46.0921 O.2       1 UNK        -0.5000 
     67 C          -0.7247  -22.4714  -48.0494 C.2       11 UNK         0.5000 
     68 O          -0.8513  -23.3924  -48.8554 O.2       11 UNK        -0.5000 
     69 N          -1.7466  -21.7158  -47.6198 N.am      12 UNK        -0.5000 
     70 CA         -3.1385  -21.8997  -48.0331 C.3       12 UNK         0.1400 
     71 CB         -4.0104  -20.7836  -47.4411 C.3       12 UNK        -0.1800 
     72 C          -3.6939  -23.2858  -47.6597 C.2       12 UNK         0.5000 
     73 O          -4.3562  -23.9104  -48.4872 O.2       12 UNK        -0.5000 
     74 N          -3.3791  -23.7606  -46.4464 N.am      13 UNK        -0.5000 
     75 CA         -3.7257  -25.0965  -45.9620 C.3       13 UNK         0.1400 
     76 CB         -3.3856  -25.2141  -44.4688 C.3       13 UNK        -0.1800 
     77 C          -3.0482  -26.2156  -46.7735 C.2       13 UNK         0.5000 
     78 O          -3.7239  -27.1670  -47.1657 O.2       13 UNK        -0.5000 
     79 N          -1.7450  -26.0644  -47.0528 N.am      14 UNK        -0.5000 
     80 CA         -0.9558  -26.9846  -47.8783 C.3       14 UNK         0.1400 
     81 CB          0.5276  -26.5915  -47.8095 C.3       14 UNK        -0.1800 
     82 C          -1.4364  -27.0461  -49.3414 C.2       14 UNK         0.5000 
     83 O          -1.4468  -28.1238  -49.9367 O.2       14 UNK        -0.5000 
     84 N          -1.8632  -25.8957  -49.8766 N.am      15 UNK        -0.5000 
     85 CA         -2.4730  -25.7455  -51.1981 C.3       15 UNK         0.1400 
     86 CB         -2.4054  -24.2602  -51.5921 C.3       15 UNK        -0.1800 
     87 C          -3.9313  -26.2446  -51.2735 C.2       15 UNK         0.5000 
     88 O          -4.4933  -26.2720  -52.3703 O.2       15 UNK        -0.5000 
     89 N          -4.5366  -26.5697  -50.1182 N.am      16 UNK        -0.5000 
     90 CA         -5.9540  -26.9002  -49.9165 C.3       16 UNK         0.1400 
     91 CB         -6.2774  -28.2809  -50.5220 C.3       16 UNK        -0.1800 
     92 C          -6.8868  -25.7826  -50.4322 C.2       16 UNK         0.5000 
     93 O          -7.9377  -26.0621  -51.0136 O.2       16 UNK        -0.5000 
     94 N          -6.4313  -24.5325  -50.2645 N.am      17 UNK        -0.5000 
     95 CA         -6.8820  -23.2851  -50.8812 C.3       17 UNK         0.1400 
     96 CB         -8.3169  -22.9215  -50.4564 C.3       17 UNK        -0.1800 
     97 C          -6.7171  -23.2735  -52.4134 C.2       17 UNK         0.5000 
     98 O          -6.0055  -22.4196  -52.9390 O.2       17 UNK        -0.5000 
     99 N          -7.3707  -24.2185  -53.0978 N.am      18 UNK        -0.5000 
    100 CA        -7.5756  -24.2873  -54.5453 C.3       18 UNK         0.1400 
    101 CB        -8.3309  -25.5847  -54.8714 C.3       18 UNK        -0.1800 
    102 C         -6.3161  -24.1707  -55.4249 C.2       18 UNK         0.5000 
    103 O         -6.4101  -23.6157  -56.5207 O.2       18 UNK        -0.5000 
    104 N         -5.1708  -24.6860  -54.9563 N.am      19 UNK        -0.5000 
    105 CA        -3.9242  -24.6912  -55.7263 C.3       19 UNK         0.1400 
    106 CB        -3.0285  -25.8450  -55.2472 C.3       19 UNK        -0.1800 
    107 C         -3.1566  -23.3526  -55.7039 C.2       19 UNK         0.5000 
    108 O         -2.2124  -23.2131  -56.4835 O.2       19 UNK        -0.5000 
    109 N         -3.5348  -22.4063  -54.8298 N.am      20 UNK        -0.5000 
    110 CA        -2.8177  -21.1358  -54.6569 C.3       20 UNK         0.1400 
    111 CB        -1.8531  -21.2558  -53.4652 C.3       20 UNK        -0.1800 
    112 C         -3.7273  -19.9114  -54.4684 C.2       20 UNK         0.5000 
    113 O         -3.2711  -18.7949  -54.7291 O.2       20 UNK        -0.5000 
    114 N         -4.9633  -20.1170  -53.9864 N.am      21 UNK        -0.5000 
    115 CA        -5.8967  -19.1058  -53.4822 C.3       21 UNK         0.1400 
    116 CB        -6.4232  -18.2069  -54.6236 C.3       21 UNK        -0.1800 
    117 C         -5.2421  -18.3440  -52.3140 C.2       21 UNK         0.5000 
    118 O         -5.1521  -18.8870  -51.2119 O.2       21 UNK        -0.5000 
    119 N         -4.7270  -17.1470  -52.5998 N.am      22 UNK        -0.5000 
    120 CA        -3.7549  -16.4313  -51.7705 C.3       22 UNK         0.1400 
    121 C         -2.7940  -15.5834  -52.6525 C.2       22 UNK         0.5000 
    122 N         -2.4272  -16.0623  -53.8378 N.am      22 UNK        -0.7600 
    123 O         -2.3890  -14.4836  -52.2882 O.2       22 UNK        -0.5000 
    124 C124       -4.4236  -15.6827  -50.5831 C.3       23 UNK        -0.0398 
    125 S125       -3.3504  -15.3557  -49.1371 S.3       23 UNK        -0.2404 
    126 C126       -2.6511  -16.9963  -48.7274 C.3       23 UNK        -0.0205 
    127 H127       -1.8384  -13.4181  -46.3846 H         1 UNK         0.0600 
    128 H128       -2.5626  -12.6353  -47.7926 H         1 UNK         0.0600 
    129 H129       -1.9675  -11.6580  -46.4508 H         1 UNK         0.0600 
    130 H130        0.1322  -14.2651  -46.9948 H         1 UNK         0.3000 
    131 H131        1.7120  -13.1725  -49.1446 H         1 UNK         0.0600 
    132 H132        2.9639  -15.2619  -47.3636 H         1 UNK         0.0800 
    133 H133        1.4656  -15.7443  -48.0514 H         1 UNK         0.0800 
    134 H134        1.2096  -14.6356  -51.0041 H         1 UNK         0.0800 
    135 H135        2.1194  -15.8140  -51.9064 H         1 UNK         0.0800 
    136 H136       -0.6351  -15.3139  -49.6117 H         1 UNK         0.1150 
    137 H137       -1.7623  -19.4487  -49.4677 H         1 UNK         0.1150 
    138 H138        1.9221  -18.2844  -51.3248 H         1 UNK         0.1150 
    139 H139       -0.4598  -21.1068  -50.5850 H         1 UNK         0.0800 
    140 H140        0.6456  -20.5643  -51.8158 H         1 UNK         0.0800 
    141 H141        0.6555  -20.0476  -47.9755 H         1 UNK         0.0800 
    142 H142        2.2109  -20.6641  -47.5254 H         1 UNK         0.0800 
    143 H143        1.3065  -23.0309  -47.6842 H         1 UNK         0.0600 
    144 H144        0.8926  -21.2021  -45.5841 H         1 UNK         0.3000 
    145 H145       -0.5440  -23.4833  -43.2097 H         1 UNK         0.0600 
    146 H146        1.9185  -23.7177  -43.0573 H         1 UNK         0.0600 
    147 H147        2.1355  -22.0101  -43.4127 H         1 UNK         0.0600 
    148 H148        1.3529  -22.5076  -41.9141 H         1 UNK         0.0600 
    149 H149       -0.0155  -20.7035  -43.0110 H         1 UNK         0.3000 
    150 H150       -3.1257  -19.5203  -44.3489 H         1 UNK         0.0600 
    151 H151       -3.0927  -18.3595  -42.1505 H         1 UNK         0.0600 
    152 H152       -1.9296  -19.5274  -41.5253 H         1 UNK         0.0600 
    153 H153       -3.5510  -20.0449  -41.9620 H         1 UNK         0.0600 
    154 H154       -0.7637  -18.2288  -43.3297 H         1 UNK         0.3000 
    155 H155        0.8912  -17.8544  -46.4706 H         1 UNK         0.0600 
    156 H156       -0.6720  -15.9064  -44.6908 H         1 UNK         0.0600 
    157 H157       -0.6752  -15.9812  -46.4469 H         1 UNK         0.0600 
    158 H158        0.7781  -15.4723  -45.5848 H         1 UNK         0.0600 
    159 H159        1.4273  -17.0433  -43.7481 H         1 UNK         0.3000 
    160 H160        3.2690  -19.9535  -42.8128 H         1 UNK         0.0600 
    161 H161        4.9322  -18.7594  -44.2520 H         1 UNK         0.0600 
    162 H162        4.3760  -17.2112  -43.6271 H         1 UNK         0.0600 
    163 H163        5.1612  -18.3713  -42.5546 H         1 UNK         0.0600 
    164 H164        3.0219  -17.4189  -41.5641 H         1 UNK         0.3000 
    165 H165       -0.2362  -17.5324  -40.3772 H         1 UNK         0.0600 
    166 H166        0.6312  -17.5606  -38.0570 H         1 UNK         0.0600 
    167 H167        0.6819  -19.1803  -38.7320 H         1 UNK         0.0600 
    168 H168        2.1641  -18.2404  -38.6062 H         1 UNK         0.0600 
    169 H169        1.8438  -15.9071  -39.4579 H         1 UNK         0.3000 
    170 H170        1.6372  -13.5835  -40.2714 H         1 UNK         0.0600 
    171 H171        4.0166  -13.2413  -41.0065 H         1 UNK         0.0600 
    172 H172        3.8155  -14.8121  -40.2544 H         1 UNK         0.0600 
    173 H173        3.9243  -14.6897  -42.0066 H         1 UNK         0.0600 
    174 H174        2.4013  -13.0834  -43.0301 H         1 UNK         0.3000 
    175 H175        0.3079  -12.4575  -44.6252 H         1 UNK         0.0600 
    176 H176       -0.7802  -10.0625  -43.0576 H         1 UNK         0.0600 
    177 H177       -0.7779  -10.1916  -44.8155 H         1 UNK         0.0600 
    178 H178       -1.7081  -11.3259  -43.8475 H         1 UNK         0.0600 
    179 H179        2.2381  -11.4445  -44.8844 H         1 UNK         0.3000 
    180 H180        3.6002   -8.4702  -44.0862 H         1 UNK         0.0600 
    181 H181        4.3675   -9.2382  -41.8454 H         1 UNK         0.0600 
    182 H182        5.6589   -9.3986  -43.0225 H         1 UNK         0.0600 
    183 H183        4.7614  -10.8239  -42.4971 H         1 UNK         0.0600 
    184 H184        4.7958  -10.9869  -44.9340 H         1 UNK         0.3000 
    185 H185        4.6851  -10.1479  -48.2709 H         1 UNK         0.0600 
    186 H186        6.4463  -10.8775  -46.6387 H         1 UNK         0.0600 
    187 H187        5.5077  -12.3220  -46.2626 H         1 UNK         0.0600 
    188 H188        6.1498  -12.0795  -47.8798 H         1 UNK         0.0600 
    189 H189        3.2817  -11.6962  -48.9964 H         1 UNK         0.3000 
    190 H190       -1.5598  -20.9477  -46.9804 H         1 UNK         0.3000 
    191 H191       -3.1711  -21.8113  -49.1209 H         1 UNK         0.0600 
    192 H192       -4.0296  -20.8200  -46.3520 H         1 UNK         0.0600 
    193 H193       -5.0398  -20.8663  -47.7920 H         1 UNK         0.0600 
    194 H194       -3.6449  -19.8004  -47.7339 H         1 UNK         0.0600 
    195 H195       -2.8771  -23.1574  -45.8003 H         1 UNK         0.3000 
    196 H196       -4.8056  -25.2169  -46.0712 H         1 UNK         0.0600 
    197 H197       -3.6568  -26.1973  -44.0826 H         1 UNK         0.0600 
    198 H198       -3.9286  -24.4727  -43.8824 H         1 UNK         0.0600 
    199 H199       -2.3211  -25.0703  -44.2837 H         1 UNK         0.0600 
    200 H200       -1.2489  -25.2671  -46.6633 H         1 UNK         0.3000 
    201 H201       -1.0618  -27.9851  -47.4540 H         1 UNK         0.0600 
    202 H202        0.8969  -26.6262  -46.7844 H         1 UNK         0.0600 
    203 H203        0.6952  -25.5837  -48.1905 H         1 UNK         0.0600 
    204 H204        1.1411  -27.2731  -48.4000 H         1 UNK         0.0600 
    205 H205       -1.7412  -25.0406  -49.3400 H         1 UNK         0.3000 
    206 H206       -1.8913  -26.3229  -51.9190 H         1 UNK         0.0600 
    207 H207       -2.8538  -24.0832  -52.5687 H         1 UNK         0.0600 
    208 H208       -2.9370  -23.6318  -50.8774 H         1 UNK         0.0600 
    209 H209       -1.3737  -23.9114  -51.6400 H         1 UNK         0.0600 
    210 H210       -3.9908  -26.4979  -49.2687 H         1 UNK         0.3000 
    211 H211       -6.1090  -26.9601  -48.8385 H         1 UNK         0.0600 
    212 H212       -6.1931  -28.2760  -51.6092 H         1 UNK         0.0600 
    213 H213       -7.2938  -28.5885  -50.2737 H         1 UNK         0.0600 
    214 H214       -5.6038  -29.0463  -50.1367 H         1 UNK         0.0600 
    215 H215       -5.5737  -24.4326  -49.7225 H         1 UNK         0.3000 
    216 H216       -6.2209  -22.5098  -50.4900 H         1 UNK         0.0600 
    217 H217       -8.6046  -21.9496  -50.8591 H         1 UNK         0.0600 
    218 H218       -8.4001  -22.8610  -49.3713 H         1 UNK         0.0600 
    219 H219       -9.0495  -23.6482  -50.8076 H         1 UNK         0.0600 
    220 H220       -7.8450  -24.9258  -52.5432 H         1 UNK         0.3000 
    221 H221       -8.2213  -23.4470  -54.8075 H         1 UNK         0.0600 
    222 H222       -7.7587  -26.4645  -54.5740 H         1 UNK         0.0600 
    223 H223       -9.2924  -25.6216  -54.3589 H         1 UNK         0.0600 
    224 H224       -8.5305  -25.6667  -55.9408 H         1 UNK         0.0600 
    225 H225       -5.1541  -25.1336  -54.0454 H         1 UNK         0.3000 
    226 H226       -4.1692  -24.8943  -56.7712 H         1 UNK         0.0600 
    227 H227       -3.5675  -26.7926  -55.2468 H         1 UNK         0.0600 
    228 H228       -2.1646  -25.9641  -55.9021 H         1 UNK         0.0600 
    229 H229       -2.6484  -25.6746  -54.2421 H         1 UNK         0.0600 
    230 H230       -4.3341  -22.5813  -54.2325 H         1 UNK         0.3000 
    231 H231       -2.2251  -20.9199  -55.5483 H         1 UNK         0.0600 
    232 H232       -2.3884  -21.4503  -52.5350 H         1 UNK         0.0600 
    233 H233       -1.1331  -22.0601  -53.6159 H         1 UNK         0.0600 
    234 H234       -1.2870  -20.3334  -53.3296 H         1 UNK         0.0600 
    235 H235       -5.2386  -21.0646  -53.7384 H         1 UNK         0.3000 
    236 H236       -6.7488  -19.6441  -53.0644 H         1 UNK         0.0600 
    237 H237       -5.6282  -17.6747  -55.1458 H         1 UNK         0.0600 
    238 H238       -6.9579  -18.8011  -55.3647 H         1 UNK         0.0600 
    239 H239       -7.1241  -17.4636  -54.2418 H         1 UNK         0.0600 
    240 H240       -4.8254  -16.7932  -53.5413 H         1 UNK         0.3000 
    241 H241       -3.1076  -17.2045  -51.3649 H         1 UNK         0.0600 
    242 H242       -1.8110  -15.5155  -54.4178 H         1 UNK         0.3800 
    243 H243       -2.7084  -16.9897  -54.1443 H         1 UNK         0.3800 
    244 H244       -5.2683  -16.2615  -50.2079 H         1 UNK         0.0800 
    245 H245       -4.8483  -14.7376  -50.9241 H         1 UNK         0.0800 
    246 H246       -2.4568  -17.0325  -47.6558 H         1 UNK         0.0800 
    247 H247       -3.4102  -17.7546  -48.9245 H         1 UNK         0.0800 
@<TRIPOS>BOND
     1    1    2 1    
     2    1  127 1    
     3    1  128 1    
     4    1  129 1    
     5    2    3 2    
     6    2    4 am   BACKBONE|DICT|INTERRES
     7    4    5 1    
     8    4  130 1    
     9    5    6 1    
    10    5   65 1    
    11    5  131 1    
    12    6    7 1    
    13    6  132 1    
    14    6  133 1    
    15    7    8 1    
    16    8    9 1    
    17    8  134 1    
    18    8  135 1    
    19    9   10 ar   
    20    9   14 ar   
    21   10   11 ar   
    22   10  136 1    
    23   11   12 ar   
    24   11  126 1    
    25   12   13 ar   
    26   12  137 1    
    27   13   14 ar   
    28   13   15 1    
    29   14  138 1    
    30   15   16 1    
    31   15  139 1    
    32   15  140 1    
    33   16   17 1    
    34   17   18 1    
    35   17  141 1    
    36   17  142 1    
    37   18   19 1    
    38   18   67 1    
    39   18  143 1    
    40   19   20 am   BACKBONE|DICT|INTERRES
    41   19  144 1    
    42   20   21 2    
    43   20   22 1    
    44   22   23 1    
    45   22   24 1    
    46   22  145 1    
    47   23  146 1    
    48   23  147 1    
    49   23  148 1    
    50   24   25 am   BACKBONE|DICT|INTERRES
    51   24  149 1    
    52   25   26 2    
    53   25   27 1    
    54   27   28 1    
    55   27   29 1    
    56   27  150 1    
    57   28  151 1    
    58   28  152 1    
    59   28  153 1    
    60   29   30 am   BACKBONE|DICT|INTERRES
    61   29  154 1    
    62   30   31 2    
    63   30   32 1    
    64   32   33 1    
    65   32   34 1    
    66   32  155 1    
    67   33  156 1    
    68   33  157 1    
    69   33  158 1    
    70   34   35 am   BACKBONE|DICT|INTERRES
    71   34  159 1    
    72   35   36 2    
    73   35   37 1    
    74   37   38 1    
    75   37   39 1    
    76   37  160 1    
    77   38  161 1    
    78   38  162 1    
    79   38  163 1    
    80   39   40 am   BACKBONE|DICT|INTERRES
    81   39  164 1    
    82   40   41 2    
    83   40   42 1    
    84   42   43 1    
    85   42   44 1    
    86   42  165 1    
    87   43  166 1    
    88   43  167 1    
    89   43  168 1    
    90   44   45 am   BACKBONE|DICT|INTERRES
    91   44  169 1    
    92   45   46 2    
    93   45   47 1    
    94   47   48 1    
    95   47   49 1    
    96   47  170 1    
    97   48  171 1    
    98   48  172 1    
    99   48  173 1    
   100   49   50 am   BACKBONE|DICT|INTERRES
   101   49  174 1    
   102   50   51 2    
   103   50   52 1    
   104   52   53 1    
   105   52   54 1    
   106   52  175 1    
   107   53  176 1    
   108   53  177 1    
   109   53  178 1    
   110   54   55 am   BACKBONE|DICT|INTERRES
   111   54  179 1    
   112   55   56 2    
   113   55   57 1    
   114   57   58 1    
   115   57   59 1    
   116   57  180 1    
   117   58  181 1    
   118   58  182 1    
   119   58  183 1    
   120   59   60 am   BACKBONE|DICT|INTERRES
   121   59  184 1    
   122   60   61 2    
   123   60   62 1    
   124   62   63 1    
   125   62   64 1    
   126   62  185 1    
   127   63  186 1    
   128   63  187 1    
   129   63  188 1    
   130   64   65 am   BACKBONE|DICT|INTERRES
   131   64  189 1    
   132   65   66 2    
   133   67   68 2    
   134   67   69 am   BACKBONE|DICT|INTERRES
   135   69   70 1    
   136   69  190 1    
   137   70   71 1    
   138   70   72 1    
   139   70  191 1    
   140   71  192 1    
   141   71  193 1    
   142   71  194 1    
   143   72   73 2    
   144   72   74 am   BACKBONE|DICT|INTERRES
   145   74   75 1    
   146   74  195 1    
   147   75   76 1    
   148   75   77 1    
   149   75  196 1    
   150   76  197 1    
   151   76  198 1    
   152   76  199 1    
   153   77   78 2    
   154   77   79 am   BACKBONE|DICT|INTERRES
   155   79   80 1    
   156   79  200 1    
   157   80   81 1    
   158   80   82 1    
   159   80  201 1    
   160   81  202 1    
   161   81  203 1    
   162   81  204 1    
   163   82   83 2    
   164   82   84 am   BACKBONE|DICT|INTERRES
   165   84   85 1    
   166   84  205 1    
   167   85   86 1    
   168   85   87 1    
   169   85  206 1    
   170   86  207 1    
   171   86  208 1    
   172   86  209 1    
   173   87   88 2    
   174   87   89 am   BACKBONE|DICT|INTERRES
   175   89   90 1    
   176   89  210 1    
   177   90   91 1    
   178   90   92 1    
   179   90  211 1    
   180   91  212 1    
   181   91  213 1    
   182   91  214 1    
   183   92   93 2    
   184   92   94 am   BACKBONE|DICT|INTERRES
   185   94   95 1    
   186   94  215 1    
   187   95   96 1    
   188   95   97 1    
   189   95  216 1    
   190   96  217 1    
   191   96  218 1    
   192   96  219 1    
   193   97   98 2    
   194   97   99 am   BACKBONE|DICT|INTERRES
   195   99  100 1    
   196   99  220 1    
   197  100  101 1    
   198  100  102 1    
   199  100  221 1    
   200  101  222 1    
   201  101  223 1    
   202  101  224 1    
   203  102  103 2    
   204  102  104 am   BACKBONE|DICT|INTERRES
   205  104  105 1    
   206  104  225 1    
   207  105  106 1    
   208  105  107 1    
   209  105  226 1    
   210  106  227 1    
   211  106  228 1    
   212  106  229 1    
   213  107  108 2    
   214  107  109 am   BACKBONE|DICT|INTERRES
   215  109  110 1    
   216  109  230 1    
   217  110  111 1    
   218  110  112 1    
   219  110  231 1    
   220  111  232 1    
   221  111  233 1    
   222  111  234 1    
   223  112  113 2    
   224  112  114 am   BACKBONE|DICT|INTERRES
   225  114  115 1    
   226  114  235 1    
   227  115  116 1    
   228  115  117 1    
   229  115  236 1    
   230  116  237 1    
   231  116  238 1    
   232  116  239 1    
   233  117  118 2    
   234  117  119 am   BACKBONE|DICT|INTERRES
   235  119  120 1    
   236  119  240 1    
   237  120  121 1    
   238  120  124 1    
   239  120  241 1    
   240  121  122 am   BACKBONE|DICT|INTERRES
   241  121  123 2    
   242  122  242 1    
   243  122  243 1    
   244  124  125 1    
   245  124  244 1    
   246  124  245 1    
   247  125  126 1    
   248  126  246 1    
   249  126  247 1    
@<TRIPOS>SUBSTRUCTURE
     1 UNK         1 GROUP             0       ****    0 ROOT    
