@<TRIPOS>MOLECULE
3R540
247   249    1
SMALL
USER_CHARGES


@<TRIPOS>ATOM
      1 CA          5.7749  -14.7113  -52.2025 C.3       0 UNK        -0.1800 
      2 C           5.7084  -16.2304  -52.1443 C.2       0 UNK         0.5000 
      3 O           6.7425  -16.8886  -52.0272 O.2       0 UNK        -0.5000 
      4 N           4.4955  -16.7915  -52.2042 N.am      1 UNK        -0.5000 
      5 CA          4.1830  -18.2259  -52.1472 C.3       1 UNK         0.1400 
      6 C6          2.8141  -18.5255  -52.8257 C.3       23 UNK        -0.0398 
      7 S7          1.4195  -17.4948  -52.2274 S.3       23 UNK        -0.2404 
      8 C8          0.3381  -18.7533  -51.4760 C.3       23 UNK        -0.0205 
      9 C9         -0.6159  -18.1539  -50.4565 C.ar      23 UNK        -0.0193 
     10 C10        -1.9961  -18.1540  -50.6797 C.ar      23 UNK        -0.1150 
     11 C11        -2.8731  -17.6579  -49.7092 C.ar      23 UNK        -0.0193 
     12 C12        -2.3528  -17.1601  -48.5090 C.ar      23 UNK        -0.1150 
     13 C13        -0.9737  -17.1315  -48.2858 C.ar      23 UNK        -0.0193 
     14 C14        -0.1112  -17.6352  -49.2615 C.ar      23 UNK        -0.1150 
     15 C15        -0.4218  -16.5275  -47.0047 C.3       23 UNK        -0.0205 
     16 S16        -0.3650  -17.7190  -45.6344 S.3       23 UNK        -0.2404 
     17 C17         1.0462  -18.8024  -46.0389 C.3       23 UNK        -0.0398 
     18 CA          0.7265  -20.3169  -45.9781 C.3       11 UNK         0.1400 
     19 N           0.0616  -20.7108  -44.7276 N.am      11 UNK        -0.5000 
     20 C          -0.1209  -21.9801  -44.3378 C.2       10 UNK         0.5000 
     21 O           0.2766  -22.9536  -44.9734 O.2       10 UNK        -0.5000 
     22 CA         -0.9195  -22.2118  -43.0497 C.3       10 UNK         0.1400 
     23 CB         -0.0497  -21.9567  -41.8096 C.3       10 UNK        -0.1800 
     24 N          -2.1253  -21.3883  -42.9999 N.am      10 UNK        -0.5000 
     25 C          -3.2310  -21.6263  -43.7189 C.2       9 UNK         0.5000 
     26 O          -3.3175  -22.5282  -44.5517 O.2       9 UNK        -0.5000 
     27 CA         -4.4479  -20.7176  -43.4626 C.3       9 UNK         0.1400 
     28 CB         -5.3408  -21.3184  -42.3666 C.3       9 UNK        -0.1800 
     29 N          -4.0685  -19.3588  -43.0777 N.am      9 UNK        -0.5000 
     30 C          -3.6462  -18.4324  -43.9471 C.2       8 UNK         0.5000 
     31 O          -3.6003  -18.6163  -45.1626 O.2       8 UNK        -0.5000 
     32 CA         -3.1931  -17.0779  -43.3647 C.3       8 UNK         0.1400 
     33 CB         -4.3775  -16.1013  -43.3137 C.3       8 UNK        -0.1800 
     34 N          -2.5617  -17.1314  -42.0397 N.am      8 UNK        -0.5000 
     35 C          -1.5282  -17.9052  -41.6763 C.2       7 UNK         0.5000 
     36 O          -1.0413  -18.7837  -42.3884 O.2       7 UNK        -0.5000 
     37 CA         -0.9243  -17.6019  -40.2960 C.3       7 UNK         0.1400 
     38 CB          0.1159  -18.6452  -39.8516 C.3       7 UNK        -0.1800 
     39 N          -0.2775  -16.3005  -40.3898 N.am      7 UNK        -0.5000 
     40 C          -0.5847  -15.2121  -39.6733 C.2       6 UNK         0.5000 
     41 O          -1.3912  -15.2100  -38.7427 O.2       6 UNK        -0.5000 
     42 CA          0.1003  -13.8904  -40.0861 C.3       6 UNK         0.1400 
     43 CB          1.3493  -13.6406  -39.2274 C.3       6 UNK        -0.1800 
     44 N           0.4819  -13.8608  -41.5006 N.am      6 UNK        -0.5000 
     45 C          -0.3782  -13.9135  -42.5273 C.2       5 UNK         0.5000 
     46 O          -1.5986  -13.8221  -42.3926 O.2       5 UNK        -0.5000 
     47 CA          0.2048  -14.1449  -43.9362 C.3       5 UNK         0.1400 
     48 CB          0.0712  -12.8802  -44.7973 C.3       5 UNK        -0.1800 
     49 N           1.5982  -14.6033  -43.9908 N.am      5 UNK        -0.5000 
     50 C           2.0990  -15.7296  -43.4648 C.2       4 UNK         0.5000 
     51 O           1.4598  -16.4748  -42.7223 O.2       4 UNK        -0.5000 
     52 CA          3.5524  -16.0764  -43.8575 C.3       4 UNK         0.1400 
     53 CB          4.0753  -17.3293  -43.1324 C.3       4 UNK        -0.1800 
     54 N           3.6757  -16.2882  -45.3008 N.am      4 UNK        -0.5000 
     55 C           3.6639  -15.3426  -46.2453 C.2       3 UNK         0.5000 
     56 O           3.6645  -14.1369  -45.9880 O.2       3 UNK        -0.5000 
     57 CA          3.5911  -15.8290  -47.7084 C.3       3 UNK         0.1400 
     58 CB          3.5201  -14.6724  -48.7215 C.3       3 UNK        -0.1800 
     59 N           4.6646  -16.7332  -48.1137 N.am      3 UNK        -0.5000 
     60 C           4.8072  -18.0182  -47.7600 C.2       2 UNK         0.5000 
     61 O           4.1756  -18.5585  -46.8499 O.2       2 UNK        -0.5000 
     62 CA          5.7625  -18.8363  -48.6556 C.3       2 UNK         0.1400 
     63 CB          5.7500  -20.3465  -48.3364 C.3       2 UNK        -0.1800 
     64 N           5.4771  -18.5934  -50.0788 N.am      2 UNK        -0.5000 
     65 C           4.3053  -18.7860  -50.7075 C.2       1 UNK         0.5000 
     66 O           3.3438  -19.3379  -50.1770 O.2       1 UNK        -0.5000 
     67 C          -0.0407  -20.8122  -47.2225 C.2       11 UNK         0.5000 
     68 O           0.5743  -21.3355  -48.1533 O.2       11 UNK        -0.5000 
     69 N          -1.3762  -20.7088  -47.1734 N.am      12 UNK        -0.5000 
     70 CA         -2.2948  -21.2035  -48.1952 C.3       12 UNK         0.1400 
     71 CB         -3.7206  -20.7786  -47.8215 C.3       12 UNK        -0.1800 
     72 C          -2.2223  -22.7305  -48.3764 C.2       12 UNK         0.5000 
     73 O          -2.2366  -23.2090  -49.5130 O.2       12 UNK        -0.5000 
     74 N          -2.1423  -23.4594  -47.2540 N.am      13 UNK        -0.5000 
     75 CA         -2.0174  -24.9142  -47.2124 C.3       13 UNK         0.1400 
     76 CB         -2.3643  -25.4226  -45.8053 C.3       13 UNK        -0.1800 
     77 C          -0.6217  -25.4003  -47.6358 C.2       13 UNK         0.5000 
     78 O          -0.5309  -26.3572  -48.4038 O.2       13 UNK        -0.5000 
     79 N           0.4361  -24.7310  -47.1539 N.am      14 UNK        -0.5000 
     80 CA          1.8385  -25.0549  -47.4363 C.3       14 UNK         0.1400 
     81 CB          2.7585  -24.1672  -46.5842 C.3       14 UNK        -0.1800 
     82 C           2.2030  -24.9280  -48.9248 C.2       14 UNK         0.5000 
     83 O           2.9437  -25.7633  -49.4445 O.2       14 UNK        -0.5000 
     84 N           1.6463  -23.9079  -49.5891 N.am      15 UNK        -0.5000 
     85 CA          1.7689  -23.7012  -51.0317 C.3       15 UNK         0.1400 
     86 CB          1.4458  -22.2331  -51.3363 C.3       15 UNK        -0.1800 
     87 C           0.8537  -24.6238  -51.8610 C.2       15 UNK         0.5000 
     88 O           1.0294  -24.6984  -53.0775 O.2       15 UNK        -0.5000 
     89 N          -0.1266  -25.2661  -51.2038 N.am      16 UNK        -0.5000 
     90 CA         -1.2433  -26.0259  -51.7805 C.3       16 UNK         0.1400 
     91 CB         -0.7406  -27.3151  -52.4617 C.3       16 UNK        -0.1800 
     92 C          -2.1281  -25.1553  -52.7003 C.2       16 UNK         0.5000 
     93 O          -2.6726  -25.6442  -53.6920 O.2       16 UNK        -0.5000 
     94 N          -2.2259  -23.8656  -52.3577 N.am      17 UNK        -0.5000 
     95 CA         -2.8998  -22.8333  -53.1364 C.3       17 UNK         0.1400 
     96 CB         -2.1308  -21.5156  -52.9498 C.3       17 UNK        -0.1800 
     97 C          -4.3684  -22.6712  -52.7156 C.2       17 UNK         0.5000 
     98 O          -5.2079  -22.3848  -53.5700 O.2       17 UNK        -0.5000 
     99 N          -4.6387  -22.8683  -51.4144 N.am      18 UNK        -0.5000 
    100 CA        -5.9156  -22.6635  -50.7187 C.3       18 UNK         0.1400 
    101 CB        -7.0175  -23.5735  -51.3010 C.3       18 UNK        -0.1800 
    102 C         -6.3571  -21.1836  -50.6792 C.2       18 UNK         0.5000 
    103 O         -5.7395  -20.3203  -51.3050 O.2       18 UNK        -0.5000 
    104 N         -7.4226  -20.9044  -49.9151 N.am      19 UNK        -0.5000 
    105 CA        -7.9648  -19.5579  -49.6891 C.3       19 UNK         0.1400 
    106 CB        -9.1093  -19.6403  -48.6688 C.3       19 UNK        -0.1800 
    107 C         -8.4371  -18.8447  -50.9713 C.2       19 UNK         0.5000 
    108 O         -8.3820  -17.6170  -51.0422 O.2       19 UNK        -0.5000 
    109 N         -8.8447  -19.6240  -51.9820 N.am      20 UNK        -0.5000 
    110 CA        -9.2569  -19.1526  -53.3060 C.3       20 UNK         0.1400 
    111 CB        -9.7538  -20.3550  -54.1232 C.3       20 UNK        -0.1800 
    112 C         -8.1583  -18.3936  -54.0804 C.2       20 UNK         0.5000 
    113 O         -8.4867  -17.6037  -54.9663 O.2       20 UNK        -0.5000 
    114 N         -6.8849  -18.6291  -53.7344 N.am      21 UNK        -0.5000 
    115 CA        -5.7299  -17.9626  -54.3330 C.3       21 UNK         0.1400 
    116 CB        -4.5029  -18.8724  -54.1802 C.3       21 UNK        -0.1800 
    117 C         -5.4441  -16.5649  -53.7471 C.2       21 UNK         0.5000 
    118 O         -4.6082  -15.8561  -54.3095 O.2       21 UNK        -0.5000 
    119 N         -6.1048  -16.1866  -52.6438 N.am      22 UNK        -0.5000 
    120 CA        -5.8672  -14.9148  -51.9388 C.3       22 UNK         0.1400 
    121 C         -7.1496  -14.1878  -51.4442 C.2       22 UNK         0.5000 
    122 N         -8.2946  -14.8445  -51.3121 N.am      22 UNK        -0.7600 
    123 O         -7.1126  -12.9840  -51.2030 O.2       22 UNK        -0.5000 
    124 C124       -4.7920  -15.0569  -50.8286 C.3       23 UNK        -0.0398 
    125 S125       -5.2674  -16.1945  -49.4792 S.3       23 UNK        -0.2404 
    126 C126       -4.3784  -17.7148  -49.9485 C.3       23 UNK        -0.0205 
    127 H127        6.3707  -14.3943  -53.0584 H         1 UNK         0.0600 
    128 H128        4.7840  -14.2654  -52.2933 H         1 UNK         0.0600 
    129 H129        6.2408  -14.3213  -51.2975 H         1 UNK         0.0600 
    130 H130        3.6821  -16.1957  -52.2748 H         1 UNK         0.3000 
    131 H131        4.9404  -18.7530  -52.7312 H         1 UNK         0.0600 
    132 H132        2.5654  -19.5846  -52.7421 H         1 UNK         0.0800 
    133 H133        2.9066  -18.3415  -53.8967 H         1 UNK         0.0800 
    134 H134        0.9370  -19.5030  -50.9631 H         1 UNK         0.0800 
    135 H135       -0.2043  -19.2761  -52.2645 H         1 UNK         0.0800 
    136 H136       -2.3888  -18.5606  -51.6006 H         1 UNK         0.1150 
    137 H137       -3.0226  -16.7912  -47.7448 H         1 UNK         0.1150 
    138 H138        0.9573  -17.6295  -49.0996 H         1 UNK         0.1150 
    139 H139        0.5637  -16.0968  -47.1663 H         1 UNK         0.0800 
    140 H140       -1.0587  -15.6945  -46.7038 H         1 UNK         0.0800 
    141 H141        1.8286  -18.5823  -45.3128 H         1 UNK         0.0800 
    142 H142        1.4659  -18.5368  -47.0091 H         1 UNK         0.0800 
    143 H143        1.6879  -20.8352  -45.9943 H         1 UNK         0.0600 
    144 H144       -0.3047  -19.9607  -44.1508 H         1 UNK         0.3000 
    145 H145       -1.2250  -23.2604  -43.0295 H         1 UNK         0.0600 
    146 H146       -0.6168  -22.1020  -40.8902 H         1 UNK         0.0600 
    147 H147        0.7956  -22.6454  -41.7833 H         1 UNK         0.0600 
    148 H148        0.3574  -20.9459  -41.7996 H         1 UNK         0.0600 
    149 H149       -2.0704  -20.5445  -42.4427 H         1 UNK         0.3000 
    150 H150       -5.0302  -20.6750  -44.3858 H         1 UNK         0.0600 
    151 H151       -5.6598  -22.3270  -42.6330 H         1 UNK         0.0600 
    152 H152       -6.2415  -20.7217  -42.2208 H         1 UNK         0.0600 
    153 H153       -4.8197  -21.3807  -41.4104 H         1 UNK         0.0600 
    154 H154       -4.0857  -19.1316  -42.0947 H         1 UNK         0.3000 
    155 H155       -2.4551  -16.6591  -44.0484 H         1 UNK         0.0600 
    156 H156       -5.1384  -16.4289  -42.6043 H         1 UNK         0.0600 
    157 H157       -4.8542  -16.0135  -44.2910 H         1 UNK         0.0600 
    158 H158       -4.0534  -15.1020  -43.0227 H         1 UNK         0.0600 
    159 H159       -2.8656  -16.4233  -41.3870 H         1 UNK         0.3000 
    160 H160       -1.7381  -17.5908  -39.5682 H         1 UNK         0.0600 
    161 H161        0.5276  -18.3960  -38.8736 H         1 UNK         0.0600 
    162 H162        0.9467  -18.7122  -40.5557 H         1 UNK         0.0600 
    163 H163       -0.3348  -19.6348  -39.7721 H         1 UNK         0.0600 
    164 H164        0.3715  -16.2094  -41.1689 H         1 UNK         0.3000 
    165 H165       -0.6091  -13.0794  -39.9093 H         1 UNK         0.0600 
    166 H166        1.8039  -12.6779  -39.4619 H         1 UNK         0.0600 
    167 H167        1.0975  -13.6302  -38.1661 H         1 UNK         0.0600 
    168 H168        2.1025  -14.4150  -39.3786 H         1 UNK         0.0600 
    169 H169        1.4662  -13.9423  -41.7068 H         1 UNK         0.3000 
    170 H170       -0.4050  -14.9274  -44.3900 H         1 UNK         0.0600 
    171 H171       -0.9606  -12.5267  -44.8208 H         1 UNK         0.0600 
    172 H172        0.6892  -12.0677  -44.4132 H         1 UNK         0.0600 
    173 H173        0.3700  -13.0718  -45.8282 H         1 UNK         0.0600 
    174 H174        2.2149  -14.0766  -44.6012 H         1 UNK         0.3000 
    175 H175        4.1824  -15.2328  -43.5687 H         1 UNK         0.0600 
    176 H176        3.4919  -18.2154  -43.3862 H         1 UNK         0.0600 
    177 H177        5.1153  -17.5288  -43.3911 H         1 UNK         0.0600 
    178 H178        4.0283  -17.2035  -42.0500 H         1 UNK         0.0600 
    179 H179        3.7194  -17.2534  -45.6188 H         1 UNK         0.3000 
    180 H180        2.6623  -16.3905  -47.8008 H         1 UNK         0.0600 
    181 H181        4.4342  -14.0774  -48.7177 H         1 UNK         0.0600 
    182 H182        2.6890  -14.0027  -48.4964 H         1 UNK         0.0600 
    183 H183        3.3648  -15.0448  -49.7345 H         1 UNK         0.0600 
    184 H184        5.2603  -16.3902  -48.8520 H         1 UNK         0.3000 
    185 H185        6.7696  -18.4628  -48.4655 H         1 UNK         0.0600 
    186 H186        6.0669  -20.5285  -47.3089 H         1 UNK         0.0600 
    187 H187        4.7562  -20.7811  -48.4508 H         1 UNK         0.0600 
    188 H188        6.4313  -20.8926  -48.9886 H         1 UNK         0.0600 
    189 H189        6.2001  -18.1105  -50.6052 H         1 UNK         0.3000 
    190 H190       -1.7919  -20.2437  -46.3779 H         1 UNK         0.3000 
    191 H191       -2.0255  -20.7338  -49.1432 H         1 UNK         0.0600 
    192 H192       -4.4198  -21.0248  -48.6172 H         1 UNK         0.0600 
    193 H193       -4.0677  -21.2706  -46.9125 H         1 UNK         0.0600 
    194 H194       -3.7792  -19.7042  -47.6534 H         1 UNK         0.0600 
    195 H195       -2.1832  -22.9859  -46.3593 H         1 UNK         0.3000 
    196 H196       -2.7426  -25.3376  -47.9107 H         1 UNK         0.0600 
    197 H197       -2.2782  -26.5084  -45.7485 H         1 UNK         0.0600 
    198 H198       -3.3883  -25.1636  -45.5357 H         1 UNK         0.0600 
    199 H199       -1.7029  -24.9992  -45.0485 H         1 UNK         0.0600 
    200 H200        0.2783  -23.9791  -46.4856 H         1 UNK         0.3000 
    201 H201        2.0025  -26.0941  -47.1443 H         1 UNK         0.0600 
    202 H202        2.5896  -24.3318  -45.5200 H         1 UNK         0.0600 
    203 H203        2.5973  -23.1083  -46.7901 H         1 UNK         0.0600 
    204 H204        3.8087  -24.3851  -46.7826 H         1 UNK         0.0600 
    205 H205        1.0936  -23.2292  -49.0756 H         1 UNK         0.3000 
    206 H206        2.8001  -23.8960  -51.3337 H         1 UNK         0.0600 
    207 H207        2.1271  -21.5725  -50.8022 H         1 UNK         0.0600 
    208 H208        1.5459  -22.0153  -52.4002 H         1 UNK         0.0600 
    209 H209        0.4281  -21.9763  -51.0385 H         1 UNK         0.0600 
    210 H210       -0.1521  -25.1757  -50.1962 H         1 UNK         0.3000 
    211 H211       -1.8762  -26.3200  -50.9421 H         1 UNK         0.0600 
    212 H212       -0.1532  -27.1008  -53.3548 H         1 UNK         0.0600 
    213 H213       -1.5756  -27.9478  -52.7643 H         1 UNK         0.0600 
    214 H214       -0.1199  -27.9008  -51.7836 H         1 UNK         0.0600 
    215 H215       -1.8175  -23.5756  -51.4761 H         1 UNK         0.3000 
    216 H216       -2.8735  -23.0971  -54.1959 H         1 UNK         0.0600 
    217 H217       -2.5393  -20.7327  -53.5863 H         1 UNK         0.0600 
    218 H218       -1.0810  -21.6312  -53.2200 H         1 UNK         0.0600 
    219 H219       -2.1751  -21.1628  -51.9183 H         1 UNK         0.0600 
    220 H220       -3.8525  -23.0882  -50.8135 H         1 UNK         0.3000 
    221 H221       -5.7396  -22.9677  -49.6859 H         1 UNK         0.0600 
    222 H222       -7.3353  -23.2487  -52.2921 H         1 UNK         0.0600 
    223 H223       -6.6741  -24.6049  -51.3815 H         1 UNK         0.0600 
    224 H224       -7.9026  -23.5801  -50.6644 H         1 UNK         0.0600 
    225 H225       -7.8834  -21.6569  -49.4241 H         1 UNK         0.3000 
    226 H226       -7.1698  -18.9482  -49.2563 H         1 UNK         0.0600 
    227 H227       -9.9270  -20.2649  -49.0306 H         1 UNK         0.0600 
    228 H228       -9.5188  -18.6507  -48.4609 H         1 UNK         0.0600 
    229 H229       -8.7640  -20.0524  -47.7204 H         1 UNK         0.0600 
    230 H230       -8.8409  -20.6229  -51.8401 H         1 UNK         0.3000 
    231 H231      -10.0912  -18.4623  -53.1665 H         1 UNK         0.0600 
    232 H232      -10.5915  -20.8491  -53.6308 H         1 UNK         0.0600 
    233 H233       -8.9647  -21.0941  -54.2690 H         1 UNK         0.0600 
    234 H234      -10.0977  -20.0426  -55.1102 H         1 UNK         0.0600 
    235 H235       -6.6868  -19.2863  -52.9879 H         1 UNK         0.3000 
    236 H236       -5.9138  -17.8314  -55.4014 H         1 UNK         0.0600 
    237 H237       -4.6703  -19.8386  -54.6560 H         1 UNK         0.0600 
    238 H238       -3.6213  -18.4301  -54.6459 H         1 UNK         0.0600 
    239 H239       -4.2654  -19.0519  -53.1322 H         1 UNK         0.0600 
    240 H240       -6.7886  -16.8078  -52.2312 H         1 UNK         0.3000 
    241 H241       -5.4575  -14.2099  -52.6648 H         1 UNK         0.0600 
    242 H242       -9.1102  -14.3386  -51.0067 H         1 UNK         0.3800 
    243 H243       -8.3372  -15.8596  -51.3674 H         1 UNK         0.3800 
    244 H244       -4.5746  -14.0825  -50.3882 H         1 UNK         0.0800 
    245 H245       -3.8510  -15.3914  -51.2674 H         1 UNK         0.0800 
    246 H246       -4.5935  -17.9358  -50.9936 H         1 UNK         0.0800 
    247 H247       -4.7888  -18.5431  -49.3740 H         1 UNK         0.0800 
@<TRIPOS>BOND
     1    1    2 1    
     2    1  127 1    
     3    1  128 1    
     4    1  129 1    
     5    2    3 2    
     6    2    4 am   BACKBONE|DICT|INTERRES
     7    4    5 1    
     8    4  130 1    
     9    5    6 1    
    10    5   65 1    
    11    5  131 1    
    12    6    7 1    
    13    6  132 1    
    14    6  133 1    
    15    7    8 1    
    16    8    9 1    
    17    8  134 1    
    18    8  135 1    
    19    9   10 ar   
    20    9   14 ar   
    21   10   11 ar   
    22   10  136 1    
    23   11   12 ar   
    24   11  126 1    
    25   12   13 ar   
    26   12  137 1    
    27   13   14 ar   
    28   13   15 1    
    29   14  138 1    
    30   15   16 1    
    31   15  139 1    
    32   15  140 1    
    33   16   17 1    
    34   17   18 1    
    35   17  141 1    
    36   17  142 1    
    37   18   19 1    
    38   18   67 1    
    39   18  143 1    
    40   19   20 am   BACKBONE|DICT|INTERRES
    41   19  144 1    
    42   20   21 2    
    43   20   22 1    
    44   22   23 1    
    45   22   24 1    
    46   22  145 1    
    47   23  146 1    
    48   23  147 1    
    49   23  148 1    
    50   24   25 am   BACKBONE|DICT|INTERRES
    51   24  149 1    
    52   25   26 2    
    53   25   27 1    
    54   27   28 1    
    55   27   29 1    
    56   27  150 1    
    57   28  151 1    
    58   28  152 1    
    59   28  153 1    
    60   29   30 am   BACKBONE|DICT|INTERRES
    61   29  154 1    
    62   30   31 2    
    63   30   32 1    
    64   32   33 1    
    65   32   34 1    
    66   32  155 1    
    67   33  156 1    
    68   33  157 1    
    69   33  158 1    
    70   34   35 am   BACKBONE|DICT|INTERRES
    71   34  159 1    
    72   35   36 2    
    73   35   37 1    
    74   37   38 1    
    75   37   39 1    
    76   37  160 1    
    77   38  161 1    
    78   38  162 1    
    79   38  163 1    
    80   39   40 am   BACKBONE|DICT|INTERRES
    81   39  164 1    
    82   40   41 2    
    83   40   42 1    
    84   42   43 1    
    85   42   44 1    
    86   42  165 1    
    87   43  166 1    
    88   43  167 1    
    89   43  168 1    
    90   44   45 am   BACKBONE|DICT|INTERRES
    91   44  169 1    
    92   45   46 2    
    93   45   47 1    
    94   47   48 1    
    95   47   49 1    
    96   47  170 1    
    97   48  171 1    
    98   48  172 1    
    99   48  173 1    
   100   49   50 am   BACKBONE|DICT|INTERRES
   101   49  174 1    
   102   50   51 2    
   103   50   52 1    
   104   52   53 1    
   105   52   54 1    
   106   52  175 1    
   107   53  176 1    
   108   53  177 1    
   109   53  178 1    
   110   54   55 am   BACKBONE|DICT|INTERRES
   111   54  179 1    
   112   55   56 2    
   113   55   57 1    
   114   57   58 1    
   115   57   59 1    
   116   57  180 1    
   117   58  181 1    
   118   58  182 1    
   119   58  183 1    
   120   59   60 am   BACKBONE|DICT|INTERRES
   121   59  184 1    
   122   60   61 2    
   123   60   62 1    
   124   62   63 1    
   125   62   64 1    
   126   62  185 1    
   127   63  186 1    
   128   63  187 1    
   129   63  188 1    
   130   64   65 am   BACKBONE|DICT|INTERRES
   131   64  189 1    
   132   65   66 2    
   133   67   68 2    
   134   67   69 am   BACKBONE|DICT|INTERRES
   135   69   70 1    
   136   69  190 1    
   137   70   71 1    
   138   70   72 1    
   139   70  191 1    
   140   71  192 1    
   141   71  193 1    
   142   71  194 1    
   143   72   73 2    
   144   72   74 am   BACKBONE|DICT|INTERRES
   145   74   75 1    
   146   74  195 1    
   147   75   76 1    
   148   75   77 1    
   149   75  196 1    
   150   76  197 1    
   151   76  198 1    
   152   76  199 1    
   153   77   78 2    
   154   77   79 am   BACKBONE|DICT|INTERRES
   155   79   80 1    
   156   79  200 1    
   157   80   81 1    
   158   80   82 1    
   159   80  201 1    
   160   81  202 1    
   161   81  203 1    
   162   81  204 1    
   163   82   83 2    
   164   82   84 am   BACKBONE|DICT|INTERRES
   165   84   85 1    
   166   84  205 1    
   167   85   86 1    
   168   85   87 1    
   169   85  206 1    
   170   86  207 1    
   171   86  208 1    
   172   86  209 1    
   173   87   88 2    
   174   87   89 am   BACKBONE|DICT|INTERRES
   175   89   90 1    
   176   89  210 1    
   177   90   91 1    
   178   90   92 1    
   179   90  211 1    
   180   91  212 1    
   181   91  213 1    
   182   91  214 1    
   183   92   93 2    
   184   92   94 am   BACKBONE|DICT|INTERRES
   185   94   95 1    
   186   94  215 1    
   187   95   96 1    
   188   95   97 1    
   189   95  216 1    
   190   96  217 1    
   191   96  218 1    
   192   96  219 1    
   193   97   98 2    
   194   97   99 am   BACKBONE|DICT|INTERRES
   195   99  100 1    
   196   99  220 1    
   197  100  101 1    
   198  100  102 1    
   199  100  221 1    
   200  101  222 1    
   201  101  223 1    
   202  101  224 1    
   203  102  103 2    
   204  102  104 am   BACKBONE|DICT|INTERRES
   205  104  105 1    
   206  104  225 1    
   207  105  106 1    
   208  105  107 1    
   209  105  226 1    
   210  106  227 1    
   211  106  228 1    
   212  106  229 1    
   213  107  108 2    
   214  107  109 am   BACKBONE|DICT|INTERRES
   215  109  110 1    
   216  109  230 1    
   217  110  111 1    
   218  110  112 1    
   219  110  231 1    
   220  111  232 1    
   221  111  233 1    
   222  111  234 1    
   223  112  113 2    
   224  112  114 am   BACKBONE|DICT|INTERRES
   225  114  115 1    
   226  114  235 1    
   227  115  116 1    
   228  115  117 1    
   229  115  236 1    
   230  116  237 1    
   231  116  238 1    
   232  116  239 1    
   233  117  118 2    
   234  117  119 am   BACKBONE|DICT|INTERRES
   235  119  120 1    
   236  119  240 1    
   237  120  121 1    
   238  120  124 1    
   239  120  241 1    
   240  121  122 am   BACKBONE|DICT|INTERRES
   241  121  123 2    
   242  122  242 1    
   243  122  243 1    
   244  124  125 1    
   245  124  244 1    
   246  124  245 1    
   247  125  126 1    
   248  126  246 1    
   249  126  247 1    
@<TRIPOS>SUBSTRUCTURE
     1 UNK         1 GROUP             0       ****    0 ROOT    
