@<TRIPOS>MOLECULE
3R540
247   249    1
SMALL
USER_CHARGES


@<TRIPOS>ATOM
      1 CA          0.5140  -15.7619  -48.5553 C.3       0 UNK        -0.1800 
      2 C          -0.0597  -15.0091  -47.3671 C.2       0 UNK         0.5000 
      3 O           0.6366  -14.1895  -46.7688 O.2       0 UNK        -0.5000 
      4 N          -1.3316  -15.2658  -47.0333 N.am      1 UNK        -0.5000 
      5 CA         -2.0286  -14.6554  -45.8928 C.3       1 UNK         0.1400 
      6 C6         -3.3685  -15.3678  -45.5679 C.3       23 UNK        -0.0398 
      7 S7         -4.7101  -15.1222  -46.7862 S.3       23 UNK        -0.2404 
      8 C8         -4.8797  -16.7780  -47.5228 C.3       23 UNK        -0.0205 
      9 C9         -3.7441  -17.1004  -48.4805 C.ar      23 UNK        -0.0193 
     10 C10        -3.5981  -16.3608  -49.6577 C.ar      23 UNK        -0.1150 
     11 C11        -2.5725  -16.6536  -50.5589 C.ar      23 UNK        -0.0193 
     12 C12        -1.6971  -17.7051  -50.2806 C.ar      23 UNK        -0.1150 
     13 C13        -1.8328  -18.4546  -49.1088 C.ar      23 UNK        -0.0193 
     14 C14        -2.8560  -18.1457  -48.2075 C.ar      23 UNK        -0.1150 
     15 C15        -0.8646  -19.5914  -48.8305 C.3       23 UNK        -0.0205 
     16 S16        -1.4330  -21.1332  -49.5997 S.3       23 UNK        -0.2404 
     17 C17        -2.3695  -21.9254  -48.2500 C.3       23 UNK        -0.0398 
     18 CA         -1.6430  -23.2044  -47.7764 C.3       11 UNK         0.1400 
     19 N          -0.3208  -22.9316  -47.2100 N.am      11 UNK        -0.5000 
     20 C           0.6536  -23.8434  -47.1005 C.2       10 UNK         0.5000 
     21 O           0.5500  -25.0087  -47.4837 O.2       10 UNK        -0.5000 
     22 CA          1.9452  -23.3794  -46.4049 C.3       10 UNK         0.1400 
     23 CB          2.8475  -22.6165  -47.3865 C.3       10 UNK        -0.1800 
     24 N           1.6746  -22.5381  -45.2382 N.am      10 UNK        -0.5000 
     25 C           1.0699  -22.9710  -44.1222 C.2       9 UNK         0.5000 
     26 O           0.7026  -24.1324  -43.9526 O.2       9 UNK        -0.5000 
     27 CA          0.7907  -21.9305  -43.0238 C.3       9 UNK         0.1400 
     28 CB          1.9573  -21.8803  -42.0273 C.3       9 UNK        -0.1800 
     29 N           0.5309  -20.5859  -43.5382 N.am      9 UNK        -0.5000 
     30 C          -0.4831  -20.2490  -44.3514 C.2       8 UNK         0.5000 
     31 O          -1.2998  -21.0544  -44.8016 O.2       8 UNK        -0.5000 
     32 CA         -0.5838  -18.7638  -44.7508 C.3       8 UNK         0.1400 
     33 CB         -1.4690  -18.0246  -43.7386 C.3       8 UNK        -0.1800 
     34 N           0.7175  -18.0953  -44.8317 N.am      8 UNK        -0.5000 
     35 C           1.7277  -18.4674  -45.6353 C.2       7 UNK         0.5000 
     36 O           1.6291  -19.3638  -46.4733 O.2       7 UNK        -0.5000 
     37 CA          3.0926  -17.7726  -45.4431 C.3       7 UNK         0.1400 
     38 CB          3.3770  -16.7887  -46.5868 C.3       7 UNK        -0.1800 
     39 N           3.2380  -17.0666  -44.1683 N.am      7 UNK        -0.5000 
     40 C           3.2020  -17.6280  -42.9516 C.2       6 UNK         0.5000 
     41 O           3.0645  -18.8362  -42.7613 O.2       6 UNK        -0.5000 
     42 CA          3.2773  -16.6697  -41.7471 C.3       6 UNK         0.1400 
     43 CB          4.7246  -16.5527  -41.2465 C.3       6 UNK        -0.1800 
     44 N           2.7521  -15.3244  -42.0158 N.am      6 UNK        -0.5000 
     45 C           1.4827  -15.0450  -42.3518 C.2       5 UNK         0.5000 
     46 O           0.6232  -15.9015  -42.5531 O.2       5 UNK        -0.5000 
     47 CA          1.1418  -13.5648  -42.5509 C.3       5 UNK         0.1400 
     48 CB          1.2347  -12.7752  -41.2314 C.3       5 UNK        -0.1800 
     49 N           2.0292  -13.0068  -43.5665 N.am      5 UNK        -0.5000 
     50 C           1.7846  -11.9079  -44.2864 C.2       4 UNK         0.5000 
     51 O           0.8187  -11.1669  -44.0986 O.2       4 UNK        -0.5000 
     52 CA          2.7650  -11.5814  -45.4238 C.3       4 UNK         0.1400 
     53 CB          3.9942  -12.5120  -45.5083 C.3       4 UNK        -0.1800 
     54 N           2.0180  -11.6581  -46.6702 N.am      4 UNK        -0.5000 
     55 C           2.1410  -10.8275  -47.7092 C.2       3 UNK         0.5000 
     56 O           2.9456   -9.8959  -47.7570 O.2       3 UNK        -0.5000 
     57 CA          1.1955  -11.0793  -48.8962 C.3       3 UNK         0.1400 
     58 CB          1.7676  -12.1645  -49.8217 C.3       3 UNK        -0.1800 
     59 N          -0.1457  -11.4745  -48.4629 N.am      3 UNK        -0.5000 
     60 C          -1.0751  -10.6282  -47.9961 C.2       2 UNK         0.5000 
     61 O          -0.8967   -9.4149  -47.8832 O.2       2 UNK        -0.5000 
     62 CA         -2.4413  -11.2268  -47.6122 C.3       2 UNK         0.1400 
     63 CB         -3.4356  -11.0701  -48.7735 C.3       2 UNK        -0.1800 
     64 N          -2.3460  -12.6451  -47.2690 N.am      2 UNK        -0.5000 
     65 C          -2.1944  -13.1240  -46.0266 C.2       1 UNK         0.5000 
     66 O          -2.1703  -12.4213  -45.0163 O.2       1 UNK        -0.5000 
     67 C          -2.4974  -24.0213  -46.7932 C.2       11 UNK         0.5000 
     68 O          -3.1667  -24.9600  -47.2225 O.2       11 UNK        -0.5000 
     69 N          -2.4093  -23.7071  -45.4917 N.am      12 UNK        -0.5000 
     70 CA         -3.0757  -24.4486  -44.4190 C.3       12 UNK         0.1400 
     71 CB         -2.8647  -23.7291  -43.0796 C.3       12 UNK        -0.1800 
     72 C          -2.6150  -25.9168  -44.3326 C.2       12 UNK         0.5000 
     73 O          -3.4560  -26.8051  -44.1974 O.2       12 UNK        -0.5000 
     74 N          -1.3022  -26.1539  -44.4748 N.am      13 UNK        -0.5000 
     75 CA         -0.6939  -27.4865  -44.5381 C.3       13 UNK         0.1400 
     76 CB          0.8352  -27.3526  -44.4819 C.3       13 UNK        -0.1800 
     77 C          -1.1185  -28.2922  -45.7818 C.2       13 UNK         0.5000 
     78 O          -1.2376  -29.5151  -45.7013 O.2       13 UNK        -0.5000 
     79 N          -1.3702  -27.5930  -46.8965 N.am      14 UNK        -0.5000 
     80 CA         -1.9077  -28.1545  -48.1381 C.3       14 UNK         0.1400 
     81 CB         -1.5051  -27.2401  -49.3075 C.3       14 UNK        -0.1800 
     82 C          -3.4392  -28.3532  -48.1035 C.2       14 UNK         0.5000 
     83 O          -3.9875  -28.9209  -49.0492 O.2       14 UNK        -0.5000 
     84 N          -4.0984  -27.8762  -47.0357 N.am      15 UNK        -0.5000 
     85 CA         -5.5466  -27.8447  -46.8086 C.3       15 UNK         0.1400 
     86 CB         -6.1215  -29.2720  -46.6915 C.3       15 UNK        -0.1800 
     87 C          -6.2992  -26.9640  -47.8299 C.2       15 UNK         0.5000 
     88 O          -7.4384  -27.2698  -48.1883 O.2       15 UNK        -0.5000 
     89 N          -5.6507  -25.8811  -48.2736 N.am      16 UNK        -0.5000 
     90 CA         -6.1895  -24.8869  -49.1940 C.3       16 UNK         0.1400 
     91 CB         -5.1481  -24.6280  -50.2953 C.3       16 UNK        -0.1800 
     92 C          -6.4844  -23.5865  -48.4324 C.2       16 UNK         0.5000 
     93 O          -5.7636  -23.2450  -47.4923 O.2       16 UNK        -0.5000 
     94 N          -7.5143  -22.8555  -48.8765 N.am      17 UNK        -0.5000 
     95 CA         -7.8353  -21.5168  -48.3716 C.3       17 UNK         0.1400 
     96 CB         -9.2602  -21.1377  -48.8038 C.3       17 UNK        -0.1800 
     97 C          -6.8220  -20.4602  -48.8528 C.2       17 UNK         0.5000 
     98 O          -6.5070  -19.5327  -48.1090 O.2       17 UNK        -0.5000 
     99 N          -6.3255  -20.6438  -50.0800 N.am      18 UNK        -0.5000 
    100 CA        -5.3098  -19.8472  -50.7534 C.3       18 UNK         0.1400 
    101 CB        -5.9151  -18.5195  -51.2403 C.3       18 UNK        -0.1800 
    102 C         -4.7958  -20.6918  -51.9273 C.2       18 UNK         0.5000 
    103 O         -5.5724  -21.4653  -52.4964 O.2       18 UNK        -0.5000 
    104 N         -3.5123  -20.5503  -52.2639 N.am      19 UNK        -0.5000 
    105 CA        -2.8097  -21.3199  -53.2883 C.3       19 UNK         0.1400 
    106 CB        -2.6434  -22.7916  -52.8415 C.3       19 UNK        -0.1800 
    107 C         -1.4506  -20.6565  -53.5724 C.2       19 UNK         0.5000 
    108 O         -1.1582  -19.5948  -53.0203 O.2       19 UNK        -0.5000 
    109 N         -0.6419  -21.3035  -54.4235 N.am      20 UNK        -0.5000 
    110 CA         0.7260  -20.9217  -54.7986 C.3       20 UNK         0.1400 
    111 CB         1.6647  -20.9365  -53.5718 C.3       20 UNK        -0.1800 
    112 C          0.8042  -19.6111  -55.6118 C.2       20 UNK         0.5000 
    113 O          1.7766  -18.8657  -55.4817 O.2       20 UNK        -0.5000 
    114 N         -0.2072  -19.3893  -56.4670 N.am      21 UNK        -0.5000 
    115 CA        -0.3363  -18.2942  -57.4356 C.3       21 UNK         0.1400 
    116 CB         0.7183  -18.4362  -58.5540 C.3       21 UNK        -0.1800 
    117 C         -0.3245  -16.9015  -56.7728 C.2       21 UNK         0.5000 
    118 O          0.6207  -16.1309  -56.9562 O.2       21 UNK        -0.5000 
    119 N         -1.3815  -16.6201  -56.0007 N.am      22 UNK        -0.5000 
    120 CA        -1.6366  -15.3359  -55.3260 C.3       22 UNK         0.1400 
    121 C         -1.6456  -14.1164  -56.2933 C.2       22 UNK         0.5000 
    122 N         -1.0677  -12.9919  -55.8931 N.am      22 UNK        -0.7600 
    123 O         -2.2148  -14.1684  -57.3818 O.2       22 UNK        -0.5000 
    124 C124       -2.9665  -15.3652  -54.5307 C.3       23 UNK        -0.0398 
    125 S125       -3.0444  -16.6917  -53.2827 S.3       23 UNK        -0.2404 
    126 C126       -2.3997  -15.8242  -51.8208 C.3       23 UNK        -0.0205 
    127 H127        0.4711  -16.8365  -48.3816 H         1 UNK         0.0600 
    128 H128       -0.0409  -15.5238  -49.4618 H         1 UNK         0.0600 
    129 H129        1.5564  -15.4902  -48.7192 H         1 UNK         0.0600 
    130 H130       -1.8686  -15.9290  -47.5766 H         1 UNK         0.3000 
    131 H131       -1.3772  -14.8059  -45.0288 H         1 UNK         0.0600 
    132 H132       -3.7374  -15.0241  -44.6001 H         1 UNK         0.0800 
    133 H133       -3.1975  -16.4368  -45.4467 H         1 UNK         0.0800 
    134 H134       -5.8204  -16.8190  -48.0734 H         1 UNK         0.0800 
    135 H135       -4.9593  -17.5285  -46.7347 H         1 UNK         0.0800 
    136 H136       -4.2870  -15.5551  -49.8697 H         1 UNK         0.1150 
    137 H137       -0.9059  -17.9389  -50.9793 H         1 UNK         0.1150 
    138 H138       -2.9723  -18.7287  -47.3050 H         1 UNK         0.1150 
    139 H139        0.1186  -19.3430  -49.2333 H         1 UNK         0.0800 
    140 H140       -0.7206  -19.7335  -47.7606 H         1 UNK         0.0800 
    141 H141       -2.5227  -21.2300  -47.4235 H         1 UNK         0.0800 
    142 H142       -3.3624  -22.1661  -48.6344 H         1 UNK         0.0800 
    143 H143       -1.5010  -23.8357  -48.6569 H         1 UNK         0.0600 
    144 H144       -0.1675  -22.0069  -46.8354 H         1 UNK         0.3000 
    145 H145        2.4811  -24.2685  -46.0658 H         1 UNK         0.0600 
    146 H146        2.3655  -21.7114  -47.7584 H         1 UNK         0.0600 
    147 H147        3.7871  -22.3268  -46.9159 H         1 UNK         0.0600 
    148 H148        3.0932  -23.2353  -48.2504 H         1 UNK         0.0600 
    149 H149        1.9114  -21.5585  -45.3155 H         1 UNK         0.3000 
    150 H150       -0.1006  -22.2484  -42.4818 H         1 UNK         0.0600 
    151 H151        1.7547  -21.1822  -41.2149 H         1 UNK         0.0600 
    152 H152        2.8854  -21.5722  -42.5104 H         1 UNK         0.0600 
    153 H153        2.1304  -22.8597  -41.5794 H         1 UNK         0.0600 
    154 H154        1.1820  -19.8651  -43.2494 H         1 UNK         0.3000 
    155 H155       -1.0544  -18.6991  -45.7317 H         1 UNK         0.0600 
    156 H156       -2.4909  -18.4053  -43.7610 H         1 UNK         0.0600 
    157 H157       -1.5085  -16.9578  -43.9482 H         1 UNK         0.0600 
    158 H158       -1.0969  -18.1409  -42.7196 H         1 UNK         0.0600 
    159 H159        0.8790  -17.3550  -44.1588 H         1 UNK         0.3000 
    160 H160        3.8507  -18.5577  -45.4750 H         1 UNK         0.0600 
    161 H161        4.4070  -16.4334  -46.5521 H         1 UNK         0.0600 
    162 H162        2.7243  -15.9182  -46.5364 H         1 UNK         0.0600 
    163 H163        3.2300  -17.2591  -47.5601 H         1 UNK         0.0600 
    164 H164        3.3527  -16.0671  -44.2212 H         1 UNK         0.3000 
    165 H165        2.6738  -17.1067  -40.9488 H         1 UNK         0.0600 
    166 H166        5.3728  -16.0915  -41.9927 H         1 UNK         0.0600 
    167 H167        4.7807  -15.9554  -40.3363 H         1 UNK         0.0600 
    168 H168        5.1385  -17.5349  -41.0141 H         1 UNK         0.0600 
    169 H169        3.3885  -14.5587  -41.8477 H         1 UNK         0.3000 
    170 H170        0.1137  -13.5133  -42.9174 H         1 UNK         0.0600 
    171 H171        0.6229  -13.2380  -40.4560 H         1 UNK         0.0600 
    172 H172        2.2580  -12.7245  -40.8584 H         1 UNK         0.0600 
    173 H173        0.8763  -11.7535  -41.3563 H         1 UNK         0.0600 
    174 H174        2.8296  -13.5683  -43.8150 H         1 UNK         0.3000 
    175 H175        3.1109  -10.5597  -45.2539 H         1 UNK         0.0600 
    176 H176        4.6645  -12.1931  -46.3068 H         1 UNK         0.0600 
    177 H177        4.5720  -12.4934  -44.5834 H         1 UNK         0.0600 
    178 H178        3.7110  -13.5449  -45.7154 H         1 UNK         0.0600 
    179 H179        1.3349  -12.4105  -46.7165 H         1 UNK         0.3000 
    180 H180        1.1194  -10.1524  -49.4688 H         1 UNK         0.0600 
    181 H181        1.1225  -12.3294  -50.6848 H         1 UNK         0.0600 
    182 H182        2.7488  -11.8747  -50.1998 H         1 UNK         0.0600 
    183 H183        1.8861  -13.1159  -49.3028 H         1 UNK         0.0600 
    184 H184       -0.3577  -12.4593  -48.4839 H         1 UNK         0.3000 
    185 H185       -2.8246  -10.6620  -46.7597 H         1 UNK         0.0600 
    186 H186       -4.4208  -11.4496  -48.5012 H         1 UNK         0.0600 
    187 H187       -3.5561  -10.0208  -49.0461 H         1 UNK         0.0600 
    188 H188       -3.1046  -11.6053  -49.6644 H         1 UNK         0.0600 
    189 H189       -2.4000  -13.3059  -48.0300 H         1 UNK         0.3000 
    190 H190       -1.8653  -22.8942  -45.2185 H         1 UNK         0.3000 
    191 H191       -4.1452  -24.4471  -44.6400 H         1 UNK         0.0600 
    192 H192       -3.4514  -24.2005  -42.2904 H         1 UNK         0.0600 
    193 H193       -3.1721  -22.6846  -43.1360 H         1 UNK         0.0600 
    194 H194       -1.8211  -23.7581  -42.7694 H         1 UNK         0.0600 
    195 H195       -0.6623  -25.3652  -44.5194 H         1 UNK         0.3000 
    196 H196       -1.0194  -28.0445  -43.6578 H         1 UNK         0.0600 
    197 H197        1.3168  -28.3303  -44.5241 H         1 UNK         0.0600 
    198 H198        1.1545  -26.8735  -43.5563 H         1 UNK         0.0600 
    199 H199        1.2171  -26.7603  -45.3143 H         1 UNK         0.0600 
    200 H200       -1.2273  -26.5916  -46.8824 H         1 UNK         0.3000 
    201 H201       -1.4559  -29.1343  -48.3054 H         1 UNK         0.0600 
    202 H202       -0.4245  -27.1018  -49.3475 H         1 UNK         0.0600 
    203 H203       -1.9655  -26.2555  -49.2280 H         1 UNK         0.0600 
    204 H204       -1.8133  -27.6673  -50.2624 H         1 UNK         0.0600 
    205 H205       -3.5499  -27.4133  -46.3220 H         1 UNK         0.3000 
    206 H206       -5.6851  -27.3592  -45.8418 H         1 UNK         0.0600 
    207 H207       -5.5682  -29.8601  -45.9593 H         1 UNK         0.0600 
    208 H208       -7.1623  -29.2481  -46.3669 H         1 UNK         0.0600 
    209 H209       -6.0894  -29.8030  -47.6431 H         1 UNK         0.0600 
    210 H210       -4.7436  -25.6509  -47.8704 H         1 UNK         0.3000 
    211 H211       -7.1094  -25.2469  -49.6591 H         1 UNK         0.0600 
    212 H212       -5.5159  -23.9001  -51.0191 H         1 UNK         0.0600 
    213 H213       -4.9189  -25.5428  -50.8421 H         1 UNK         0.0600 
    214 H214       -4.2131  -24.2426  -49.8865 H         1 UNK         0.0600 
    215 H215       -8.0739  -23.1990  -49.6439 H         1 UNK         0.3000 
    216 H216       -7.8051  -21.5375  -47.2799 H         1 UNK         0.0600 
    217 H217       -9.5319  -20.1514  -48.4253 H         1 UNK         0.0600 
    218 H218       -9.9918  -21.8467  -48.4159 H         1 UNK         0.0600 
    219 H219       -9.3599  -21.1111  -49.8897 H         1 UNK         0.0600 
    220 H220       -6.6310  -21.4412  -50.6234 H         1 UNK         0.3000 
    221 H221       -4.4875  -19.6546  -50.0622 H         1 UNK         0.0600 
    222 H222       -6.7533  -18.6843  -51.9181 H         1 UNK         0.0600 
    223 H223       -6.2703  -17.9140  -50.4069 H         1 UNK         0.0600 
    224 H224       -5.1730  -17.9276  -51.7729 H         1 UNK         0.0600 
    225 H225       -2.9273  -19.8635  -51.8003 H         1 UNK         0.3000 
    226 H226       -3.3935  -21.2839  -54.2100 H         1 UNK         0.0600 
    227 H227       -2.1674  -23.3945  -53.6147 H         1 UNK         0.0600 
    228 H228       -2.0324  -22.8719  -51.9425 H         1 UNK         0.0600 
    229 H229       -3.6029  -23.2627  -52.6316 H         1 UNK         0.0600 
    230 H230       -0.9746  -22.1649  -54.8337 H         1 UNK         0.3000 
    231 H231        1.0758  -21.7034  -55.4744 H         1 UNK         0.0600 
    232 H232        2.7060  -20.8229  -53.8751 H         1 UNK         0.0600 
    233 H233        1.5878  -21.8775  -53.0272 H         1 UNK         0.0600 
    234 H234        1.4391  -20.1275  -52.8764 H         1 UNK         0.0600 
    235 H235       -0.9617  -20.0605  -56.4688 H         1 UNK         0.3000 
    236 H236       -1.3159  -18.4072  -57.9028 H         1 UNK         0.0600 
    237 H237        1.7352  -18.3388  -58.1727 H         1 UNK         0.0600 
    238 H238        0.6386  -19.4036  -59.0497 H         1 UNK         0.0600 
    239 H239        0.5814  -17.6687  -59.3167 H         1 UNK         0.0600 
    240 H240       -2.0937  -17.3240  -55.8769 H         1 UNK         0.3000 
    241 H241       -0.8204  -15.1935  -54.6152 H         1 UNK         0.0600 
    242 H242       -1.0816  -12.1905  -56.5051 H         1 UNK         0.3800 
    243 H243       -0.5991  -12.9233  -55.0029 H         1 UNK         0.3800 
    244 H244       -3.8079  -15.5046  -55.2119 H         1 UNK         0.0800 
    245 H245       -3.1415  -14.4076  -54.0369 H         1 UNK         0.0800 
    246 H246       -1.3427  -15.6001  -51.9713 H         1 UNK         0.0800 
    247 H247       -2.9079  -14.8653  -51.7087 H         1 UNK         0.0800 
@<TRIPOS>BOND
     1    1    2 1    
     2    1  127 1    
     3    1  128 1    
     4    1  129 1    
     5    2    3 2    
     6    2    4 am   BACKBONE|DICT|INTERRES
     7    4    5 1    
     8    4  130 1    
     9    5    6 1    
    10    5   65 1    
    11    5  131 1    
    12    6    7 1    
    13    6  132 1    
    14    6  133 1    
    15    7    8 1    
    16    8    9 1    
    17    8  134 1    
    18    8  135 1    
    19    9   10 ar   
    20    9   14 ar   
    21   10   11 ar   
    22   10  136 1    
    23   11   12 ar   
    24   11  126 1    
    25   12   13 ar   
    26   12  137 1    
    27   13   14 ar   
    28   13   15 1    
    29   14  138 1    
    30   15   16 1    
    31   15  139 1    
    32   15  140 1    
    33   16   17 1    
    34   17   18 1    
    35   17  141 1    
    36   17  142 1    
    37   18   19 1    
    38   18   67 1    
    39   18  143 1    
    40   19   20 am   BACKBONE|DICT|INTERRES
    41   19  144 1    
    42   20   21 2    
    43   20   22 1    
    44   22   23 1    
    45   22   24 1    
    46   22  145 1    
    47   23  146 1    
    48   23  147 1    
    49   23  148 1    
    50   24   25 am   BACKBONE|DICT|INTERRES
    51   24  149 1    
    52   25   26 2    
    53   25   27 1    
    54   27   28 1    
    55   27   29 1    
    56   27  150 1    
    57   28  151 1    
    58   28  152 1    
    59   28  153 1    
    60   29   30 am   BACKBONE|DICT|INTERRES
    61   29  154 1    
    62   30   31 2    
    63   30   32 1    
    64   32   33 1    
    65   32   34 1    
    66   32  155 1    
    67   33  156 1    
    68   33  157 1    
    69   33  158 1    
    70   34   35 am   BACKBONE|DICT|INTERRES
    71   34  159 1    
    72   35   36 2    
    73   35   37 1    
    74   37   38 1    
    75   37   39 1    
    76   37  160 1    
    77   38  161 1    
    78   38  162 1    
    79   38  163 1    
    80   39   40 am   BACKBONE|DICT|INTERRES
    81   39  164 1    
    82   40   41 2    
    83   40   42 1    
    84   42   43 1    
    85   42   44 1    
    86   42  165 1    
    87   43  166 1    
    88   43  167 1    
    89   43  168 1    
    90   44   45 am   BACKBONE|DICT|INTERRES
    91   44  169 1    
    92   45   46 2    
    93   45   47 1    
    94   47   48 1    
    95   47   49 1    
    96   47  170 1    
    97   48  171 1    
    98   48  172 1    
    99   48  173 1    
   100   49   50 am   BACKBONE|DICT|INTERRES
   101   49  174 1    
   102   50   51 2    
   103   50   52 1    
   104   52   53 1    
   105   52   54 1    
   106   52  175 1    
   107   53  176 1    
   108   53  177 1    
   109   53  178 1    
   110   54   55 am   BACKBONE|DICT|INTERRES
   111   54  179 1    
   112   55   56 2    
   113   55   57 1    
   114   57   58 1    
   115   57   59 1    
   116   57  180 1    
   117   58  181 1    
   118   58  182 1    
   119   58  183 1    
   120   59   60 am   BACKBONE|DICT|INTERRES
   121   59  184 1    
   122   60   61 2    
   123   60   62 1    
   124   62   63 1    
   125   62   64 1    
   126   62  185 1    
   127   63  186 1    
   128   63  187 1    
   129   63  188 1    
   130   64   65 am   BACKBONE|DICT|INTERRES
   131   64  189 1    
   132   65   66 2    
   133   67   68 2    
   134   67   69 am   BACKBONE|DICT|INTERRES
   135   69   70 1    
   136   69  190 1    
   137   70   71 1    
   138   70   72 1    
   139   70  191 1    
   140   71  192 1    
   141   71  193 1    
   142   71  194 1    
   143   72   73 2    
   144   72   74 am   BACKBONE|DICT|INTERRES
   145   74   75 1    
   146   74  195 1    
   147   75   76 1    
   148   75   77 1    
   149   75  196 1    
   150   76  197 1    
   151   76  198 1    
   152   76  199 1    
   153   77   78 2    
   154   77   79 am   BACKBONE|DICT|INTERRES
   155   79   80 1    
   156   79  200 1    
   157   80   81 1    
   158   80   82 1    
   159   80  201 1    
   160   81  202 1    
   161   81  203 1    
   162   81  204 1    
   163   82   83 2    
   164   82   84 am   BACKBONE|DICT|INTERRES
   165   84   85 1    
   166   84  205 1    
   167   85   86 1    
   168   85   87 1    
   169   85  206 1    
   170   86  207 1    
   171   86  208 1    
   172   86  209 1    
   173   87   88 2    
   174   87   89 am   BACKBONE|DICT|INTERRES
   175   89   90 1    
   176   89  210 1    
   177   90   91 1    
   178   90   92 1    
   179   90  211 1    
   180   91  212 1    
   181   91  213 1    
   182   91  214 1    
   183   92   93 2    
   184   92   94 am   BACKBONE|DICT|INTERRES
   185   94   95 1    
   186   94  215 1    
   187   95   96 1    
   188   95   97 1    
   189   95  216 1    
   190   96  217 1    
   191   96  218 1    
   192   96  219 1    
   193   97   98 2    
   194   97   99 am   BACKBONE|DICT|INTERRES
   195   99  100 1    
   196   99  220 1    
   197  100  101 1    
   198  100  102 1    
   199  100  221 1    
   200  101  222 1    
   201  101  223 1    
   202  101  224 1    
   203  102  103 2    
   204  102  104 am   BACKBONE|DICT|INTERRES
   205  104  105 1    
   206  104  225 1    
   207  105  106 1    
   208  105  107 1    
   209  105  226 1    
   210  106  227 1    
   211  106  228 1    
   212  106  229 1    
   213  107  108 2    
   214  107  109 am   BACKBONE|DICT|INTERRES
   215  109  110 1    
   216  109  230 1    
   217  110  111 1    
   218  110  112 1    
   219  110  231 1    
   220  111  232 1    
   221  111  233 1    
   222  111  234 1    
   223  112  113 2    
   224  112  114 am   BACKBONE|DICT|INTERRES
   225  114  115 1    
   226  114  235 1    
   227  115  116 1    
   228  115  117 1    
   229  115  236 1    
   230  116  237 1    
   231  116  238 1    
   232  116  239 1    
   233  117  118 2    
   234  117  119 am   BACKBONE|DICT|INTERRES
   235  119  120 1    
   236  119  240 1    
   237  120  121 1    
   238  120  124 1    
   239  120  241 1    
   240  121  122 am   BACKBONE|DICT|INTERRES
   241  121  123 2    
   242  122  242 1    
   243  122  243 1    
   244  124  125 1    
   245  124  244 1    
   246  124  245 1    
   247  125  126 1    
   248  126  246 1    
   249  126  247 1    
@<TRIPOS>SUBSTRUCTURE
     1 UNK         1 GROUP             0       ****    0 ROOT    
