@<TRIPOS>MOLECULE
3R540
247   249    1
SMALL
USER_CHARGES


@<TRIPOS>ATOM
      1 CA          5.3920   -9.6110  -49.1501 C.3       0 UNK        -0.1800 
      2 C           4.3447  -10.6255  -48.7132 C.2       0 UNK         0.5000 
      3 O           3.2410  -10.2357  -48.3324 O.2       0 UNK        -0.5000 
      4 N           4.6937  -11.9195  -48.7640 N.am      1 UNK        -0.5000 
      5 CA          3.8460  -13.0705  -48.4082 C.3       1 UNK         0.1400 
      6 C6          2.6057  -13.2510  -49.3309 C.3       23 UNK        -0.0398 
      7 S7          3.0424  -13.2830  -51.1074 S.3       23 UNK        -0.2404 
      8 C8          3.0885  -15.0658  -51.4741 C.3       23 UNK        -0.0205 
      9 C9          1.7127  -15.6140  -51.8239 C.ar      23 UNK        -0.0193 
     10 C10         1.2315  -15.5269  -53.1350 C.ar      23 UNK        -0.1150 
     11 C11        -0.0263  -16.0423  -53.4646 C.ar      23 UNK        -0.0193 
     12 C12        -0.8003  -16.6538  -52.4752 C.ar      23 UNK        -0.1150 
     13 C13        -0.3281  -16.7526  -51.1648 C.ar      23 UNK        -0.0193 
     14 C14         0.9266  -16.2254  -50.8438 C.ar      23 UNK        -0.1150 
     15 C15        -1.1875  -17.3965  -50.0907 C.3       23 UNK        -0.0205 
     16 S16        -0.3822  -18.8489  -49.3438 S.3       23 UNK        -0.2404 
     17 C17        -1.5102  -19.1548  -47.9483 C.3       23 UNK        -0.0398 
     18 CA         -1.9927  -20.6207  -47.8969 C.3       11 UNK         0.1400 
     19 N          -0.8886  -21.5384  -47.6010 N.am      11 UNK        -0.5000 
     20 C          -0.9768  -22.8508  -47.3418 C.2       10 UNK         0.5000 
     21 O          -2.0195  -23.4986  -47.4277 O.2       10 UNK        -0.5000 
     22 CA          0.3003  -23.5463  -46.8364 C.3       10 UNK         0.1400 
     23 CB          1.0079  -24.2556  -47.9995 C.3       10 UNK        -0.1800 
     24 N           1.2508  -22.6472  -46.1696 N.am      10 UNK        -0.5000 
     25 C           0.9908  -21.8309  -45.1367 C.2       9 UNK         0.5000 
     26 O          -0.1130  -21.7386  -44.5878 O.2       9 UNK        -0.5000 
     27 CA          2.1424  -20.8894  -44.7442 C.3       9 UNK         0.1400 
     28 CB          2.2771  -19.7727  -45.7929 C.3       9 UNK        -0.1800 
     29 N           1.9584  -20.2810  -43.4281 N.am      9 UNK        -0.5000 
     30 C           2.0781  -20.9274  -42.2603 C.2       8 UNK         0.5000 
     31 O           2.3729  -22.1195  -42.1640 O.2       8 UNK        -0.5000 
     32 CA          1.8505  -20.0990  -40.9839 C.3       8 UNK         0.1400 
     33 CB          3.1721  -19.4698  -40.5149 C.3       8 UNK        -0.1800 
     34 N           0.8779  -19.0306  -41.2013 N.am      8 UNK        -0.5000 
     35 C          -0.4344  -19.1211  -40.9565 C.2       7 UNK         0.5000 
     36 O          -0.9699  -20.1225  -40.4786 O.2       7 UNK        -0.5000 
     37 CA         -1.2854  -17.8837  -41.3188 C.3       7 UNK         0.1400 
     38 CB         -2.6247  -17.8225  -40.5549 C.3       7 UNK        -0.1800 
     39 N          -0.5551  -16.6167  -41.1980 N.am      7 UNK        -0.5000 
     40 C          -0.0323  -16.0712  -40.0883 C.2       6 UNK         0.5000 
     41 O          -0.1307  -16.5714  -38.9673 O.2       6 UNK        -0.5000 
     42 CA          0.7576  -14.7545  -40.2501 C.3       6 UNK         0.1400 
     43 CB          2.2534  -15.0038  -39.9979 C.3       6 UNK        -0.1800 
     44 N           0.6053  -14.1334  -41.5677 N.am      6 UNK        -0.5000 
     45 C          -0.4804  -13.4758  -41.9975 C.2       5 UNK         0.5000 
     46 O          -1.4642  -13.2446  -41.2944 O.2       5 UNK        -0.5000 
     47 CA         -0.4843  -13.0560  -43.4819 C.3       5 UNK         0.1400 
     48 CB          0.2217  -11.7055  -43.6752 C.3       5 UNK        -0.1800 
     49 N           0.1331  -14.0618  -44.3523 N.am      5 UNK        -0.5000 
     50 C          -0.3485  -15.2994  -44.5411 C.2       4 UNK         0.5000 
     51 O          -1.3952  -15.7110  -44.0432 O.2       4 UNK        -0.5000 
     52 CA          0.5146  -16.2627  -45.3679 C.3       4 UNK         0.1400 
     53 CB          0.2591  -16.0833  -46.8693 C.3       4 UNK        -0.1800 
     54 N           1.9361  -16.0872  -45.0747 N.am      4 UNK        -0.5000 
     55 C           2.5372  -16.5791  -43.9822 C.2       3 UNK         0.5000 
     56 O           1.9674  -17.3031  -43.1651 O.2       3 UNK        -0.5000 
     57 CA          4.0100  -16.1924  -43.7472 C.3       3 UNK         0.1400 
     58 CB          4.9496  -17.2611  -44.3223 C.3       3 UNK        -0.1800 
     59 N           4.3591  -14.8855  -44.3076 N.am      3 UNK        -0.5000 
     60 C           3.8843  -13.7206  -43.8462 C.2       2 UNK         0.5000 
     61 O           3.1257  -13.6326  -42.8823 O.2       2 UNK        -0.5000 
     62 CA          4.2774  -12.4469  -44.6166 C.3       2 UNK         0.1400 
     63 CB          5.5687  -11.8475  -44.0410 C.3       2 UNK        -0.1800 
     64 N           4.4360  -12.6376  -46.0616 N.am      2 UNK        -0.5000 
     65 C           3.4856  -13.0763  -46.9020 C.2       1 UNK         0.5000 
     66 O           2.3819  -13.4721  -46.5218 O.2       1 UNK        -0.5000 
     67 C          -3.1576  -20.7371  -46.8947 C.2       11 UNK         0.5000 
     68 O          -4.3135  -20.7124  -47.3172 O.2       11 UNK        -0.5000 
     69 N          -2.8203  -20.8890  -45.6076 N.am      12 UNK        -0.5000 
     70 CA         -3.7694  -21.1048  -44.5222 C.3       12 UNK         0.1400 
     71 CB         -3.4125  -20.1752  -43.3537 C.3       12 UNK        -0.1800 
     72 C          -3.7521  -22.5711  -44.0660 C.2       12 UNK         0.5000 
     73 O          -4.8195  -23.1549  -43.8816 O.2       12 UNK        -0.5000 
     74 N          -2.5509  -23.1460  -43.8996 N.am      13 UNK        -0.5000 
     75 CA         -2.3440  -24.4715  -43.3077 C.3       13 UNK         0.1400 
     76 CB         -0.8555  -24.6486  -42.9701 C.3       13 UNK        -0.1800 
     77 C          -2.8581  -25.6451  -44.1649 C.2       13 UNK         0.5000 
     78 O          -3.2336  -26.6753  -43.6040 O.2       13 UNK        -0.5000 
     79 N          -2.8795  -25.4709  -45.4917 N.am      14 UNK        -0.5000 
     80 CA         -3.3956  -26.4366  -46.4656 C.3       14 UNK         0.1400 
     81 CB         -2.2222  -26.9503  -47.3190 C.3       14 UNK        -0.1800 
     82 C          -4.4994  -25.8176  -47.3474 C.2       14 UNK         0.5000 
     83 O          -4.9253  -26.4528  -48.3125 O.2       14 UNK        -0.5000 
     84 N          -4.9274  -24.5881  -47.0156 N.am      15 UNK        -0.5000 
     85 CA         -5.8938  -23.7474  -47.7323 C.3       15 UNK         0.1400 
     86 CB         -7.3035  -24.3714  -47.6814 C.3       15 UNK        -0.1800 
     87 C          -5.4641  -23.3889  -49.1729 C.2       15 UNK         0.5000 
     88 O          -6.3217  -23.0998  -50.0108 O.2       15 UNK        -0.5000 
     89 N          -4.1498  -23.3937  -49.4502 N.am      16 UNK        -0.5000 
     90 CA         -3.5611  -23.2389  -50.7870 C.3       16 UNK         0.1400 
     91 CB         -2.0509  -23.5117  -50.7206 C.3       16 UNK        -0.1800 
     92 C          -3.8436  -21.8875  -51.4728 C.2       16 UNK         0.5000 
     93 O          -3.6589  -21.7833  -52.6832 O.2       16 UNK        -0.5000 
     94 N          -4.3302  -20.8949  -50.7140 N.am      17 UNK        -0.5000 
     95 CA         -4.8312  -19.6231  -51.2340 C.3       17 UNK         0.1400 
     96 CB         -5.1365  -18.6871  -50.0556 C.3       17 UNK        -0.1800 
     97 C          -6.0794  -19.7871  -52.1259 C.2       17 UNK         0.5000 
     98 O          -6.2919  -18.9574  -53.0105 O.2       17 UNK        -0.5000 
     99 N          -6.8628  -20.8490  -51.8895 N.am      18 UNK        -0.5000 
    100 CA        -8.0366  -21.2186  -52.6793 C.3       18 UNK         0.1400 
    101 CB        -9.2719  -21.2154  -51.7650 C.3       18 UNK        -0.1800 
    102 C         -7.8668  -22.5975  -53.3406 C.2       18 UNK         0.5000 
    103 O         -8.3504  -22.7935  -54.4559 O.2       18 UNK        -0.5000 
    104 N         -7.2028  -23.5345  -52.6488 N.am      19 UNK        -0.5000 
    105 CA        -7.0502  -24.9291  -53.0702 C.3       19 UNK         0.1400 
    106 CB        -6.7913  -25.7960  -51.8262 C.3       19 UNK        -0.1800 
    107 C         -5.9528  -25.1606  -54.1284 C.2       19 UNK         0.5000 
    108 O         -5.8778  -26.2654  -54.6688 O.2       19 UNK        -0.5000 
    109 N         -5.1191  -24.1510  -54.4038 N.am      20 UNK        -0.5000 
    110 CA        -4.0343  -24.2039  -55.3813 C.3       20 UNK         0.1400 
    111 CB        -2.7086  -24.4953  -54.6532 C.3       20 UNK        -0.1800 
    112 C         -3.9769  -22.8947  -56.1867 C.2       20 UNK         0.5000 
    113 O         -4.7728  -21.9791  -55.9523 O.2       20 UNK        -0.5000 
    114 N         -3.0416  -22.8449  -57.1460 N.am      21 UNK        -0.5000 
    115 CA        -2.7816  -21.7054  -58.0283 C.3       21 UNK         0.1400 
    116 CB        -1.6351  -22.0624  -58.9870 C.3       21 UNK        -0.1800 
    117 C         -2.4571  -20.4160  -57.2497 C.2       21 UNK         0.5000 
    118 O         -1.7220  -20.4716  -56.2637 O.2       21 UNK        -0.5000 
    119 N         -3.0386  -19.3046  -57.7146 N.am      22 UNK        -0.5000 
    120 CA        -3.0592  -17.9657  -57.0979 C.3       22 UNK         0.1400 
    121 C         -3.8662  -17.8426  -55.7666 C.2       22 UNK         0.5000 
    122 N         -4.5459  -18.8829  -55.2981 N.am      22 UNK        -0.7600 
    123 O         -3.9388  -16.7635  -55.1860 O.2       22 UNK        -0.5000 
    124 C124       -1.6856  -17.2232  -57.1270 C.3       23 UNK        -0.0398 
    125 S125       -0.5377  -17.5329  -55.7357 S.3       23 UNK        -0.2404 
    126 C126       -0.5718  -15.9273  -54.8787 C.3       23 UNK        -0.0205 
    127 H127        5.6207   -8.9308  -48.3296 H         1 UNK         0.0600 
    128 H128        5.0173   -9.0229  -49.9879 H         1 UNK         0.0600 
    129 H129        6.3194  -10.0926  -49.4612 H         1 UNK         0.0600 
    130 H130        5.6166  -12.1576  -49.0996 H         1 UNK         0.3000 
    131 H131        4.4745  -13.9508  -48.5506 H         1 UNK         0.0600 
    132 H132        2.0708  -14.1668  -49.0787 H         1 UNK         0.0800 
    133 H133        1.8938  -12.4393  -49.1742 H         1 UNK         0.0800 
    134 H134        3.5192  -15.6092  -50.6315 H         1 UNK         0.0800 
    135 H135        3.7651  -15.2300  -52.3140 H         1 UNK         0.0800 
    136 H136        1.8354  -15.0531  -53.8963 H         1 UNK         0.1150 
    137 H137       -1.7731  -17.0504  -52.7325 H         1 UNK         0.1150 
    138 H138        1.2922  -16.3014  -49.8301 H         1 UNK         0.1150 
    139 H139       -1.3971  -16.6492  -49.3257 H         1 UNK         0.0800 
    140 H140       -2.1518  -17.7010  -50.4998 H         1 UNK         0.0800 
    141 H141       -2.3583  -18.4719  -48.0225 H         1 UNK         0.0800 
    142 H142       -0.9944  -18.8878  -47.0244 H         1 UNK         0.0800 
    143 H143       -2.3797  -20.8929  -48.8773 H         1 UNK         0.0600 
    144 H144        0.0233  -21.1123  -47.5363 H         1 UNK         0.3000 
    145 H145       -0.0081  -24.3031  -46.1149 H         1 UNK         0.0600 
    146 H146        0.3330  -24.9451  -48.5085 H         1 UNK         0.0600 
    147 H147        1.8587  -24.8392  -47.6473 H         1 UNK         0.0600 
    148 H148        1.3711  -23.5452  -48.7433 H         1 UNK         0.0600 
    149 H149        2.1825  -22.6376  -46.5594 H         1 UNK         0.3000 
    150 H150        3.0684  -21.4679  -44.7269 H         1 UNK         0.0600 
    151 H151        1.3723  -19.1692  -45.8570 H         1 UNK         0.0600 
    152 H152        2.4680  -20.1783  -46.7872 H         1 UNK         0.0600 
    153 H153        3.1083  -19.1104  -45.5597 H         1 UNK         0.0600 
    154 H154        1.7255  -19.2955  -43.4077 H         1 UNK         0.3000 
    155 H155        1.4964  -20.7730  -40.2011 H         1 UNK         0.0600 
    156 H156        3.5816  -18.7869  -41.2606 H         1 UNK         0.0600 
    157 H157        3.9235  -20.2367  -40.3226 H         1 UNK         0.0600 
    158 H158        3.0339  -18.9098  -39.5898 H         1 UNK         0.0600 
    159 H159        1.2270  -18.1927  -41.6578 H         1 UNK         0.3000 
    160 H160       -1.5196  -17.9882  -42.3786 H         1 UNK         0.0600 
    161 H161       -3.2320  -18.7057  -40.7534 H         1 UNK         0.0600 
    162 H162       -3.2098  -16.9541  -40.8576 H         1 UNK         0.0600 
    163 H163       -2.4755  -17.7685  -39.4764 H         1 UNK         0.0600 
    164 H164       -0.4324  -16.1130  -42.0663 H         1 UNK         0.3000 
    165 H165        0.3927  -14.0568  -39.4937 H         1 UNK         0.0600 
    166 H166        2.8251  -14.0779  -40.0639 H         1 UNK         0.0600 
    167 H167        2.4213  -15.4182  -39.0031 H         1 UNK         0.0600 
    168 H168        2.6688  -15.7071  -40.7203 H         1 UNK         0.0600 
    169 H169        1.4099  -14.1889  -42.1857 H         1 UNK         0.3000 
    170 H170       -1.5250  -12.9420  -43.7922 H         1 UNK         0.0600 
    171 H171        0.2068  -11.3971  -44.7208 H         1 UNK         0.0600 
    172 H172        1.2613  -11.7420  -43.3510 H         1 UNK         0.0600 
    173 H173       -0.2724  -10.9236  -43.0975 H         1 UNK         0.0600 
    174 H174        0.9906  -13.8002  -44.8233 H         1 UNK         0.3000 
    175 H175        0.2199  -17.2790  -45.0993 H         1 UNK         0.0600 
    176 H176       -0.7881  -16.2766  -47.1008 H         1 UNK         0.0600 
    177 H177        0.4822  -15.0728  -47.2094 H         1 UNK         0.0600 
    178 H178        0.8614  -16.7773  -47.4547 H         1 UNK         0.0600 
    179 H179        2.4436  -15.4471  -45.6720 H         1 UNK         0.3000 
    180 H180        4.1676  -16.1514  -42.6675 H         1 UNK         0.0600 
    181 H181        4.8572  -17.3389  -45.4062 H         1 UNK         0.0600 
    182 H182        4.7305  -18.2424  -43.8987 H         1 UNK         0.0600 
    183 H183        5.9905  -17.0357  -44.0899 H         1 UNK         0.0600 
    184 H184        4.9769  -14.8748  -45.1058 H         1 UNK         0.3000 
    185 H185        3.4743  -11.7215  -44.4732 H         1 UNK         0.0600 
    186 H186        5.4735  -11.6710  -42.9687 H         1 UNK         0.0600 
    187 H187        6.4219  -12.5103  -44.1905 H         1 UNK         0.0600 
    188 H188        5.8010  -10.8894  -44.5065 H         1 UNK         0.0600 
    189 H189        5.3109  -12.3292  -46.4601 H         1 UNK         0.3000 
    190 H190       -1.8380  -20.9578  -45.3648 H         1 UNK         0.3000 
    191 H191       -4.7848  -20.8650  -44.8454 H         1 UNK         0.0600 
    192 H192       -3.4715  -19.1284  -43.6520 H         1 UNK         0.0600 
    193 H193       -4.0999  -20.3159  -42.5186 H         1 UNK         0.0600 
    194 H194       -2.4036  -20.3636  -42.9854 H         1 UNK         0.0600 
    195 H195       -1.7109  -22.6024  -44.0792 H         1 UNK         0.3000 
    196 H196       -2.8999  -24.4975  -42.3680 H         1 UNK         0.0600 
    197 H197       -0.6793  -25.6011  -42.4687 H         1 UNK         0.0600 
    198 H198       -0.5058  -23.8607  -42.3022 H         1 UNK         0.0600 
    199 H199       -0.2306  -24.6284  -43.8615 H         1 UNK         0.0600 
    200 H200       -2.5421  -24.5997  -45.8872 H         1 UNK         0.3000 
    201 H201       -3.8492  -27.2898  -45.9578 H         1 UNK         0.0600 
    202 H202       -2.5484  -27.7333  -48.0045 H         1 UNK         0.0600 
    203 H203       -1.4359  -27.3743  -46.6943 H         1 UNK         0.0600 
    204 H204       -1.7817  -26.1537  -47.9186 H         1 UNK         0.0600 
    205 H205       -4.5319  -24.1749  -46.1835 H         1 UNK         0.3000 
    206 H206       -5.9370  -22.8051  -47.1859 H         1 UNK         0.0600 
    207 H207       -7.5905  -24.6147  -46.6584 H         1 UNK         0.0600 
    208 H208       -8.0522  -23.6806  -48.0709 H         1 UNK         0.0600 
    209 H209       -7.3642  -25.2845  -48.2744 H         1 UNK         0.0600 
    210 H210       -3.5003  -23.5944  -48.6952 H         1 UNK         0.3000 
    211 H211       -4.0055  -24.0085  -51.4204 H         1 UNK         0.0600 
    212 H212       -1.5193  -22.7183  -50.1976 H         1 UNK         0.0600 
    213 H213       -1.6231  -23.5760  -51.7213 H         1 UNK         0.0600 
    214 H214       -1.8373  -24.4547  -50.2168 H         1 UNK         0.0600 
    215 H215       -4.4836  -21.0739  -49.7310 H         1 UNK         0.3000 
    216 H216       -4.0440  -19.1716  -51.8418 H         1 UNK         0.0600 
    217 H217       -5.4850  -17.7155  -50.4082 H         1 UNK         0.0600 
    218 H218       -4.2502  -18.5123  -49.4481 H         1 UNK         0.0600 
    219 H219       -5.9097  -19.0988  -49.4055 H         1 UNK         0.0600 
    220 H220       -6.6045  -21.4850  -51.1426 H         1 UNK         0.3000 
    221 H221       -8.2052  -20.4958  -53.4803 H         1 UNK         0.0600 
    222 H222       -9.1629  -21.9192  -50.9385 H         1 UNK         0.0600 
    223 H223       -9.4435  -20.2259  -51.3412 H         1 UNK         0.0600 
    224 H224      -10.1699  -21.4927  -52.3186 H         1 UNK         0.0600 
    225 H225       -6.8685  -23.3189  -51.7127 H         1 UNK         0.3000 
    226 H226       -7.9933  -25.2580  -53.5116 H         1 UNK         0.0600 
    227 H227       -6.7746  -26.8557  -52.0838 H         1 UNK         0.0600 
    228 H228       -5.8351  -25.5608  -51.3592 H         1 UNK         0.0600 
    229 H229       -7.5714  -25.6580  -51.0772 H         1 UNK         0.0600 
    230 H230       -5.2715  -23.2439  -53.9815 H         1 UNK         0.3000 
    231 H231       -4.2228  -25.0039  -56.1001 H         1 UNK         0.0600 
    232 H232       -2.3988  -23.6552  -54.0327 H         1 UNK         0.0600 
    233 H233       -1.9027  -24.6908  -55.3607 H         1 UNK         0.0600 
    234 H234       -2.7921  -25.3729  -54.0119 H         1 UNK         0.0600 
    235 H235       -2.4218  -23.6337  -57.2542 H         1 UNK         0.3000 
    236 H236       -3.6855  -21.5425  -58.6188 H         1 UNK         0.0600 
    237 H237       -0.7110  -22.2726  -58.4467 H         1 UNK         0.0600 
    238 H238       -1.8799  -22.9376  -59.5891 H         1 UNK         0.0600 
    239 H239       -1.4323  -21.2415  -59.6761 H         1 UNK         0.0600 
    240 H240       -3.6253  -19.3918  -58.5323 H         1 UNK         0.3000 
    241 H241       -3.6861  -17.4085  -57.7952 H         1 UNK         0.0600 
    242 H242       -5.1185  -18.7733  -54.4667 H         1 UNK         0.3800 
    243 H243       -4.4909  -19.7924  -55.7374 H         1 UNK         0.3800 
    244 H244       -1.8688  -16.1494  -57.1852 H         1 UNK         0.0800 
    245 H245       -1.1598  -17.4661  -58.0510 H         1 UNK         0.0800 
    246 H246       -1.5946  -15.5522  -54.8301 H         1 UNK         0.0800 
    247 H247       -0.0025  -15.1982  -55.4572 H         1 UNK         0.0800 
@<TRIPOS>BOND
     1    1    2 1    
     2    1  127 1    
     3    1  128 1    
     4    1  129 1    
     5    2    3 2    
     6    2    4 am   BACKBONE|DICT|INTERRES
     7    4    5 1    
     8    4  130 1    
     9    5    6 1    
    10    5   65 1    
    11    5  131 1    
    12    6    7 1    
    13    6  132 1    
    14    6  133 1    
    15    7    8 1    
    16    8    9 1    
    17    8  134 1    
    18    8  135 1    
    19    9   10 ar   
    20    9   14 ar   
    21   10   11 ar   
    22   10  136 1    
    23   11   12 ar   
    24   11  126 1    
    25   12   13 ar   
    26   12  137 1    
    27   13   14 ar   
    28   13   15 1    
    29   14  138 1    
    30   15   16 1    
    31   15  139 1    
    32   15  140 1    
    33   16   17 1    
    34   17   18 1    
    35   17  141 1    
    36   17  142 1    
    37   18   19 1    
    38   18   67 1    
    39   18  143 1    
    40   19   20 am   BACKBONE|DICT|INTERRES
    41   19  144 1    
    42   20   21 2    
    43   20   22 1    
    44   22   23 1    
    45   22   24 1    
    46   22  145 1    
    47   23  146 1    
    48   23  147 1    
    49   23  148 1    
    50   24   25 am   BACKBONE|DICT|INTERRES
    51   24  149 1    
    52   25   26 2    
    53   25   27 1    
    54   27   28 1    
    55   27   29 1    
    56   27  150 1    
    57   28  151 1    
    58   28  152 1    
    59   28  153 1    
    60   29   30 am   BACKBONE|DICT|INTERRES
    61   29  154 1    
    62   30   31 2    
    63   30   32 1    
    64   32   33 1    
    65   32   34 1    
    66   32  155 1    
    67   33  156 1    
    68   33  157 1    
    69   33  158 1    
    70   34   35 am   BACKBONE|DICT|INTERRES
    71   34  159 1    
    72   35   36 2    
    73   35   37 1    
    74   37   38 1    
    75   37   39 1    
    76   37  160 1    
    77   38  161 1    
    78   38  162 1    
    79   38  163 1    
    80   39   40 am   BACKBONE|DICT|INTERRES
    81   39  164 1    
    82   40   41 2    
    83   40   42 1    
    84   42   43 1    
    85   42   44 1    
    86   42  165 1    
    87   43  166 1    
    88   43  167 1    
    89   43  168 1    
    90   44   45 am   BACKBONE|DICT|INTERRES
    91   44  169 1    
    92   45   46 2    
    93   45   47 1    
    94   47   48 1    
    95   47   49 1    
    96   47  170 1    
    97   48  171 1    
    98   48  172 1    
    99   48  173 1    
   100   49   50 am   BACKBONE|DICT|INTERRES
   101   49  174 1    
   102   50   51 2    
   103   50   52 1    
   104   52   53 1    
   105   52   54 1    
   106   52  175 1    
   107   53  176 1    
   108   53  177 1    
   109   53  178 1    
   110   54   55 am   BACKBONE|DICT|INTERRES
   111   54  179 1    
   112   55   56 2    
   113   55   57 1    
   114   57   58 1    
   115   57   59 1    
   116   57  180 1    
   117   58  181 1    
   118   58  182 1    
   119   58  183 1    
   120   59   60 am   BACKBONE|DICT|INTERRES
   121   59  184 1    
   122   60   61 2    
   123   60   62 1    
   124   62   63 1    
   125   62   64 1    
   126   62  185 1    
   127   63  186 1    
   128   63  187 1    
   129   63  188 1    
   130   64   65 am   BACKBONE|DICT|INTERRES
   131   64  189 1    
   132   65   66 2    
   133   67   68 2    
   134   67   69 am   BACKBONE|DICT|INTERRES
   135   69   70 1    
   136   69  190 1    
   137   70   71 1    
   138   70   72 1    
   139   70  191 1    
   140   71  192 1    
   141   71  193 1    
   142   71  194 1    
   143   72   73 2    
   144   72   74 am   BACKBONE|DICT|INTERRES
   145   74   75 1    
   146   74  195 1    
   147   75   76 1    
   148   75   77 1    
   149   75  196 1    
   150   76  197 1    
   151   76  198 1    
   152   76  199 1    
   153   77   78 2    
   154   77   79 am   BACKBONE|DICT|INTERRES
   155   79   80 1    
   156   79  200 1    
   157   80   81 1    
   158   80   82 1    
   159   80  201 1    
   160   81  202 1    
   161   81  203 1    
   162   81  204 1    
   163   82   83 2    
   164   82   84 am   BACKBONE|DICT|INTERRES
   165   84   85 1    
   166   84  205 1    
   167   85   86 1    
   168   85   87 1    
   169   85  206 1    
   170   86  207 1    
   171   86  208 1    
   172   86  209 1    
   173   87   88 2    
   174   87   89 am   BACKBONE|DICT|INTERRES
   175   89   90 1    
   176   89  210 1    
   177   90   91 1    
   178   90   92 1    
   179   90  211 1    
   180   91  212 1    
   181   91  213 1    
   182   91  214 1    
   183   92   93 2    
   184   92   94 am   BACKBONE|DICT|INTERRES
   185   94   95 1    
   186   94  215 1    
   187   95   96 1    
   188   95   97 1    
   189   95  216 1    
   190   96  217 1    
   191   96  218 1    
   192   96  219 1    
   193   97   98 2    
   194   97   99 am   BACKBONE|DICT|INTERRES
   195   99  100 1    
   196   99  220 1    
   197  100  101 1    
   198  100  102 1    
   199  100  221 1    
   200  101  222 1    
   201  101  223 1    
   202  101  224 1    
   203  102  103 2    
   204  102  104 am   BACKBONE|DICT|INTERRES
   205  104  105 1    
   206  104  225 1    
   207  105  106 1    
   208  105  107 1    
   209  105  226 1    
   210  106  227 1    
   211  106  228 1    
   212  106  229 1    
   213  107  108 2    
   214  107  109 am   BACKBONE|DICT|INTERRES
   215  109  110 1    
   216  109  230 1    
   217  110  111 1    
   218  110  112 1    
   219  110  231 1    
   220  111  232 1    
   221  111  233 1    
   222  111  234 1    
   223  112  113 2    
   224  112  114 am   BACKBONE|DICT|INTERRES
   225  114  115 1    
   226  114  235 1    
   227  115  116 1    
   228  115  117 1    
   229  115  236 1    
   230  116  237 1    
   231  116  238 1    
   232  116  239 1    
   233  117  118 2    
   234  117  119 am   BACKBONE|DICT|INTERRES
   235  119  120 1    
   236  119  240 1    
   237  120  121 1    
   238  120  124 1    
   239  120  241 1    
   240  121  122 am   BACKBONE|DICT|INTERRES
   241  121  123 2    
   242  122  242 1    
   243  122  243 1    
   244  124  125 1    
   245  124  244 1    
   246  124  245 1    
   247  125  126 1    
   248  126  246 1    
   249  126  247 1    
@<TRIPOS>SUBSTRUCTURE
     1 UNK         1 GROUP             0       ****    0 ROOT    
