@<TRIPOS>MOLECULE
3R540
247   249    1
SMALL
USER_CHARGES


@<TRIPOS>ATOM
      1 CA          6.3324  -13.0082  -50.7112 C.3       0 UNK        -0.1800 
      2 C           5.3345  -12.5275  -49.6671 C.2       0 UNK         0.5000 
      3 O           5.1009  -11.3240  -49.5567 O.2       0 UNK        -0.5000 
      4 N           4.7541  -13.4654  -48.9047 N.am      1 UNK        -0.5000 
      5 CA          3.7574  -13.2404  -47.8462 C.3       1 UNK         0.1400 
      6 C6          2.3979  -12.6900  -48.3618 C.3       23 UNK        -0.0398 
      7 S7          1.6260  -13.7942  -49.5879 S.3       23 UNK        -0.2404 
      8 C8          0.6159  -14.8395  -48.4955 C.3       23 UNK        -0.0205 
      9 C9          0.1669  -16.0995  -49.2128 C.ar      23 UNK        -0.0193 
     10 C10        -1.1588  -16.2497  -49.6293 C.ar      23 UNK        -0.1150 
     11 C11        -1.5726  -17.4227  -50.2680 C.ar      23 UNK        -0.0193 
     12 C12        -0.6419  -18.4368  -50.5105 C.ar      23 UNK        -0.1150 
     13 C13         0.6841  -18.3018  -50.0886 C.ar      23 UNK        -0.0193 
     14 C14         1.0812  -17.1318  -49.4382 C.ar      23 UNK        -0.1150 
     15 C15         1.6869  -19.4225  -50.3211 C.3       23 UNK        -0.0205 
     16 S16         1.8727  -20.4820  -48.8507 S.3       23 UNK        -0.2404 
     17 C17         0.2114  -21.2224  -48.7643 C.3       23 UNK        -0.0398 
     18 CA          0.1045  -22.3774  -47.7475 C.3       11 UNK         0.1400 
     19 N           0.3323  -21.9362  -46.3667 N.am      11 UNK        -0.5000 
     20 C           0.4842  -22.7681  -45.3269 C.2       10 UNK         0.5000 
     21 O           0.4787  -23.9938  -45.4304 O.2       10 UNK        -0.5000 
     22 CA          0.6000  -22.1337  -43.9300 C.3       10 UNK         0.1400 
     23 CB          2.0125  -21.5829  -43.6845 C.3       10 UNK        -0.1800 
     24 N          -0.3980  -21.0862  -43.7102 N.am      10 UNK        -0.5000 
     25 C          -1.7210  -21.3043  -43.6875 C.2       9 UNK         0.5000 
     26 O          -2.2286  -22.4197  -43.7972 O.2       9 UNK        -0.5000 
     27 CA         -2.6379  -20.0752  -43.5621 C.3       9 UNK         0.1400 
     28 CB         -2.7929  -19.6657  -42.0905 C.3       9 UNK        -0.1800 
     29 N          -2.1757  -18.9329  -44.3505 N.am      9 UNK        -0.5000 
     30 C          -2.0602  -18.9224  -45.6866 C.2       8 UNK         0.5000 
     31 O          -2.3664  -19.8712  -46.4082 O.2       8 UNK        -0.5000 
     32 CA         -1.4432  -17.6618  -46.3184 C.3       8 UNK         0.1400 
     33 CB         -2.4737  -16.5260  -46.4043 C.3       8 UNK        -0.1800 
     34 N          -0.2526  -17.1991  -45.6034 N.am      8 UNK        -0.5000 
     35 C           0.8632  -17.9281  -45.4539 C.2       7 UNK         0.5000 
     36 O           1.0189  -19.0500  -45.9337 O.2       7 UNK        -0.5000 
     37 CA          1.9581  -17.3341  -44.5525 C.3       7 UNK         0.1400 
     38 CB          2.8060  -16.2951  -45.3056 C.3       7 UNK        -0.1800 
     39 N           1.3860  -16.7504  -43.3375 N.am      7 UNK        -0.5000 
     40 C           0.8386  -17.4770  -42.3506 C.2       6 UNK         0.5000 
     41 O           0.8452  -18.7073  -42.3272 O.2       6 UNK        -0.5000 
     42 CA          0.1133  -16.7097  -41.2306 C.3       6 UNK         0.1400 
     43 CB          1.0656  -16.3806  -40.0737 C.3       6 UNK        -0.1800 
     44 N          -0.5245  -15.4864  -41.7197 N.am      6 UNK        -0.5000 
     45 C          -1.6333  -15.4877  -42.4745 C.2       5 UNK         0.5000 
     46 O          -2.2269  -16.5138  -42.8014 O.2       5 UNK        -0.5000 
     47 CA         -2.1539  -14.1323  -42.9858 C.3       5 UNK         0.1400 
     48 CB         -3.1842  -13.5495  -42.0077 C.3       5 UNK        -0.1800 
     49 N          -1.1001  -13.1461  -43.2176 N.am      5 UNK        -0.5000 
     50 C          -0.0987  -13.2752  -44.0973 C.2       4 UNK         0.5000 
     51 O           0.0500  -14.2632  -44.8200 O.2       4 UNK        -0.5000 
     52 CA          0.9257  -12.1238  -44.1665 C.3       4 UNK         0.1400 
     53 CB          0.5054  -10.8549  -43.3915 C.3       4 UNK        -0.1800 
     54 N           2.2667  -12.5399  -43.7463 N.am      4 UNK        -0.5000 
     55 C           2.6208  -13.1242  -42.5898 C.2       3 UNK         0.5000 
     56 O           1.8111  -13.4502  -41.7206 O.2       3 UNK        -0.5000 
     57 CA          4.1239  -13.3981  -42.3597 C.3       3 UNK         0.1400 
     58 CB          4.3726  -14.8271  -41.8479 C.3       3 UNK        -0.1800 
     59 N           4.9207  -13.1840  -43.5709 N.am      3 UNK        -0.5000 
     60 C           5.6451  -12.0873  -43.8317 C.2       2 UNK         0.5000 
     61 O           5.7743  -11.1458  -43.0486 O.2       2 UNK        -0.5000 
     62 CA          6.3149  -12.0158  -45.2195 C.3       2 UNK         0.1400 
     63 CB          7.7441  -12.5755  -45.1566 C.3       2 UNK        -0.1800 
     64 N           5.5751  -12.7098  -46.2806 N.am      2 UNK        -0.5000 
     65 C           4.3302  -12.4069  -46.6784 C.2       1 UNK         0.5000 
     66 O           3.6475  -11.5295  -46.1480 O.2       1 UNK        -0.5000 
     67 C          -1.2475  -23.1058  -47.9107 C.2       11 UNK         0.5000 
     68 O          -1.3199  -24.0939  -48.6442 O.2       11 UNK        -0.5000 
     69 N          -2.2918  -22.6295  -47.2175 N.am      12 UNK        -0.5000 
     70 CA         -3.6068  -23.2678  -47.1660 C.3       12 UNK         0.1400 
     71 CB         -4.6198  -22.3391  -46.4826 C.3       12 UNK        -0.1800 
     72 C          -3.5644  -24.6464  -46.4831 C.2       12 UNK         0.5000 
     73 O          -4.1514  -25.5938  -47.0024 O.2       12 UNK        -0.5000 
     74 N          -2.8380  -24.7531  -45.3639 N.am      13 UNK        -0.5000 
     75 CA         -2.6139  -26.0113  -44.6521 C.3       13 UNK         0.1400 
     76 CB         -1.9522  -25.7222  -43.2959 C.3       13 UNK        -0.1800 
     77 C          -1.7765  -27.0166  -45.4656 C.2       13 UNK         0.5000 
     78 O          -2.0887  -28.2081  -45.4627 O.2       13 UNK        -0.5000 
     79 N          -0.7315  -26.5207  -46.1409 N.am      14 UNK        -0.5000 
     80 CA          0.2053  -27.3285  -46.9168 C.3       14 UNK         0.1400 
     81 CB          1.4978  -26.5301  -47.1495 C.3       14 UNK        -0.1800 
     82 C          -0.3634  -27.8204  -48.2585 C.2       14 UNK         0.5000 
     83 O          -0.1767  -28.9925  -48.5892 O.2       14 UNK        -0.5000 
     84 N          -0.9938  -26.9198  -49.0255 N.am      15 UNK        -0.5000 
     85 CA         -1.2815  -27.1342  -50.4471 C.3       15 UNK         0.1400 
     86 CB         -0.2079  -26.3953  -51.2682 C.3       15 UNK        -0.1800 
     87 C          -2.6937  -26.7035  -50.8801 C.2       15 UNK         0.5000 
     88 O          -2.9912  -26.7935  -52.0721 O.2       15 UNK        -0.5000 
     89 N          -3.5343  -26.2319  -49.9445 N.am      16 UNK        -0.5000 
     90 CA         -4.8847  -25.6939  -50.1835 C.3       16 UNK         0.1400 
     91 CB         -5.8446  -26.7948  -50.6820 C.3       16 UNK        -0.1800 
     92 C          -4.8881  -24.4415  -51.0868 C.2       16 UNK         0.5000 
     93 O          -5.8613  -24.1970  -51.8010 O.2       16 UNK        -0.5000 
     94 N          -3.7978  -23.6605  -51.0316 N.am      17 UNK        -0.5000 
     95 CA         -3.5184  -22.5278  -51.9182 C.3       17 UNK         0.1400 
     96 CB         -2.1511  -21.9379  -51.5599 C.3       17 UNK        -0.1800 
     97 C          -4.5846  -21.4195  -51.9035 C.2       17 UNK         0.5000 
     98 O          -4.8071  -20.7872  -52.9338 O.2       17 UNK        -0.5000 
     99 N          -5.2508  -21.2219  -50.7586 N.am      18 UNK        -0.5000 
    100 CA        -6.3457  -20.2636  -50.5931 C.3       18 UNK         0.1400 
    101 CB        -6.7344  -20.1933  -49.1094 C.3       18 UNK        -0.1800 
    102 C         -7.5754  -20.5796  -51.4698 C.2       18 UNK         0.5000 
    103 O         -8.2360  -19.6519  -51.9375 O.2       18 UNK        -0.5000 
    104 N         -7.8343  -21.8720  -51.7227 N.am      19 UNK        -0.5000 
    105 CA        -8.8956  -22.3396  -52.6203 C.3       19 UNK         0.1400 
    106 CB        -9.2245  -23.8062  -52.3008 C.3       19 UNK        -0.1800 
    107 C         -8.5243  -22.1754  -54.1078 C.2       19 UNK         0.5000 
    108 O         -9.4170  -22.1022  -54.9521 O.2       19 UNK        -0.5000 
    109 N         -7.2191  -22.0886  -54.3958 N.am      20 UNK        -0.5000 
    110 CA        -6.6452  -21.8229  -55.7154 C.3       20 UNK         0.1400 
    111 CB        -5.3583  -22.6541  -55.8617 C.3       20 UNK        -0.1800 
    112 C         -6.3699  -20.3195  -55.9381 C.2       20 UNK         0.5000 
    113 O         -5.6540  -19.9707  -56.8789 O.2       20 UNK        -0.5000 
    114 N         -6.9057  -19.4568  -55.0582 N.am      21 UNK        -0.5000 
    115 CA        -6.7662  -17.9948  -55.0408 C.3       21 UNK         0.1400 
    116 CB        -7.5201  -17.3677  -56.2318 C.3       21 UNK        -0.1800 
    117 C         -5.2990  -17.5215  -54.9411 C.2       21 UNK         0.5000 
    118 O         -4.9408  -16.4863  -55.5057 O.2       21 UNK        -0.5000 
    119 N         -4.4796  -18.3075  -54.2319 N.am      22 UNK        -0.5000 
    120 CA        -3.0297  -18.1440  -54.0478 C.3       22 UNK         0.1400 
    121 C         -2.1825  -18.4386  -55.3233 C.2       22 UNK         0.5000 
    122 N         -2.7419  -19.0200  -56.3794 N.am      22 UNK        -0.7600 
    123 O         -0.9855  -18.1662  -55.3493 O.2       22 UNK        -0.5000 
    124 C124       -2.6225  -16.8126  -53.3513 C.3       23 UNK        -0.0398 
    125 S125       -3.6146  -16.3969  -51.8720 S.3       23 UNK        -0.2404 
    126 C126       -3.0327  -17.6159  -50.6517 C.3       23 UNK        -0.0205 
    127 H127        7.3117  -12.5669  -50.5254 H         1 UNK         0.0600 
    128 H128        6.0058  -12.7093  -51.7072 H         1 UNK         0.0600 
    129 H129        6.4408  -14.0930  -50.7008 H         1 UNK         0.0600 
    130 H130        4.9936  -14.4334  -49.0672 H         1 UNK         0.3000 
    131 H131        3.5610  -14.2236  -47.4174 H         1 UNK         0.0600 
    132 H132        2.5269  -11.7066  -48.8158 H         1 UNK         0.0800 
    133 H133        1.6946  -12.5507  -47.5391 H         1 UNK         0.0800 
    134 H134        1.1897  -15.1219  -47.6130 H         1 UNK         0.0800 
    135 H135       -0.2408  -14.2679  -48.1350 H         1 UNK         0.0800 
    136 H136       -1.8753  -15.4622  -49.4429 H         1 UNK         0.1150 
    137 H137       -0.9526  -19.3436  -51.0064 H         1 UNK         0.1150 
    138 H138        2.1037  -17.0246  -49.1044 H         1 UNK         0.1150 
    139 H139        1.3913  -20.0309  -51.1773 H         1 UNK         0.0800 
    140 H140        2.6589  -18.9960  -50.5732 H         1 UNK         0.0800 
    141 H141       -0.0195  -21.5841  -49.7658 H         1 UNK         0.0800 
    142 H142       -0.5136  -20.4416  -48.5276 H         1 UNK         0.0800 
    143 H143        0.8828  -23.1047  -47.9882 H         1 UNK         0.0600 
    144 H144        0.3917  -20.9335  -46.2111 H         1 UNK         0.3000 
    145 H145        0.4179  -22.9212  -43.1956 H         1 UNK         0.0600 
    146 H146        2.1149  -21.2009  -42.6687 H         1 UNK         0.0600 
    147 H147        2.7623  -22.3640  -43.8152 H         1 UNK         0.0600 
    148 H148        2.2597  -20.7745  -44.3719 H         1 UNK         0.0600 
    149 H149       -0.0490  -20.1448  -43.5703 H         1 UNK         0.3000 
    150 H150       -3.6229  -20.3566  -43.9389 H         1 UNK         0.0600 
    151 H151       -3.1620  -20.4984  -41.4904 H         1 UNK         0.0600 
    152 H152       -3.5040  -18.8468  -41.9813 H         1 UNK         0.0600 
    153 H153       -1.8437  -19.3464  -41.6604 H         1 UNK         0.0600 
    154 H154       -1.9610  -18.0847  -43.8332 H         1 UNK         0.3000 
    155 H155       -1.1337  -17.9254  -47.3308 H         1 UNK         0.0600 
    156 H156       -2.8770  -16.2696  -45.4252 H         1 UNK         0.0600 
    157 H157       -3.3127  -16.8132  -47.0390 H         1 UNK         0.0600 
    158 H158       -2.0359  -15.6235  -46.8301 H         1 UNK         0.0600 
    159 H159       -0.2878  -16.2713  -45.1957 H         1 UNK         0.3000 
    160 H160        2.6200  -18.1529  -44.2618 H         1 UNK         0.0600 
    161 H161        2.2579  -15.3732  -45.4909 H         1 UNK         0.0600 
    162 H162        3.1305  -16.6840  -46.2719 H         1 UNK         0.0600 
    163 H163        3.7053  -16.0415  -44.7470 H         1 UNK         0.0600 
    164 H164        1.2766  -15.7465  -43.3158 H         1 UNK         0.3000 
    165 H165       -0.6653  -17.3653  -40.8352 H         1 UNK         0.0600 
    166 H166        0.5360  -15.8969  -39.2529 H         1 UNK         0.0600 
    167 H167        1.5245  -17.2869  -39.6766 H         1 UNK         0.0600 
    168 H168        1.8689  -15.7185  -40.3889 H         1 UNK         0.0600 
    169 H169       -0.0473  -14.6118  -41.5329 H         1 UNK         0.3000 
    170 H170       -2.6531  -14.3115  -43.9400 H         1 UNK         0.0600 
    171 H171       -3.9987  -14.2540  -41.8330 H         1 UNK         0.0600 
    172 H172       -2.7357  -13.3196  -41.0403 H         1 UNK         0.0600 
    173 H173       -3.6273  -12.6338  -42.3997 H         1 UNK         0.0600 
    174 H174       -1.1281  -12.3145  -42.6461 H         1 UNK         0.3000 
    175 H175        1.0004  -11.8535  -45.2203 H         1 UNK         0.0600 
    176 H176        0.4481  -11.0270  -42.3161 H         1 UNK         0.0600 
    177 H177        1.2219  -10.0496  -43.5548 H         1 UNK         0.0600 
    178 H178       -0.4654  -10.4879  -43.7274 H         1 UNK         0.0600 
    179 H179        3.0009  -12.2962  -44.4014 H         1 UNK         0.3000 
    180 H180        4.4498  -12.7107  -41.5767 H         1 UNK         0.0600 
    181 H181        3.9054  -15.5792  -42.4820 H         1 UNK         0.0600 
    182 H182        3.9743  -14.9505  -40.8413 H         1 UNK         0.0600 
    183 H183        5.4387  -15.0482  -41.7941 H         1 UNK         0.0600 
    184 H184        4.8808  -13.9073  -44.2735 H         1 UNK         0.3000 
    185 H185        6.3741  -10.9613  -45.4971 H         1 UNK         0.0600 
    186 H186        8.3317  -12.0626  -44.3938 H         1 UNK         0.0600 
    187 H187        7.7498  -13.6391  -44.9151 H         1 UNK         0.0600 
    188 H188        8.2624  -12.4430  -46.1065 H         1 UNK         0.0600 
    189 H189        6.0740  -13.4343  -46.7766 H         1 UNK         0.3000 
    190 H190       -2.1833  -21.7656  -46.6926 H         1 UNK         0.3000 
    191 H191       -3.9396  -23.4178  -48.1934 H         1 UNK         0.0600 
    192 H192       -4.6706  -21.3732  -46.9843 H         1 UNK         0.0600 
    193 H193       -5.6209  -22.7711  -46.5036 H         1 UNK         0.0600 
    194 H194       -4.3630  -22.1591  -45.4393 H         1 UNK         0.0600 
    195 H195       -2.4262  -23.9167  -44.9581 H         1 UNK         0.3000 
    196 H196       -3.5875  -26.4678  -44.4619 H         1 UNK         0.0600 
    197 H197       -1.7873  -26.6438  -42.7364 H         1 UNK         0.0600 
    198 H198       -2.5800  -25.0761  -42.6819 H         1 UNK         0.0600 
    199 H199       -0.9857  -25.2316  -43.4152 H         1 UNK         0.0600 
    200 H200       -0.5010  -25.5369  -46.0315 H         1 UNK         0.3000 
    201 H201        0.4641  -28.2093  -46.3251 H         1 UNK         0.0600 
    202 H202        1.9701  -26.2617  -46.2044 H         1 UNK         0.0600 
    203 H203        1.3084  -25.6091  -47.7020 H         1 UNK         0.0600 
    204 H204        2.2219  -27.1131  -47.7201 H         1 UNK         0.0600 
    205 H205       -1.0943  -25.9635  -48.6928 H         1 UNK         0.3000 
    206 H206       -1.2193  -28.1963  -50.6917 H         1 UNK         0.0600 
    207 H207        0.7925  -26.7485  -51.0177 H         1 UNK         0.0600 
    208 H208       -0.3452  -26.5534  -52.3386 H         1 UNK         0.0600 
    209 H209       -0.2378  -25.3199  -51.0872 H         1 UNK         0.0600 
    210 H210       -3.2272  -26.2171  -48.9800 H         1 UNK         0.3000 
    211 H211       -5.2703  -25.3550  -49.2239 H         1 UNK         0.0600 
    212 H212       -5.5938  -27.1313  -51.6880 H         1 UNK         0.0600 
    213 H213       -6.8732  -26.4328  -50.7089 H         1 UNK         0.0600 
    214 H214       -5.8251  -27.6620  -50.0221 H         1 UNK         0.0600 
    215 H215       -3.0453  -23.9460  -50.4195 H         1 UNK         0.3000 
    216 H216       -3.4673  -22.9201  -52.9357 H         1 UNK         0.0600 
    217 H217       -1.8607  -21.1676  -52.2753 H         1 UNK         0.0600 
    218 H218       -1.3726  -22.7012  -51.5708 H         1 UNK         0.0600 
    219 H219       -2.1718  -21.4826  -50.5696 H         1 UNK         0.0600 
    220 H220       -5.0140  -21.7892  -49.9595 H         1 UNK         0.3000 
    221 H221       -5.9760  -19.2807  -50.8943 H         1 UNK         0.0600 
    222 H222       -7.0559  -21.1639  -48.7296 H         1 UNK         0.0600 
    223 H223       -5.8972  -19.8521  -48.5003 H         1 UNK         0.0600 
    224 H224       -7.5540  -19.4908  -48.9528 H         1 UNK         0.0600 
    225 H225       -7.2063  -22.5825  -51.3655 H         1 UNK         0.3000 
    226 H226       -9.7934  -21.7458  -52.4359 H         1 UNK         0.0600 
    227 H227       -9.4932  -23.9324  -51.2519 H         1 UNK         0.0600 
    228 H228      -10.0696  -24.1528  -52.8967 H         1 UNK         0.0600 
    229 H229       -8.3839  -24.4666  -52.5147 H         1 UNK         0.0600 
    230 H230       -6.5586  -22.1293  -53.6313 H         1 UNK         0.3000 
    231 H231       -7.3435  -22.1420  -56.4914 H         1 UNK         0.0600 
    232 H232       -5.5477  -23.7115  -55.6762 H         1 UNK         0.0600 
    233 H233       -4.5844  -22.3254  -55.1678 H         1 UNK         0.0600 
    234 H234       -4.9498  -22.5714  -56.8695 H         1 UNK         0.0600 
    235 H235       -7.4443  -19.8462  -54.2970 H         1 UNK         0.3000 
    236 H236       -7.2533  -17.6551  -54.1257 H         1 UNK         0.0600 
    237 H237       -7.5402  -16.2800  -56.1543 H         1 UNK         0.0600 
    238 H238       -7.0524  -17.6193  -57.1841 H         1 UNK         0.0600 
    239 H239       -8.5551  -17.7077  -56.2659 H         1 UNK         0.0600 
    240 H240       -4.8548  -19.1622  -53.8283 H         1 UNK         0.3000 
    241 H241       -2.7516  -18.9469  -53.3657 H         1 UNK         0.0600 
    242 H242       -2.1776  -19.2129  -57.1915 H         1 UNK         0.3800 
    243 H243       -3.7283  -19.2515  -56.3914 H         1 UNK         0.3800 
    244 H244       -2.7154  -15.9819  -54.0521 H         1 UNK         0.0800 
    245 H245       -1.5703  -16.8401  -53.0637 H         1 UNK         0.0800 
    246 H246       -3.2108  -18.6222  -51.0325 H         1 UNK         0.0800 
    247 H247       -3.6428  -17.5244  -49.7520 H         1 UNK         0.0800 
@<TRIPOS>BOND
     1    1    2 1    
     2    1  127 1    
     3    1  128 1    
     4    1  129 1    
     5    2    3 2    
     6    2    4 am   BACKBONE|DICT|INTERRES
     7    4    5 1    
     8    4  130 1    
     9    5    6 1    
    10    5   65 1    
    11    5  131 1    
    12    6    7 1    
    13    6  132 1    
    14    6  133 1    
    15    7    8 1    
    16    8    9 1    
    17    8  134 1    
    18    8  135 1    
    19    9   10 ar   
    20    9   14 ar   
    21   10   11 ar   
    22   10  136 1    
    23   11   12 ar   
    24   11  126 1    
    25   12   13 ar   
    26   12  137 1    
    27   13   14 ar   
    28   13   15 1    
    29   14  138 1    
    30   15   16 1    
    31   15  139 1    
    32   15  140 1    
    33   16   17 1    
    34   17   18 1    
    35   17  141 1    
    36   17  142 1    
    37   18   19 1    
    38   18   67 1    
    39   18  143 1    
    40   19   20 am   BACKBONE|DICT|INTERRES
    41   19  144 1    
    42   20   21 2    
    43   20   22 1    
    44   22   23 1    
    45   22   24 1    
    46   22  145 1    
    47   23  146 1    
    48   23  147 1    
    49   23  148 1    
    50   24   25 am   BACKBONE|DICT|INTERRES
    51   24  149 1    
    52   25   26 2    
    53   25   27 1    
    54   27   28 1    
    55   27   29 1    
    56   27  150 1    
    57   28  151 1    
    58   28  152 1    
    59   28  153 1    
    60   29   30 am   BACKBONE|DICT|INTERRES
    61   29  154 1    
    62   30   31 2    
    63   30   32 1    
    64   32   33 1    
    65   32   34 1    
    66   32  155 1    
    67   33  156 1    
    68   33  157 1    
    69   33  158 1    
    70   34   35 am   BACKBONE|DICT|INTERRES
    71   34  159 1    
    72   35   36 2    
    73   35   37 1    
    74   37   38 1    
    75   37   39 1    
    76   37  160 1    
    77   38  161 1    
    78   38  162 1    
    79   38  163 1    
    80   39   40 am   BACKBONE|DICT|INTERRES
    81   39  164 1    
    82   40   41 2    
    83   40   42 1    
    84   42   43 1    
    85   42   44 1    
    86   42  165 1    
    87   43  166 1    
    88   43  167 1    
    89   43  168 1    
    90   44   45 am   BACKBONE|DICT|INTERRES
    91   44  169 1    
    92   45   46 2    
    93   45   47 1    
    94   47   48 1    
    95   47   49 1    
    96   47  170 1    
    97   48  171 1    
    98   48  172 1    
    99   48  173 1    
   100   49   50 am   BACKBONE|DICT|INTERRES
   101   49  174 1    
   102   50   51 2    
   103   50   52 1    
   104   52   53 1    
   105   52   54 1    
   106   52  175 1    
   107   53  176 1    
   108   53  177 1    
   109   53  178 1    
   110   54   55 am   BACKBONE|DICT|INTERRES
   111   54  179 1    
   112   55   56 2    
   113   55   57 1    
   114   57   58 1    
   115   57   59 1    
   116   57  180 1    
   117   58  181 1    
   118   58  182 1    
   119   58  183 1    
   120   59   60 am   BACKBONE|DICT|INTERRES
   121   59  184 1    
   122   60   61 2    
   123   60   62 1    
   124   62   63 1    
   125   62   64 1    
   126   62  185 1    
   127   63  186 1    
   128   63  187 1    
   129   63  188 1    
   130   64   65 am   BACKBONE|DICT|INTERRES
   131   64  189 1    
   132   65   66 2    
   133   67   68 2    
   134   67   69 am   BACKBONE|DICT|INTERRES
   135   69   70 1    
   136   69  190 1    
   137   70   71 1    
   138   70   72 1    
   139   70  191 1    
   140   71  192 1    
   141   71  193 1    
   142   71  194 1    
   143   72   73 2    
   144   72   74 am   BACKBONE|DICT|INTERRES
   145   74   75 1    
   146   74  195 1    
   147   75   76 1    
   148   75   77 1    
   149   75  196 1    
   150   76  197 1    
   151   76  198 1    
   152   76  199 1    
   153   77   78 2    
   154   77   79 am   BACKBONE|DICT|INTERRES
   155   79   80 1    
   156   79  200 1    
   157   80   81 1    
   158   80   82 1    
   159   80  201 1    
   160   81  202 1    
   161   81  203 1    
   162   81  204 1    
   163   82   83 2    
   164   82   84 am   BACKBONE|DICT|INTERRES
   165   84   85 1    
   166   84  205 1    
   167   85   86 1    
   168   85   87 1    
   169   85  206 1    
   170   86  207 1    
   171   86  208 1    
   172   86  209 1    
   173   87   88 2    
   174   87   89 am   BACKBONE|DICT|INTERRES
   175   89   90 1    
   176   89  210 1    
   177   90   91 1    
   178   90   92 1    
   179   90  211 1    
   180   91  212 1    
   181   91  213 1    
   182   91  214 1    
   183   92   93 2    
   184   92   94 am   BACKBONE|DICT|INTERRES
   185   94   95 1    
   186   94  215 1    
   187   95   96 1    
   188   95   97 1    
   189   95  216 1    
   190   96  217 1    
   191   96  218 1    
   192   96  219 1    
   193   97   98 2    
   194   97   99 am   BACKBONE|DICT|INTERRES
   195   99  100 1    
   196   99  220 1    
   197  100  101 1    
   198  100  102 1    
   199  100  221 1    
   200  101  222 1    
   201  101  223 1    
   202  101  224 1    
   203  102  103 2    
   204  102  104 am   BACKBONE|DICT|INTERRES
   205  104  105 1    
   206  104  225 1    
   207  105  106 1    
   208  105  107 1    
   209  105  226 1    
   210  106  227 1    
   211  106  228 1    
   212  106  229 1    
   213  107  108 2    
   214  107  109 am   BACKBONE|DICT|INTERRES
   215  109  110 1    
   216  109  230 1    
   217  110  111 1    
   218  110  112 1    
   219  110  231 1    
   220  111  232 1    
   221  111  233 1    
   222  111  234 1    
   223  112  113 2    
   224  112  114 am   BACKBONE|DICT|INTERRES
   225  114  115 1    
   226  114  235 1    
   227  115  116 1    
   228  115  117 1    
   229  115  236 1    
   230  116  237 1    
   231  116  238 1    
   232  116  239 1    
   233  117  118 2    
   234  117  119 am   BACKBONE|DICT|INTERRES
   235  119  120 1    
   236  119  240 1    
   237  120  121 1    
   238  120  124 1    
   239  120  241 1    
   240  121  122 am   BACKBONE|DICT|INTERRES
   241  121  123 2    
   242  122  242 1    
   243  122  243 1    
   244  124  125 1    
   245  124  244 1    
   246  124  245 1    
   247  125  126 1    
   248  126  246 1    
   249  126  247 1    
@<TRIPOS>SUBSTRUCTURE
     1 UNK         1 GROUP             0       ****    0 ROOT    
