@<TRIPOS>MOLECULE
3R540
247   249    1
SMALL
USER_CHARGES


@<TRIPOS>ATOM
      1 CA         -4.5318  -15.2346  -48.6234 C.3       0 UNK        -0.1800 
      2 C          -3.6024  -14.4462  -47.7119 C.2       0 UNK         0.5000 
      3 O          -3.6749  -14.5895  -46.4907 O.2       0 UNK        -0.5000 
      4 N          -2.7034  -13.6400  -48.2994 N.am      1 UNK        -0.5000 
      5 CA         -1.7140  -12.8000  -47.6000 C.3       1 UNK         0.1400 
      6 C6         -1.0231  -11.7956  -48.5620 C.3       23 UNK        -0.0398 
      7 S7          0.4674  -12.3732  -49.4526 S.3       23 UNK        -0.2404 
      8 C8         -0.2136  -13.3698  -50.8174 C.3       23 UNK        -0.0205 
      9 C9          0.1176  -14.8477  -50.6527 C.ar      23 UNK        -0.0193 
     10 C10         1.4529  -15.2613  -50.6500 C.ar      23 UNK        -0.1150 
     11 C11         1.7776  -16.6124  -50.5282 C.ar      23 UNK        -0.0193 
     12 C12         0.7548  -17.5537  -50.4005 C.ar      23 UNK        -0.1150 
     13 C13        -0.5911  -17.1672  -50.4244 C.ar      23 UNK        -0.0193 
     14 C14        -0.8968  -15.8058  -50.5423 C.ar      23 UNK        -0.1150 
     15 C15        -1.7425  -18.1739  -50.3311 C.3       23 UNK        -0.0205 
     16 S16        -1.3175  -19.9198  -50.6853 S.3       23 UNK        -0.2404 
     17 C17        -0.5632  -20.4501  -49.1083 C.3       23 UNK        -0.0398 
     18 CA         -1.4099  -21.4728  -48.3160 C.3       11 UNK         0.1400 
     19 N          -0.6521  -22.0143  -47.1850 N.am      11 UNK        -0.5000 
     20 C          -1.0073  -23.0894  -46.4660 C.2       10 UNK         0.5000 
     21 O          -1.9986  -23.7732  -46.7132 O.2       10 UNK        -0.5000 
     22 CA         -0.1461  -23.4269  -45.2297 C.3       10 UNK         0.1400 
     23 CB          1.0087  -24.3608  -45.6188 C.3       10 UNK        -0.1800 
     24 N           0.3973  -22.2414  -44.5624 N.am      10 UNK        -0.5000 
     25 C          -0.3418  -21.2425  -44.0623 C.2       9 UNK         0.5000 
     26 O          -1.5705  -21.2813  -43.9998 O.2       9 UNK        -0.5000 
     27 CA          0.3853  -19.9580  -43.6155 C.3       9 UNK         0.1400 
     28 CB          0.4365  -19.8837  -42.0836 C.3       9 UNK        -0.1800 
     29 N           1.7316  -19.7290  -44.1664 N.am      9 UNK        -0.5000 
     30 C           2.0830  -19.7319  -45.4642 C.2       8 UNK         0.5000 
     31 O           1.3303  -20.0976  -46.3681 O.2       8 UNK        -0.5000 
     32 CA          3.4922  -19.2302  -45.8350 C.3       8 UNK         0.1400 
     33 CB          3.4269  -18.2268  -47.0003 C.3       8 UNK        -0.1800 
     34 N           4.1732  -18.5854  -44.7117 N.am      8 UNK        -0.5000 
     35 C           5.1749  -19.1168  -43.9995 C.2       7 UNK         0.5000 
     36 O           5.6349  -20.2421  -44.1945 O.2       7 UNK        -0.5000 
     37 CA          5.7602  -18.2415  -42.8725 C.3       7 UNK         0.1400 
     38 CB          7.0182  -17.5087  -43.3624 C.3       7 UNK        -0.1800 
     39 N           4.8135  -17.2535  -42.3482 N.am      7 UNK        -0.5000 
     40 C           3.7062  -17.5388  -41.6540 C.2       6 UNK         0.5000 
     41 O           3.3682  -18.6886  -41.3760 O.2       6 UNK        -0.5000 
     42 CA          2.8036  -16.3643  -41.2283 C.3       6 UNK         0.1400 
     43 CB          3.2145  -15.8151  -39.8497 C.3       6 UNK        -0.1800 
     44 N           2.6793  -15.2886  -42.2210 N.am      6 UNK        -0.5000 
     45 C           3.5935  -14.3996  -42.6376 C.2       5 UNK         0.5000 
     46 O           4.7692  -14.3990  -42.2721 O.2       5 UNK        -0.5000 
     47 CA          3.1184  -13.3418  -43.6522 C.3       5 UNK         0.1400 
     48 CB          3.3439  -13.8437  -45.0861 C.3       5 UNK        -0.1800 
     49 N           1.7116  -12.9685  -43.4823 N.am      5 UNK        -0.5000 
     50 C           1.2240  -12.2962  -42.4280 C.2       4 UNK         0.5000 
     51 O           1.9160  -11.8944  -41.4919 O.2       4 UNK        -0.5000 
     52 CA         -0.2919  -12.0387  -42.4094 C.3       4 UNK         0.1400 
     53 CB         -0.6403  -10.7717  -43.2064 C.3       4 UNK        -0.1800 
     54 N          -1.0316  -13.1758  -42.9547 N.am      4 UNK        -0.5000 
     55 C          -1.4155  -14.2429  -42.2404 C.2       3 UNK         0.5000 
     56 O          -1.2381  -14.3547  -41.0272 O.2       3 UNK        -0.5000 
     57 CA         -2.1053  -15.3857  -43.0111 C.3       3 UNK         0.1400 
     58 CB         -3.6239  -15.1593  -43.0513 C.3       3 UNK        -0.1800 
     59 N          -1.6069  -15.5393  -44.3785 N.am      3 UNK        -0.5000 
     60 C          -0.3633  -15.9333  -44.6904 C.2       2 UNK         0.5000 
     61 O           0.4820  -16.2536  -43.8553 O.2       2 UNK        -0.5000 
     62 CA          0.0185  -15.9431  -46.1831 C.3       2 UNK         0.1400 
     63 CB         -0.3213  -17.3031  -46.8035 C.3       2 UNK        -0.1800 
     64 N          -0.6257  -14.9107  -46.9882 N.am      2 UNK        -0.5000 
     65 C          -0.7245  -13.6023  -46.7198 C.2       1 UNK         0.5000 
     66 O          -0.1415  -13.0497  -45.7861 O.2       1 UNK        -0.5000 
     67 C          -2.7554  -20.8728  -47.8552 C.2       11 UNK         0.5000 
     68 O          -3.7724  -21.0848  -48.5161 O.2       11 UNK        -0.5000 
     69 N          -2.7450  -20.1661  -46.7149 N.am      12 UNK        -0.5000 
     70 CA         -3.9413  -19.5945  -46.0952 C.3       12 UNK         0.1400 
     71 CB         -3.5447  -18.5688  -45.0240 C.3       12 UNK        -0.1800 
     72 C          -4.8677  -20.6772  -45.5157 C.2       12 UNK         0.5000 
     73 O          -6.0828  -20.5812  -45.6825 O.2       12 UNK        -0.5000 
     74 N          -4.2823  -21.7173  -44.9042 N.am      13 UNK        -0.5000 
     75 CA         -4.9891  -22.9097  -44.4252 C.3       13 UNK         0.1400 
     76 CB         -4.0184  -23.7921  -43.6269 C.3       13 UNK        -0.1800 
     77 C          -5.6453  -23.7110  -45.5684 C.2       13 UNK         0.5000 
     78 O          -6.7536  -24.2201  -45.4017 O.2       13 UNK        -0.5000 
     79 N          -4.9689  -23.7598  -46.7234 N.am      14 UNK        -0.5000 
     80 CA         -5.4609  -24.3229  -47.9817 C.3       14 UNK         0.1400 
     81 CB         -4.2478  -24.6543  -48.8645 C.3       14 UNK        -0.1800 
     82 C          -6.4354  -23.3956  -48.7402 C.2       14 UNK         0.5000 
     83 O          -6.9174  -23.7817  -49.8086 O.2       14 UNK        -0.5000 
     84 N          -6.6685  -22.1810  -48.2165 N.am      15 UNK        -0.5000 
     85 CA         -7.5160  -21.1056  -48.7477 C.3       15 UNK         0.1400 
     86 CB         -8.9995  -21.5219  -48.6776 C.3       15 UNK        -0.1800 
     87 C          -7.1103  -20.6220  -50.1573 C.2       15 UNK         0.5000 
     88 O          -7.9479  -20.0761  -50.8772 O.2       15 UNK        -0.5000 
     89 N          -5.8470  -20.8702  -50.5397 N.am      16 UNK        -0.5000 
     90 CA         -5.2764  -20.7320  -51.8851 C.3       16 UNK         0.1400 
     91 CB         -5.1329  -19.2417  -52.2525 C.3       16 UNK        -0.1800 
     92 C          -6.0397  -21.5413  -52.9638 C.2       16 UNK         0.5000 
     93 O          -6.0181  -21.1649  -54.1376 O.2       16 UNK        -0.5000 
     94 N          -6.7185  -22.6196  -52.5442 N.am      17 UNK        -0.5000 
     95 CA         -7.5852  -23.4506  -53.3764 C.3       17 UNK         0.1400 
     96 CB         -9.0307  -23.3364  -52.8656 C.3       17 UNK        -0.1800 
     97 C          -7.1183  -24.9120  -53.3667 C.2       17 UNK         0.5000 
     98 O          -7.0176  -25.5207  -54.4324 O.2       17 UNK        -0.5000 
     99 N          -6.8173  -25.4486  -52.1746 N.am      18 UNK        -0.5000 
    100 CA        -6.3011  -26.8105  -51.9931 C.3       18 UNK         0.1400 
    101 CB        -6.6555  -27.2999  -50.5797 C.3       18 UNK        -0.1800 
    102 C         -4.7852  -26.9217  -52.2649 C.2       18 UNK         0.5000 
    103 O         -4.2620  -28.0335  -52.3479 O.2       18 UNK        -0.5000 
    104 N         -4.1143  -25.7752  -52.4096 N.am      19 UNK        -0.5000 
    105 CA        -2.7217  -25.6177  -52.8032 C.3       19 UNK         0.1400 
    106 CB        -1.8445  -25.4647  -51.5493 C.3       19 UNK        -0.1800 
    107 C         -2.6413  -24.3667  -53.6878 C.2       19 UNK         0.5000 
    108 O         -3.4869  -23.4773  -53.5563 O.2       19 UNK        -0.5000 
    109 N         -1.6357  -24.3146  -54.5689 N.am      20 UNK        -0.5000 
    110 CA        -1.3826  -23.1829  -55.4621 C.3       20 UNK         0.1400 
    111 CB        -0.2831  -23.5679  -56.4638 C.3       20 UNK        -0.1800 
    112 C         -0.9796  -21.9193  -54.6808 C.2       20 UNK         0.5000 
    113 O         -0.1871  -22.0188  -53.7399 O.2       20 UNK        -0.5000 
    114 N         -1.5151  -20.7655  -55.1023 N.am      21 UNK        -0.5000 
    115 CA        -1.2950  -19.4457  -54.5086 C.3       21 UNK         0.1400 
    116 CB        -2.1494  -18.4094  -55.2573 C.3       21 UNK        -0.1800 
    117 C          0.1951  -19.0540  -54.5018 C.2       21 UNK         0.5000 
    118 O          0.7281  -18.6545  -55.5391 O.2       21 UNK        -0.5000 
    119 N          0.8372  -19.2195  -53.3395 N.am      22 UNK        -0.5000 
    120 CA         2.2811  -19.0364  -53.1203 C.3       22 UNK         0.1400 
    121 C          3.1742  -20.0992  -53.8327 C.2       22 UNK         0.5000 
    122 N          2.6504  -21.2760  -54.1588 N.am      22 UNK        -0.7600 
    123 O          4.3575  -19.8757  -54.0726 O.2       22 UNK        -0.5000 
    124 C124        2.7242  -17.5612  -53.3542 C.3       23 UNK        -0.0398 
    125 S125        4.0057  -16.9448  -52.2023 S.3       23 UNK        -0.2404 
    126 C126        3.2311  -17.0648  -50.5506 C.3       23 UNK        -0.0205 
    127 H127       -4.3733  -14.9920  -49.6743 H         1 UNK         0.0600 
    128 H128       -5.5709  -15.0168  -48.3769 H         1 UNK         0.0600 
    129 H129       -4.3660  -16.3040  -48.4915 H         1 UNK         0.0600 
    130 H130       -2.7070  -13.5586  -49.3048 H         1 UNK         0.3000 
    131 H131       -2.2965  -12.2000  -46.8973 H         1 UNK         0.0600 
    132 H132       -0.7037  -10.9312  -47.9776 H         1 UNK         0.0800 
    133 H133       -1.7393  -11.3951  -49.2808 H         1 UNK         0.0800 
    134 H134       -1.2884  -13.2125  -50.9088 H         1 UNK         0.0800 
    135 H135        0.2225  -13.0190  -51.7537 H         1 UNK         0.0800 
    136 H136        2.2423  -14.5298  -50.7528 H         1 UNK         0.1150 
    137 H137        1.0248  -18.5921  -50.2989 H         1 UNK         0.1150 
    138 H138       -1.9312  -15.4951  -50.5675 H         1 UNK         0.1150 
    139 H139       -2.2087  -18.1045  -49.3479 H         1 UNK         0.0800 
    140 H140       -2.5060  -17.8788  -51.0510 H         1 UNK         0.0800 
    141 H141       -0.3399  -19.5812  -48.4911 H         1 UNK         0.0800 
    142 H142        0.4035  -20.8935  -49.3509 H         1 UNK         0.0800 
    143 H143       -1.6362  -22.3064  -48.9843 H         1 UNK         0.0600 
    144 H144        0.1587  -21.4748  -46.8899 H         1 UNK         0.3000 
    145 H145       -0.7833  -23.9488  -44.5135 H         1 UNK         0.0600 
    146 H146        1.5764  -24.6731  -44.7421 H         1 UNK         0.0600 
    147 H147        0.6339  -25.2647  -46.1011 H         1 UNK         0.0600 
    148 H148        1.6989  -23.8796  -46.3131 H         1 UNK         0.0600 
    149 H149        1.3986  -22.1206  -44.5927 H         1 UNK         0.3000 
    150 H150       -0.2358  -19.1286  -43.9567 H         1 UNK         0.0600 
    151 H151       -0.5360  -20.1058  -41.6417 H         1 UNK         0.0600 
    152 H152        0.7123  -18.8838  -41.7515 H         1 UNK         0.0600 
    153 H153        1.1563  -20.5908  -41.6700 H         1 UNK         0.0600 
    154 H154        2.4323  -19.4470  -43.4944 H         1 UNK         0.3000 
    155 H155        4.0558  -20.1015  -46.1738 H         1 UNK         0.0600 
    156 H156        2.8760  -17.3269  -46.7282 H         1 UNK         0.0600 
    157 H157        2.9343  -18.6625  -47.8701 H         1 UNK         0.0600 
    158 H158        4.4258  -17.9240  -47.3145 H         1 UNK         0.0600 
    159 H159        3.8555  -17.6598  -44.4632 H         1 UNK         0.3000 
    160 H160        6.0456  -18.9056  -42.0540 H         1 UNK         0.0600 
    161 H161        6.7882  -16.8108  -44.1687 H         1 UNK         0.0600 
    162 H162        7.7608  -18.2135  -43.7386 H         1 UNK         0.0600 
    163 H163        7.4859  -16.9453  -42.5547 H         1 UNK         0.0600 
    164 H164        5.0331  -16.2719  -42.4923 H         1 UNK         0.3000 
    165 H165        1.7968  -16.7714  -41.1258 H         1 UNK         0.0600 
    166 H166        2.5387  -15.0239  -39.5246 H         1 UNK         0.0600 
    167 H167        3.1830  -16.6012  -39.0943 H         1 UNK         0.0600 
    168 H168        4.2271  -15.4110  -39.8550 H         1 UNK         0.0600 
    169 H169        1.7748  -15.2628  -42.6813 H         1 UNK         0.3000 
    170 H170        3.7223  -12.4438  -43.5060 H         1 UNK         0.0600 
    171 H171        4.4062  -13.9957  -45.2810 H         1 UNK         0.0600 
    172 H172        2.8443  -14.7953  -45.2592 H         1 UNK         0.0600 
    173 H173        2.9757  -13.1290  -45.8227 H         1 UNK         0.0600 
    174 H174        1.0792  -13.1962  -44.2428 H         1 UNK         0.3000 
    175 H175       -0.5929  -11.8739  -41.3725 H         1 UNK         0.0600 
    176 H176       -0.3482  -10.8552  -44.2536 H         1 UNK         0.0600 
    177 H177       -1.7105  -10.5673  -43.1725 H         1 UNK         0.0600 
    178 H178       -0.1298   -9.9008  -42.7934 H         1 UNK         0.0600 
    179 H179       -1.1562  -13.1888  -43.9593 H         1 UNK         0.3000 
    180 H180       -1.9105  -16.3164  -42.4738 H         1 UNK         0.0600 
    181 H181       -4.1360  -15.9879  -43.5385 H         1 UNK         0.0600 
    182 H182       -3.8794  -14.2469  -43.5917 H         1 UNK         0.0600 
    183 H183       -4.0333  -15.0714  -42.0442 H         1 UNK         0.0600 
    184 H184       -2.2438  -15.2786  -45.1246 H         1 UNK         0.3000 
    185 H185        1.0949  -15.7919  -46.2471 H         1 UNK         0.0600 
    186 H186       -1.3479  -17.3439  -47.1672 H         1 UNK         0.0600 
    187 H187        0.3437  -17.5167  -47.6382 H         1 UNK         0.0600 
    188 H188       -0.2129  -18.1111  -46.0847 H         1 UNK         0.0600 
    189 H189       -1.1291  -15.2402  -47.7976 H         1 UNK         0.3000 
    190 H190       -1.8836  -20.0959  -46.1949 H         1 UNK         0.3000 
    191 H191       -4.5022  -19.0654  -46.8690 H         1 UNK         0.0600 
    192 H192       -4.4295  -18.1677  -44.5289 H         1 UNK         0.0600 
    193 H193       -3.0162  -17.7263  -45.4667 H         1 UNK         0.0600 
    194 H194       -2.9080  -19.0017  -44.2530 H         1 UNK         0.0600 
    195 H195       -3.2786  -21.6846  -44.7458 H         1 UNK         0.3000 
    196 H196       -5.7823  -22.5785  -43.7518 H         1 UNK         0.0600 
    197 H197       -3.2113  -24.1709  -44.2535 H         1 UNK         0.0600 
    198 H198       -3.5701  -23.2398  -42.8007 H         1 UNK         0.0600 
    199 H199       -4.5350  -24.6535  -43.2020 H         1 UNK         0.0600 
    200 H200       -4.0281  -23.3815  -46.7462 H         1 UNK         0.3000 
    201 H201       -5.9961  -25.2497  -47.7670 H         1 UNK         0.0600 
    202 H202       -3.5974  -25.3859  -48.3851 H         1 UNK         0.0600 
    203 H203       -3.6528  -23.7668  -49.0784 H         1 UNK         0.0600 
    204 H204       -4.5527  -25.0726  -49.8207 H         1 UNK         0.0600 
    205 H205       -6.1977  -21.9508  -47.3506 H         1 UNK         0.3000 
    206 H206       -7.3777  -20.2505  -48.0852 H         1 UNK         0.0600 
    207 H207       -9.2678  -21.8544  -47.6748 H         1 UNK         0.0600 
    208 H208       -9.6554  -20.6869  -48.9263 H         1 UNK         0.0600 
    209 H209       -9.2241  -22.3326  -49.3716 H         1 UNK         0.0600 
    210 H210       -5.2110  -21.2348  -49.8351 H         1 UNK         0.3000 
    211 H211       -4.2739  -21.1601  -51.8336 H         1 UNK         0.0600 
    212 H212       -4.5187  -19.1173  -53.1444 H         1 UNK         0.0600 
    213 H213       -4.6582  -18.6825  -51.4476 H         1 UNK         0.0600 
    214 H214       -6.1006  -18.7806  -52.4518 H         1 UNK         0.0600 
    215 H215       -6.6887  -22.8536  -51.5575 H         1 UNK         0.3000 
    216 H216       -7.5650  -23.1095  -54.4135 H         1 UNK         0.0600 
    217 H217       -9.1194  -23.6548  -51.8260 H         1 UNK         0.0600 
    218 H218       -9.7063  -23.9532  -53.4595 H         1 UNK         0.0600 
    219 H219       -9.3871  -22.3079  -52.9283 H         1 UNK         0.0600 
    220 H220       -6.9318  -24.8910  -51.3320 H         1 UNK         0.3000 
    221 H221       -6.8003  -27.4724  -52.7039 H         1 UNK         0.0600 
    222 H222       -7.7338  -27.2883  -50.4200 H         1 UNK         0.0600 
    223 H223       -6.1991  -26.6844  -49.8070 H         1 UNK         0.0600 
    224 H224       -6.3165  -28.3248  -50.4240 H         1 UNK         0.0600 
    225 H225       -4.6343  -24.9070  -52.4035 H         1 UNK         0.3000 
    226 H226       -2.3964  -26.4839  -53.3832 H         1 UNK         0.0600 
    227 H227       -2.1086  -24.5722  -50.9806 H         1 UNK         0.0600 
    228 H228       -1.9458  -26.3255  -50.8881 H         1 UNK         0.0600 
    229 H229       -0.7910  -25.3809  -51.8181 H         1 UNK         0.0600 
    230 H230       -0.9602  -25.0643  -54.5918 H         1 UNK         0.3000 
    231 H231       -2.3011  -22.9797  -56.0170 H         1 UNK         0.0600 
    232 H232        0.6553  -23.8042  -55.9602 H         1 UNK         0.0600 
    233 H233       -0.0849  -22.7510  -57.1589 H         1 UNK         0.0600 
    234 H234       -0.5744  -24.4349  -57.0570 H         1 UNK         0.0600 
    235 H235       -2.1320  -20.7867  -55.9009 H         1 UNK         0.3000 
    236 H236       -1.6556  -19.4818  -53.4809 H         1 UNK         0.0600 
    237 H237       -3.2100  -18.6539  -55.1990 H         1 UNK         0.0600 
    238 H238       -2.0211  -17.4160  -54.8254 H         1 UNK         0.0600 
    239 H239       -1.8786  -18.3470  -56.3121 H         1 UNK         0.0600 
    240 H240        0.3201  -19.6033  -52.5596 H         1 UNK         0.3000 
    241 H241        2.4170  -19.2651  -52.0654 H         1 UNK         0.0600 
    242 H242        3.2282  -21.9676  -54.6088 H         1 UNK         0.3800 
    243 H243        1.6783  -21.4870  -53.9514 H         1 UNK         0.3800 
    244 H244        1.8704  -16.8886  -53.2624 H         1 UNK         0.0800 
    245 H245        3.0779  -17.4235  -54.3772 H         1 UNK         0.0800 
    246 H246        3.3191  -18.0928  -50.1976 H         1 UNK         0.0800 
    247 H247        3.8052  -16.4592  -49.8481 H         1 UNK         0.0800 
@<TRIPOS>BOND
     1    1    2 1    
     2    1  127 1    
     3    1  128 1    
     4    1  129 1    
     5    2    3 2    
     6    2    4 am   BACKBONE|DICT|INTERRES
     7    4    5 1    
     8    4  130 1    
     9    5    6 1    
    10    5   65 1    
    11    5  131 1    
    12    6    7 1    
    13    6  132 1    
    14    6  133 1    
    15    7    8 1    
    16    8    9 1    
    17    8  134 1    
    18    8  135 1    
    19    9   10 ar   
    20    9   14 ar   
    21   10   11 ar   
    22   10  136 1    
    23   11   12 ar   
    24   11  126 1    
    25   12   13 ar   
    26   12  137 1    
    27   13   14 ar   
    28   13   15 1    
    29   14  138 1    
    30   15   16 1    
    31   15  139 1    
    32   15  140 1    
    33   16   17 1    
    34   17   18 1    
    35   17  141 1    
    36   17  142 1    
    37   18   19 1    
    38   18   67 1    
    39   18  143 1    
    40   19   20 am   BACKBONE|DICT|INTERRES
    41   19  144 1    
    42   20   21 2    
    43   20   22 1    
    44   22   23 1    
    45   22   24 1    
    46   22  145 1    
    47   23  146 1    
    48   23  147 1    
    49   23  148 1    
    50   24   25 am   BACKBONE|DICT|INTERRES
    51   24  149 1    
    52   25   26 2    
    53   25   27 1    
    54   27   28 1    
    55   27   29 1    
    56   27  150 1    
    57   28  151 1    
    58   28  152 1    
    59   28  153 1    
    60   29   30 am   BACKBONE|DICT|INTERRES
    61   29  154 1    
    62   30   31 2    
    63   30   32 1    
    64   32   33 1    
    65   32   34 1    
    66   32  155 1    
    67   33  156 1    
    68   33  157 1    
    69   33  158 1    
    70   34   35 am   BACKBONE|DICT|INTERRES
    71   34  159 1    
    72   35   36 2    
    73   35   37 1    
    74   37   38 1    
    75   37   39 1    
    76   37  160 1    
    77   38  161 1    
    78   38  162 1    
    79   38  163 1    
    80   39   40 am   BACKBONE|DICT|INTERRES
    81   39  164 1    
    82   40   41 2    
    83   40   42 1    
    84   42   43 1    
    85   42   44 1    
    86   42  165 1    
    87   43  166 1    
    88   43  167 1    
    89   43  168 1    
    90   44   45 am   BACKBONE|DICT|INTERRES
    91   44  169 1    
    92   45   46 2    
    93   45   47 1    
    94   47   48 1    
    95   47   49 1    
    96   47  170 1    
    97   48  171 1    
    98   48  172 1    
    99   48  173 1    
   100   49   50 am   BACKBONE|DICT|INTERRES
   101   49  174 1    
   102   50   51 2    
   103   50   52 1    
   104   52   53 1    
   105   52   54 1    
   106   52  175 1    
   107   53  176 1    
   108   53  177 1    
   109   53  178 1    
   110   54   55 am   BACKBONE|DICT|INTERRES
   111   54  179 1    
   112   55   56 2    
   113   55   57 1    
   114   57   58 1    
   115   57   59 1    
   116   57  180 1    
   117   58  181 1    
   118   58  182 1    
   119   58  183 1    
   120   59   60 am   BACKBONE|DICT|INTERRES
   121   59  184 1    
   122   60   61 2    
   123   60   62 1    
   124   62   63 1    
   125   62   64 1    
   126   62  185 1    
   127   63  186 1    
   128   63  187 1    
   129   63  188 1    
   130   64   65 am   BACKBONE|DICT|INTERRES
   131   64  189 1    
   132   65   66 2    
   133   67   68 2    
   134   67   69 am   BACKBONE|DICT|INTERRES
   135   69   70 1    
   136   69  190 1    
   137   70   71 1    
   138   70   72 1    
   139   70  191 1    
   140   71  192 1    
   141   71  193 1    
   142   71  194 1    
   143   72   73 2    
   144   72   74 am   BACKBONE|DICT|INTERRES
   145   74   75 1    
   146   74  195 1    
   147   75   76 1    
   148   75   77 1    
   149   75  196 1    
   150   76  197 1    
   151   76  198 1    
   152   76  199 1    
   153   77   78 2    
   154   77   79 am   BACKBONE|DICT|INTERRES
   155   79   80 1    
   156   79  200 1    
   157   80   81 1    
   158   80   82 1    
   159   80  201 1    
   160   81  202 1    
   161   81  203 1    
   162   81  204 1    
   163   82   83 2    
   164   82   84 am   BACKBONE|DICT|INTERRES
   165   84   85 1    
   166   84  205 1    
   167   85   86 1    
   168   85   87 1    
   169   85  206 1    
   170   86  207 1    
   171   86  208 1    
   172   86  209 1    
   173   87   88 2    
   174   87   89 am   BACKBONE|DICT|INTERRES
   175   89   90 1    
   176   89  210 1    
   177   90   91 1    
   178   90   92 1    
   179   90  211 1    
   180   91  212 1    
   181   91  213 1    
   182   91  214 1    
   183   92   93 2    
   184   92   94 am   BACKBONE|DICT|INTERRES
   185   94   95 1    
   186   94  215 1    
   187   95   96 1    
   188   95   97 1    
   189   95  216 1    
   190   96  217 1    
   191   96  218 1    
   192   96  219 1    
   193   97   98 2    
   194   97   99 am   BACKBONE|DICT|INTERRES
   195   99  100 1    
   196   99  220 1    
   197  100  101 1    
   198  100  102 1    
   199  100  221 1    
   200  101  222 1    
   201  101  223 1    
   202  101  224 1    
   203  102  103 2    
   204  102  104 am   BACKBONE|DICT|INTERRES
   205  104  105 1    
   206  104  225 1    
   207  105  106 1    
   208  105  107 1    
   209  105  226 1    
   210  106  227 1    
   211  106  228 1    
   212  106  229 1    
   213  107  108 2    
   214  107  109 am   BACKBONE|DICT|INTERRES
   215  109  110 1    
   216  109  230 1    
   217  110  111 1    
   218  110  112 1    
   219  110  231 1    
   220  111  232 1    
   221  111  233 1    
   222  111  234 1    
   223  112  113 2    
   224  112  114 am   BACKBONE|DICT|INTERRES
   225  114  115 1    
   226  114  235 1    
   227  115  116 1    
   228  115  117 1    
   229  115  236 1    
   230  116  237 1    
   231  116  238 1    
   232  116  239 1    
   233  117  118 2    
   234  117  119 am   BACKBONE|DICT|INTERRES
   235  119  120 1    
   236  119  240 1    
   237  120  121 1    
   238  120  124 1    
   239  120  241 1    
   240  121  122 am   BACKBONE|DICT|INTERRES
   241  121  123 2    
   242  122  242 1    
   243  122  243 1    
   244  124  125 1    
   245  124  244 1    
   246  124  245 1    
   247  125  126 1    
   248  126  246 1    
   249  126  247 1    
@<TRIPOS>SUBSTRUCTURE
     1 UNK         1 GROUP             0       ****    0 ROOT    
