@<TRIPOS>MOLECULE
3R540
247   249    1
SMALL
USER_CHARGES


@<TRIPOS>ATOM
      1 CA          5.3462  -14.7006  -44.1700 C.3       0 UNK        -0.1800 
      2 C           4.1441  -14.1457  -44.9192 C.2       0 UNK         0.5000 
      3 O           3.0092  -14.4520  -44.5581 O.2       0 UNK        -0.5000 
      4 N           4.3956  -13.3492  -45.9612 N.am      1 UNK        -0.5000 
      5 CA          3.3941  -12.6023  -46.7201 C.3       1 UNK         0.1400 
      6 C6          3.2260  -13.1224  -48.1696 C.3       23 UNK        -0.0398 
      7 S7          2.3115  -14.6983  -48.2515 S.3       23 UNK        -0.2404 
      8 C8          3.2874  -15.6026  -49.4977 C.3       23 UNK        -0.0205 
      9 C9          2.5090  -16.7427  -50.1442 C.ar      23 UNK        -0.0193 
     10 C10         1.3315  -16.4716  -50.8473 C.ar      23 UNK        -0.1150 
     11 C11         0.6422  -17.4920  -51.5077 C.ar      23 UNK        -0.0193 
     12 C12         1.1425  -18.7956  -51.4709 C.ar      23 UNK        -0.1150 
     13 C13         2.3225  -19.0825  -50.7782 C.ar      23 UNK        -0.0193 
     14 C14         2.9961  -18.0542  -50.1080 C.ar      23 UNK        -0.1150 
     15 C15         2.8993  -20.4911  -50.8070 C.3       23 UNK        -0.0205 
     16 S16         2.5356  -21.4304  -49.2935 S.3       23 UNK        -0.2404 
     17 C17         0.7376  -21.6971  -49.4469 C.3       23 UNK        -0.0398 
     18 CA          0.2222  -22.7222  -48.4090 C.3       11 UNK         0.1400 
     19 N           0.3023  -22.2260  -47.0323 N.am      11 UNK        -0.5000 
     20 C           0.0969  -22.9703  -45.9374 C.2       10 UNK         0.5000 
     21 O          -0.1426  -24.1767  -45.9687 O.2       10 UNK        -0.5000 
     22 CA          0.1133  -22.2428  -44.5810 C.3       10 UNK         0.1400 
     23 CB          1.5522  -22.0091  -44.0978 C.3       10 UNK        -0.1800 
     24 N          -0.6178  -20.9751  -44.6125 N.am      10 UNK        -0.5000 
     25 C          -1.9374  -20.8705  -44.8273 C.2       9 UNK         0.5000 
     26 O          -2.6826  -21.8393  -44.9739 O.2       9 UNK        -0.5000 
     27 CA         -2.5190  -19.4489  -44.9410 C.3       9 UNK         0.1400 
     28 CB         -2.7318  -18.8274  -43.5528 C.3       9 UNK        -0.1800 
     29 N          -1.6885  -18.5611  -45.7536 N.am      9 UNK        -0.5000 
     30 C          -1.4190  -18.7485  -47.0541 C.2       8 UNK         0.5000 
     31 O          -1.8848  -19.6680  -47.7262 O.2       8 UNK        -0.5000 
     32 CA         -0.4097  -17.7776  -47.6908 C.3       8 UNK         0.1400 
     33 CB         -1.0860  -16.4417  -48.0302 C.3       8 UNK        -0.1800 
     34 N           0.7530  -17.5459  -46.8300 N.am      8 UNK        -0.5000 
     35 C           1.6036  -18.5072  -46.4430 C.2       7 UNK         0.5000 
     36 O           1.5069  -19.6807  -46.7886 O.2       7 UNK        -0.5000 
     37 CA          2.7005  -18.1193  -45.4402 C.3       7 UNK         0.1400 
     38 CB          3.9166  -17.5075  -46.1475 C.3       7 UNK        -0.1800 
     39 N           2.1966  -17.2272  -44.3948 N.am      7 UNK        -0.5000 
     40 C           1.3420  -17.6268  -43.4415 C.2       6 UNK         0.5000 
     41 O           0.9275  -18.7814  -43.3382 O.2       6 UNK        -0.5000 
     42 CA          0.8371  -16.5589  -42.4566 C.3       6 UNK         0.1400 
     43 CB          1.8496  -16.3482  -41.3210 C.3       6 UNK        -0.1800 
     44 N           0.5543  -15.2720  -43.0880 N.am      6 UNK        -0.5000 
     45 C          -0.3591  -15.0503  -44.0414 C.2       5 UNK         0.5000 
     46 O          -1.0750  -15.9345  -44.5144 O.2       5 UNK        -0.5000 
     47 CA         -0.4988  -13.5899  -44.5130 C.3       5 UNK         0.1400 
     48 CB         -1.8295  -13.3212  -45.2387 C.3       5 UNK        -0.1800 
     49 N          -0.3998  -12.6838  -43.3661 N.am      5 UNK        -0.5000 
     50 C           0.5694  -11.7857  -43.1693 C.2       4 UNK         0.5000 
     51 O           1.5058  -11.5961  -43.9499 O.2       4 UNK        -0.5000 
     52 CA          0.4967  -10.9885  -41.8573 C.3       4 UNK         0.1400 
     53 CB          1.1088  -11.8027  -40.7058 C.3       4 UNK        -0.1800 
     54 N           1.2600   -9.7563  -42.0206 N.am      4 UNK        -0.5000 
     55 C           0.7512   -8.5205  -42.0821 C.2       3 UNK         0.5000 
     56 O          -0.4194   -8.2415  -41.8194 O.2       3 UNK        -0.5000 
     57 CA          1.7156   -7.4097  -42.5481 C.3       3 UNK         0.1400 
     58 CB          2.3686   -6.7193  -41.3409 C.3       3 UNK        -0.1800 
     59 N           2.7662   -7.9104  -43.4420 N.am      3 UNK        -0.5000 
     60 C           2.5564   -8.3626  -44.6870 C.2       2 UNK         0.5000 
     61 O           1.4615   -8.3167  -45.2507 O.2       2 UNK        -0.5000 
     62 CA          3.7455   -9.0036  -45.4206 C.3       2 UNK         0.1400 
     63 CB          5.0922   -8.9151  -44.6695 C.3       2 UNK        -0.1800 
     64 N           3.4091  -10.4005  -45.6726 N.am      2 UNK        -0.5000 
     65 C           3.8611  -11.1388  -46.6887 C.2       1 UNK         0.5000 
     66 O           4.6558  -10.7275  -47.5369 O.2       1 UNK        -0.5000 
     67 C          -1.1976  -23.2093  -48.7590 C.2       11 UNK         0.5000 
     68 O          -1.3297  -24.2814  -49.3470 O.2       11 UNK        -0.5000 
     69 N          -2.2313  -22.4569  -48.3541 N.am      12 UNK        -0.5000 
     70 CA         -3.6367  -22.8415  -48.5002 C.3       12 UNK         0.1400 
     71 CB         -4.5447  -21.6726  -48.0927 C.3       12 UNK        -0.1800 
     72 C          -3.9865  -24.1163  -47.7118 C.2       12 UNK         0.5000 
     73 O          -4.6489  -25.0008  -48.2534 O.2       12 UNK        -0.5000 
     74 N          -3.5014  -24.2155  -46.4658 N.am      13 UNK        -0.5000 
     75 CA         -3.6487  -25.3963  -45.6129 C.3       13 UNK         0.1400 
     76 CB         -3.1396  -25.0858  -44.1977 C.3       13 UNK        -0.1800 
     77 C          -2.9486  -26.6386  -46.1945 C.2       13 UNK         0.5000 
     78 O          -3.5551  -27.7097  -46.2358 O.2       13 UNK        -0.5000 
     79 N          -1.7124  -26.4659  -46.6849 N.am      14 UNK        -0.5000 
     80 CA         -0.9286  -27.4999  -47.3681 C.3       14 UNK         0.1400 
     81 CB          0.4931  -26.9791  -47.6255 C.3       14 UNK        -0.1800 
     82 C          -1.5763  -27.9821  -48.6809 C.2       14 UNK         0.5000 
     83 O          -1.4783  -29.1644  -49.0099 O.2       14 UNK        -0.5000 
     84 N          -2.2667  -27.0708  -49.3781 N.am      15 UNK        -0.5000 
     85 CA         -3.0631  -27.3348  -50.5767 C.3       15 UNK         0.1400 
     86 CB         -3.1372  -26.0465  -51.4134 C.3       15 UNK        -0.1800 
     87 C          -4.4722  -27.8939  -50.2711 C.2       15 UNK         0.5000 
     88 O          -5.2838  -27.9939  -51.1909 O.2       15 UNK        -0.5000 
     89 N          -4.7466  -28.2488  -49.0059 N.am      16 UNK        -0.5000 
     90 CA         -5.9843  -28.8460  -48.4935 C.3       16 UNK         0.1400 
     91 CB         -6.2311  -30.2358  -49.1184 C.3       16 UNK        -0.1800 
     92 C          -7.1979  -27.9008  -48.6001 C.2       16 UNK         0.5000 
     93 O          -8.2823  -28.3220  -49.0061 O.2       16 UNK        -0.5000 
     94 N          -6.9785  -26.6348  -48.2197 N.am      17 UNK        -0.5000 
     95 CA         -7.9338  -25.5218  -48.1888 C.3       17 UNK         0.1400 
     96 CB         -9.1593  -25.8387  -47.3055 C.3       17 UNK        -0.1800 
     97 C          -8.3123  -24.9863  -49.5845 C.2       17 UNK         0.5000 
     98 O          -9.3149  -24.2811  -49.7161 O.2       17 UNK        -0.5000 
     99 N          -7.4879  -25.2883  -50.5959 N.am      18 UNK        -0.5000 
    100 CA        -7.5320  -24.6570  -51.9136 C.3       18 UNK         0.1400 
    101 CB        -6.8139  -25.5622  -52.9252 C.3       18 UNK        -0.1800 
    102 C         -6.8901  -23.2555  -51.8727 C.2       18 UNK         0.5000 
    103 O         -6.2448  -22.8930  -50.8863 O.2       18 UNK        -0.5000 
    104 N         -7.0701  -22.4918  -52.9578 N.am      19 UNK        -0.5000 
    105 CA        -6.5986  -21.1099  -53.0891 C.3       19 UNK         0.1400 
    106 CB        -7.1963  -20.4956  -54.3647 C.3       19 UNK        -0.1800 
    107 C         -5.0658  -20.9493  -53.0920 C.2       19 UNK         0.5000 
    108 O         -4.5850  -19.8696  -52.7549 O.2       19 UNK        -0.5000 
    109 N         -4.3320  -21.9978  -53.5015 N.am      20 UNK        -0.5000 
    110 CA        -2.8625  -22.0782  -53.5617 C.3       20 UNK         0.1400 
    111 CB        -2.2721  -22.1568  -52.1398 C.3       20 UNK        -0.1800 
    112 C         -2.2072  -20.9677  -54.4159 C.2       20 UNK         0.5000 
    113 O         -1.0916  -20.5355  -54.1229 O.2       20 UNK        -0.5000 
    114 N         -2.9366  -20.5225  -55.4504 N.am      21 UNK        -0.5000 
    115 CA        -2.6278  -19.4186  -56.3667 C.3       21 UNK         0.1400 
    116 CB        -1.3337  -19.6977  -57.1603 C.3       21 UNK        -0.1800 
    117 C         -2.6274  -18.0183  -55.7106 C.2       21 UNK         0.5000 
    118 O         -2.1804  -17.0613  -56.3459 O.2       21 UNK        -0.5000 
    119 N         -3.1391  -17.8983  -54.4780 N.am      22 UNK        -0.5000 
    120 CA        -3.3246  -16.6200  -53.7781 C.3       22 UNK         0.1400 
    121 C         -4.5324  -15.8175  -54.3386 C.2       22 UNK         0.5000 
    122 N         -4.4837  -14.4933  -54.2806 N.am      22 UNK        -0.7600 
    123 O         -5.5284  -16.3784  -54.7917 O.2       22 UNK        -0.5000 
    124 C124       -3.4693  -16.8136  -52.2442 C.3       23 UNK        -0.0398 
    125 S125       -2.1118  -17.7014  -51.3927 S.3       23 UNK        -0.2404 
    126 C126       -0.6203  -17.1761  -52.2914 C.3       23 UNK        -0.0205 
    127 H127        6.2247  -14.7610  -44.8127 H         1 UNK         0.0600 
    128 H128        5.1324  -15.7004  -43.7925 H         1 UNK         0.0600 
    129 H129        5.5823  -14.0615  -43.3195 H         1 UNK         0.0600 
    130 H130        5.3534  -13.1272  -46.1953 H         1 UNK         0.3000 
    131 H131        2.4203  -12.6473  -46.2293 H         1 UNK         0.0600 
    132 H132        2.6683  -12.4030  -48.7718 H         1 UNK         0.0800 
    133 H133        4.2004  -13.2295  -48.6492 H         1 UNK         0.0800 
    134 H134        3.5937  -14.9150  -50.2873 H         1 UNK         0.0800 
    135 H135        4.2036  -15.9686  -49.0321 H         1 UNK         0.0800 
    136 H136        0.9585  -15.4579  -50.8876 H         1 UNK         0.1150 
    137 H137        0.6173  -19.5816  -51.9965 H         1 UNK         0.1150 
    138 H138        3.9150  -18.2739  -49.5831 H         1 UNK         0.1150 
    139 H139        2.5296  -21.0410  -51.6740 H         1 UNK         0.0800 
    140 H140        3.9818  -20.4326  -50.9280 H         1 UNK         0.0800 
    141 H141        0.5396  -22.0449  -50.4621 H         1 UNK         0.0800 
    142 H142        0.2216  -20.7417  -49.3370 H         1 UNK         0.0800 
    143 H143        0.8688  -23.6005  -48.4660 H         1 UNK         0.0600 
    144 H144        0.5666  -21.2485  -46.9217 H         1 UNK         0.3000 
    145 H145       -0.3818  -22.8900  -43.8542 H         1 UNK         0.0600 
    146 H146        1.5664  -21.5538  -43.1075 H         1 UNK         0.0600 
    147 H147        2.0980  -22.9510  -44.0314 H         1 UNK         0.0600 
    148 H148        2.1054  -21.3574  -44.7736 H         1 UNK         0.0600 
    149 H149       -0.0747  -20.1316  -44.4595 H         1 UNK         0.3000 
    150 H150       -3.4923  -19.5279  -45.4294 H         1 UNK         0.0600 
    151 H151       -3.3754  -19.4575  -42.9377 H         1 UNK         0.0600 
    152 H152       -3.2078  -17.8495  -43.6281 H         1 UNK         0.0600 
    153 H153       -1.7901  -18.6989  -43.0189 H         1 UNK         0.0600 
    154 H154       -1.2918  -17.7509  -45.2865 H         1 UNK         0.3000 
    155 H155       -0.0546  -18.2274  -48.6203 H         1 UNK         0.0600 
    156 H156       -1.3953  -15.9099  -47.1332 H         1 UNK         0.0600 
    157 H157       -0.4222  -15.7915  -48.5975 H         1 UNK         0.0600 
    158 H158       -1.9787  -16.5984  -48.6358 H         1 UNK         0.0600 
    159 H159        0.8906  -16.6069  -46.4882 H         1 UNK         0.3000 
    160 H160        3.0387  -19.0401  -44.9601 H         1 UNK         0.0600 
    161 H161        3.6908  -16.5290  -46.5643 H         1 UNK         0.0600 
    162 H162        4.2519  -18.1436  -46.9677 H         1 UNK         0.0600 
    163 H163        4.7557  -17.3977  -45.4618 H         1 UNK         0.0600 
    164 H164        2.4678  -16.2472  -44.4357 H         1 UNK         0.3000 
    165 H165       -0.0948  -16.9255  -42.0214 H         1 UNK         0.0600 
    166 H166        1.4626  -15.6595  -40.5698 H         1 UNK         0.0600 
    167 H167        2.0714  -17.2891  -40.8156 H         1 UNK         0.0600 
    168 H168        2.7921  -15.9441  -41.6933 H         1 UNK         0.0600 
    169 H169        1.1491  -14.5002  -42.8229 H         1 UNK         0.3000 
    170 H170        0.3135  -13.4121  -45.2201 H         1 UNK         0.0600 
    171 H171       -1.9106  -13.9128  -46.1496 H         1 UNK         0.0600 
    172 H172       -2.6870  -13.5630  -44.6098 H         1 UNK         0.0600 
    173 H173       -1.9124  -12.2740  -45.5299 H         1 UNK         0.0600 
    174 H174       -1.1076  -12.8016  -42.6544 H         1 UNK         0.3000 
    175 H175       -0.5496  -10.7731  -41.6307 H         1 UNK         0.0600 
    176 H176        2.1467  -12.0712  -40.9079 H         1 UNK         0.0600 
    177 H177        1.0851  -11.2403  -39.7722 H         1 UNK         0.0600 
    178 H178        0.5561  -12.7285  -40.5406 H         1 UNK         0.0600 
    179 H179        2.2152   -9.8840  -42.3214 H         1 UNK         0.3000 
    180 H180        1.1282   -6.6667  -43.0917 H         1 UNK         0.0600 
    181 H181        2.9832   -7.4116  -40.7641 H         1 UNK         0.0600 
    182 H182        1.6123   -6.3130  -40.6680 H         1 UNK         0.0600 
    183 H183        3.0013   -5.8892  -41.6556 H         1 UNK         0.0600 
    184 H184        3.6974   -7.9710  -43.0561 H         1 UNK         0.3000 
    185 H185        3.8431   -8.4769  -46.3722 H         1 UNK         0.0600 
    186 H186        5.3589   -7.8797  -44.4534 H         1 UNK         0.0600 
    187 H187        5.0711   -9.4653  -43.7280 H         1 UNK         0.0600 
    188 H188        5.9011   -9.3298  -45.2712 H         1 UNK         0.0600 
    189 H189        2.7306  -10.8134  -45.0313 H         1 UNK         0.3000 
    190 H190       -2.0489  -21.5546  -47.9214 H         1 UNK         0.3000 
    191 H191       -3.8188  -23.0520  -49.5548 H         1 UNK         0.0600 
    192 H192       -4.3907  -21.3819  -47.0537 H         1 UNK         0.0600 
    193 H193       -5.5961  -21.9383  -48.2104 H         1 UNK         0.0600 
    194 H194       -4.3598  -20.7982  -48.7172 H         1 UNK         0.0600 
    195 H195       -3.0033  -23.4240  -46.0680 H         1 UNK         0.3000 
    196 H196       -4.7151  -25.6213  -45.5437 H         1 UNK         0.0600 
    197 H197       -3.2648  -25.9468  -43.5401 H         1 UNK         0.0600 
    198 H198       -3.6900  -24.2554  -43.7553 H         1 UNK         0.0600 
    199 H199       -2.0820  -24.8225  -44.1962 H         1 UNK         0.0600 
    200 H200       -1.2638  -25.5595  -46.5713 H         1 UNK         0.3000 
    201 H201       -0.8603  -28.3599  -46.6989 H         1 UNK         0.0600 
    202 H202        0.9874  -26.7048  -46.6935 H         1 UNK         0.0600 
    203 H203        0.4880  -26.1014  -48.2722 H         1 UNK         0.0600 
    204 H204        1.1074  -27.7400  -48.1083 H         1 UNK         0.0600 
    205 H205       -2.2397  -26.1052  -49.0671 H         1 UNK         0.3000 
    206 H206       -2.5463  -28.0879  -51.1745 H         1 UNK         0.0600 
    207 H207       -2.1452  -25.6297  -51.5874 H         1 UNK         0.0600 
    208 H208       -3.5715  -26.2435  -52.3931 H         1 UNK         0.0600 
    209 H209       -3.7420  -25.2818  -50.9244 H         1 UNK         0.0600 
    210 H210       -4.0339  -28.0834  -48.3053 H         1 UNK         0.3000 
    211 H211       -5.8208  -28.9992  -47.4259 H         1 UNK         0.0600 
    212 H212       -6.4637  -30.1701  -50.1815 H         1 UNK         0.0600 
    213 H213       -7.0689  -30.7376  -48.6328 H         1 UNK         0.0600 
    214 H214       -5.3587  -30.8793  -49.0045 H         1 UNK         0.0600 
    215 H215       -6.0225  -26.3610  -48.0085 H         1 UNK         0.3000 
    216 H216       -7.4001  -24.7024  -47.7053 H         1 UNK         0.0600 
    217 H217       -9.7565  -24.9429  -47.1324 H         1 UNK         0.0600 
    218 H218       -8.8559  -26.2172  -46.3295 H         1 UNK         0.0600 
    219 H219       -9.8141  -26.5785  -47.7662 H         1 UNK         0.0600 
    220 H220       -6.6753  -25.8528  -50.3929 H         1 UNK         0.3000 
    221 H221       -8.5741  -24.5505  -52.2219 H         1 UNK         0.0600 
    222 H222       -5.7505  -25.6386  -52.7066 H         1 UNK         0.0600 
    223 H223       -7.2292  -26.5703  -52.9177 H         1 UNK         0.0600 
    224 H224       -6.9133  -25.1795  -53.9413 H         1 UNK         0.0600 
    225 H225       -7.6060  -22.8580  -53.7315 H         1 UNK         0.3000 
    226 H226       -6.9771  -20.5478  -52.2326 H         1 UNK         0.0600 
    227 H227       -8.2859  -20.5022  -54.3331 H         1 UNK         0.0600 
    228 H228       -6.8835  -19.4568  -54.4828 H         1 UNK         0.0600 
    229 H229       -6.8818  -21.0364  -55.2581 H         1 UNK         0.0600 
    230 H230       -4.8290  -22.8322  -53.7779 H         1 UNK         0.3000 
    231 H231       -2.6278  -23.0174  -54.0645 H         1 UNK         0.0600 
    232 H232       -1.1953  -22.3235  -52.1690 H         1 UNK         0.0600 
    233 H233       -2.7077  -22.9868  -51.5861 H         1 UNK         0.0600 
    234 H234       -2.4493  -21.2416  -51.5733 H         1 UNK         0.0600 
    235 H235       -3.8419  -20.9494  -55.5855 H         1 UNK         0.3000 
    236 H236       -3.4478  -19.4005  -57.0859 H         1 UNK         0.0600 
    237 H237       -1.2050  -18.9740  -57.9659 H         1 UNK         0.0600 
    238 H238       -0.4479  -19.6381  -56.5277 H         1 UNK         0.0600 
    239 H239       -1.3555  -20.6872  -57.6170 H         1 UNK         0.0600 
    240 H240       -3.5091  -18.7148  -54.0024 H         1 UNK         0.3000 
    241 H241       -2.4386  -16.0117  -53.9630 H         1 UNK         0.0600 
    242 H242       -5.2661  -13.9606  -54.6288 H         1 UNK         0.3800 
    243 H243       -3.6822  -14.0055  -53.9109 H         1 UNK         0.3800 
    244 H244       -3.5609  -15.8409  -51.7581 H         1 UNK         0.0800 
    245 H245       -4.3971  -17.3413  -52.0187 H         1 UNK         0.0800 
    246 H246       -0.6716  -16.1047  -52.4885 H         1 UNK         0.0800 
    247 H247       -0.5811  -17.6763  -53.2602 H         1 UNK         0.0800 
@<TRIPOS>BOND
     1    1    2 1    
     2    1  127 1    
     3    1  128 1    
     4    1  129 1    
     5    2    3 2    
     6    2    4 am   BACKBONE|DICT|INTERRES
     7    4    5 1    
     8    4  130 1    
     9    5    6 1    
    10    5   65 1    
    11    5  131 1    
    12    6    7 1    
    13    6  132 1    
    14    6  133 1    
    15    7    8 1    
    16    8    9 1    
    17    8  134 1    
    18    8  135 1    
    19    9   10 ar   
    20    9   14 ar   
    21   10   11 ar   
    22   10  136 1    
    23   11   12 ar   
    24   11  126 1    
    25   12   13 ar   
    26   12  137 1    
    27   13   14 ar   
    28   13   15 1    
    29   14  138 1    
    30   15   16 1    
    31   15  139 1    
    32   15  140 1    
    33   16   17 1    
    34   17   18 1    
    35   17  141 1    
    36   17  142 1    
    37   18   19 1    
    38   18   67 1    
    39   18  143 1    
    40   19   20 am   BACKBONE|DICT|INTERRES
    41   19  144 1    
    42   20   21 2    
    43   20   22 1    
    44   22   23 1    
    45   22   24 1    
    46   22  145 1    
    47   23  146 1    
    48   23  147 1    
    49   23  148 1    
    50   24   25 am   BACKBONE|DICT|INTERRES
    51   24  149 1    
    52   25   26 2    
    53   25   27 1    
    54   27   28 1    
    55   27   29 1    
    56   27  150 1    
    57   28  151 1    
    58   28  152 1    
    59   28  153 1    
    60   29   30 am   BACKBONE|DICT|INTERRES
    61   29  154 1    
    62   30   31 2    
    63   30   32 1    
    64   32   33 1    
    65   32   34 1    
    66   32  155 1    
    67   33  156 1    
    68   33  157 1    
    69   33  158 1    
    70   34   35 am   BACKBONE|DICT|INTERRES
    71   34  159 1    
    72   35   36 2    
    73   35   37 1    
    74   37   38 1    
    75   37   39 1    
    76   37  160 1    
    77   38  161 1    
    78   38  162 1    
    79   38  163 1    
    80   39   40 am   BACKBONE|DICT|INTERRES
    81   39  164 1    
    82   40   41 2    
    83   40   42 1    
    84   42   43 1    
    85   42   44 1    
    86   42  165 1    
    87   43  166 1    
    88   43  167 1    
    89   43  168 1    
    90   44   45 am   BACKBONE|DICT|INTERRES
    91   44  169 1    
    92   45   46 2    
    93   45   47 1    
    94   47   48 1    
    95   47   49 1    
    96   47  170 1    
    97   48  171 1    
    98   48  172 1    
    99   48  173 1    
   100   49   50 am   BACKBONE|DICT|INTERRES
   101   49  174 1    
   102   50   51 2    
   103   50   52 1    
   104   52   53 1    
   105   52   54 1    
   106   52  175 1    
   107   53  176 1    
   108   53  177 1    
   109   53  178 1    
   110   54   55 am   BACKBONE|DICT|INTERRES
   111   54  179 1    
   112   55   56 2    
   113   55   57 1    
   114   57   58 1    
   115   57   59 1    
   116   57  180 1    
   117   58  181 1    
   118   58  182 1    
   119   58  183 1    
   120   59   60 am   BACKBONE|DICT|INTERRES
   121   59  184 1    
   122   60   61 2    
   123   60   62 1    
   124   62   63 1    
   125   62   64 1    
   126   62  185 1    
   127   63  186 1    
   128   63  187 1    
   129   63  188 1    
   130   64   65 am   BACKBONE|DICT|INTERRES
   131   64  189 1    
   132   65   66 2    
   133   67   68 2    
   134   67   69 am   BACKBONE|DICT|INTERRES
   135   69   70 1    
   136   69  190 1    
   137   70   71 1    
   138   70   72 1    
   139   70  191 1    
   140   71  192 1    
   141   71  193 1    
   142   71  194 1    
   143   72   73 2    
   144   72   74 am   BACKBONE|DICT|INTERRES
   145   74   75 1    
   146   74  195 1    
   147   75   76 1    
   148   75   77 1    
   149   75  196 1    
   150   76  197 1    
   151   76  198 1    
   152   76  199 1    
   153   77   78 2    
   154   77   79 am   BACKBONE|DICT|INTERRES
   155   79   80 1    
   156   79  200 1    
   157   80   81 1    
   158   80   82 1    
   159   80  201 1    
   160   81  202 1    
   161   81  203 1    
   162   81  204 1    
   163   82   83 2    
   164   82   84 am   BACKBONE|DICT|INTERRES
   165   84   85 1    
   166   84  205 1    
   167   85   86 1    
   168   85   87 1    
   169   85  206 1    
   170   86  207 1    
   171   86  208 1    
   172   86  209 1    
   173   87   88 2    
   174   87   89 am   BACKBONE|DICT|INTERRES
   175   89   90 1    
   176   89  210 1    
   177   90   91 1    
   178   90   92 1    
   179   90  211 1    
   180   91  212 1    
   181   91  213 1    
   182   91  214 1    
   183   92   93 2    
   184   92   94 am   BACKBONE|DICT|INTERRES
   185   94   95 1    
   186   94  215 1    
   187   95   96 1    
   188   95   97 1    
   189   95  216 1    
   190   96  217 1    
   191   96  218 1    
   192   96  219 1    
   193   97   98 2    
   194   97   99 am   BACKBONE|DICT|INTERRES
   195   99  100 1    
   196   99  220 1    
   197  100  101 1    
   198  100  102 1    
   199  100  221 1    
   200  101  222 1    
   201  101  223 1    
   202  101  224 1    
   203  102  103 2    
   204  102  104 am   BACKBONE|DICT|INTERRES
   205  104  105 1    
   206  104  225 1    
   207  105  106 1    
   208  105  107 1    
   209  105  226 1    
   210  106  227 1    
   211  106  228 1    
   212  106  229 1    
   213  107  108 2    
   214  107  109 am   BACKBONE|DICT|INTERRES
   215  109  110 1    
   216  109  230 1    
   217  110  111 1    
   218  110  112 1    
   219  110  231 1    
   220  111  232 1    
   221  111  233 1    
   222  111  234 1    
   223  112  113 2    
   224  112  114 am   BACKBONE|DICT|INTERRES
   225  114  115 1    
   226  114  235 1    
   227  115  116 1    
   228  115  117 1    
   229  115  236 1    
   230  116  237 1    
   231  116  238 1    
   232  116  239 1    
   233  117  118 2    
   234  117  119 am   BACKBONE|DICT|INTERRES
   235  119  120 1    
   236  119  240 1    
   237  120  121 1    
   238  120  124 1    
   239  120  241 1    
   240  121  122 am   BACKBONE|DICT|INTERRES
   241  121  123 2    
   242  122  242 1    
   243  122  243 1    
   244  124  125 1    
   245  124  244 1    
   246  124  245 1    
   247  125  126 1    
   248  126  246 1    
   249  126  247 1    
@<TRIPOS>SUBSTRUCTURE
     1 UNK         1 GROUP             0       ****    0 ROOT    
