@<TRIPOS>MOLECULE
3R540
247   249    1
SMALL
USER_CHARGES


@<TRIPOS>ATOM
      1 CA          2.1707  -14.4074  -51.9227 C.3       0 UNK        -0.1800 
      2 C           1.5066  -14.2796  -50.5597 C.2       0 UNK         0.5000 
      3 O           2.0055  -14.8338  -49.5801 O.2       0 UNK        -0.5000 
      4 N           0.3894  -13.5454  -50.4899 N.am      1 UNK        -0.5000 
      5 CA         -0.4664  -13.3876  -49.3066 C.3       1 UNK         0.1400 
      6 C6         -1.9419  -13.0695  -49.6827 C.3       23 UNK        -0.0398 
      7 S7         -2.6404  -14.0537  -51.0610 S.3       23 UNK        -0.2404 
      8 C8         -3.0531  -15.6475  -50.2827 C.3       23 UNK        -0.0205 
      9 C9         -1.9524  -16.6724  -50.5092 C.ar      23 UNK        -0.0193 
     10 C10        -1.8713  -17.3672  -51.7214 C.ar      23 UNK        -0.1150 
     11 C11        -0.8559  -18.3062  -51.9339 C.ar      23 UNK        -0.0193 
     12 C12         0.0900  -18.5354  -50.9338 C.ar      23 UNK        -0.1150 
     13 C13         0.0094  -17.8565  -49.7181 C.ar      23 UNK        -0.0193 
     14 C14        -1.0200  -16.9382  -49.5047 C.ar      23 UNK        -0.1150 
     15 C15         1.0192  -18.1253  -48.6221 C.3       23 UNK        -0.0205 
     16 S16         0.3703  -19.3351  -47.4381 S.3       23 UNK        -0.2404 
     17 C17         0.6691  -20.9016  -48.3254 C.3       23 UNK        -0.0398 
     18 CA          0.3419  -22.1549  -47.4789 C.3       11 UNK         0.1400 
     19 N           0.8944  -22.0582  -46.1266 N.am      11 UNK        -0.5000 
     20 C           1.0732  -23.0759  -45.2785 C.2       10 UNK         0.5000 
     21 O           0.8265  -24.2472  -45.5595 O.2       10 UNK        -0.5000 
     22 CA          1.5388  -22.6966  -43.8601 C.3       10 UNK         0.1400 
     23 CB          3.0671  -22.5569  -43.8070 C.3       10 UNK        -0.1800 
     24 N           0.9238  -21.4485  -43.3985 N.am      10 UNK        -0.5000 
     25 C          -0.3808  -21.3002  -43.1463 C.2       9 UNK         0.5000 
     26 O          -1.2030  -22.2159  -43.2394 O.2       9 UNK        -0.5000 
     27 CA         -0.8583  -19.8769  -42.8319 C.3       9 UNK         0.1400 
     28 CB         -1.2486  -19.1795  -44.1426 C.3       9 UNK        -0.1800 
     29 N          -2.0267  -19.9559  -41.9636 N.am      9 UNK        -0.5000 
     30 C          -2.2910  -19.2971  -40.8246 C.2       8 UNK         0.5000 
     31 O          -3.2811  -19.5906  -40.1560 O.2       8 UNK        -0.5000 
     32 CA         -1.3823  -18.1530  -40.3046 C.3       8 UNK         0.1400 
     33 CB         -0.1435  -18.6933  -39.5678 C.3       8 UNK        -0.1800 
     34 N          -0.9814  -17.1405  -41.2841 N.am      8 UNK        -0.5000 
     35 C          -1.8152  -16.3527  -41.9781 C.2       7 UNK         0.5000 
     36 O          -3.0420  -16.4160  -41.8954 O.2       7 UNK        -0.5000 
     37 CA         -1.1828  -15.3143  -42.9233 C.3       7 UNK         0.1400 
     38 CB         -1.0086  -13.9747  -42.1910 C.3       7 UNK        -0.1800 
     39 N           0.1176  -15.7503  -43.4403 N.am      7 UNK        -0.5000 
     40 C           0.3598  -16.1099  -44.7102 C.2       6 UNK         0.5000 
     41 O          -0.4991  -16.1023  -45.5928 O.2       6 UNK        -0.5000 
     42 CA          1.7860  -16.5828  -45.0686 C.3       6 UNK         0.1400 
     43 CB          2.4710  -15.6240  -46.0522 C.3       6 UNK        -0.1800 
     44 N           2.6510  -16.7459  -43.9022 N.am      6 UNK        -0.5000 
     45 C           2.7777  -17.8774  -43.1972 C.2       5 UNK         0.5000 
     46 O           2.2360  -18.9396  -43.5038 O.2       5 UNK        -0.5000 
     47 CA          3.6319  -17.8178  -41.9146 C.3       5 UNK         0.1400 
     48 CB          5.0127  -18.4419  -42.1636 C.3       5 UNK        -0.1800 
     49 N           3.8074  -16.4700  -41.3625 N.am      5 UNK        -0.5000 
     50 C           2.8193  -15.6740  -40.9320 C.2       4 UNK         0.5000 
     51 O           1.6310  -15.9943  -40.9770 O.2       4 UNK        -0.5000 
     52 CA          3.1980  -14.2809  -40.3918 C.3       4 UNK         0.1400 
     53 CB          4.7173  -14.0660  -40.2055 C.3       4 UNK        -0.1800 
     54 N           2.6254  -13.1987  -41.2013 N.am      4 UNK        -0.5000 
     55 C           2.8351  -12.9594  -42.5049 C.2       3 UNK         0.5000 
     56 O           3.5042  -13.6938  -43.2369 O.2       3 UNK        -0.5000 
     57 CA          2.2240  -11.6488  -43.0500 C.3       3 UNK         0.1400 
     58 CB          2.8464  -10.4255  -42.3534 C.3       3 UNK        -0.1800 
     59 N           2.4149  -11.4885  -44.4927 N.am      3 UNK        -0.5000 
     60 C           1.6881  -12.0880  -45.4426 C.2       2 UNK         0.5000 
     61 O           0.7239  -12.8144  -45.1971 O.2       2 UNK        -0.5000 
     62 CA          2.1193  -11.8134  -46.9022 C.3       2 UNK         0.1400 
     63 CB          3.6201  -12.0795  -47.1258 C.3       2 UNK        -0.1800 
     64 N           1.3685  -12.6091  -47.8735 N.am      2 UNK        -0.5000 
     65 C           0.1226  -12.3696  -48.2979 C.2       1 UNK         0.5000 
     66 O          -0.5316  -11.3836  -47.9514 O.2       1 UNK        -0.5000 
     67 C          -1.1682  -22.4801  -47.4948 C.2       11 UNK         0.5000 
     68 O          -1.6489  -23.0178  -48.4928 O.2       11 UNK        -0.5000 
     69 N          -1.8917  -22.1782  -46.4061 N.am      12 UNK        -0.5000 
     70 CA         -3.2890  -22.5770  -46.2214 C.3       12 UNK         0.1400 
     71 CB         -4.0034  -21.6224  -45.2543 C.3       12 UNK        -0.1800 
     72 C          -3.3902  -24.0334  -45.7453 C.2       12 UNK         0.5000 
     73 O          -4.2635  -24.7571  -46.2206 O.2       12 UNK        -0.5000 
     74 N          -2.4619  -24.4621  -44.8766 N.am      13 UNK        -0.5000 
     75 CA         -2.3072  -25.8584  -44.4554 C.3       13 UNK         0.1400 
     76 CB         -1.2984  -25.9407  -43.3000 C.3       13 UNK        -0.1800 
     77 C          -1.8986  -26.7840  -45.6208 C.2       13 UNK         0.5000 
     78 O          -2.3905  -27.9092  -45.7076 O.2       13 UNK        -0.5000 
     79 N          -1.0536  -26.2694  -46.5258 N.am      14 UNK        -0.5000 
     80 CA         -0.6744  -26.9042  -47.7925 C.3       14 UNK         0.1400 
     81 CB          0.6214  -26.2527  -48.3000 C.3       14 UNK        -0.1800 
     82 C          -1.7711  -26.8272  -48.8792 C.2       14 UNK         0.5000 
     83 O          -1.6142  -27.4449  -49.9323 O.2       14 UNK        -0.5000 
     84 N          -2.8409  -26.0622  -48.6165 N.am      15 UNK        -0.5000 
     85 CA         -4.0311  -25.8254  -49.4410 C.3       15 UNK         0.1400 
     86 CB         -4.7637  -27.1420  -49.7678 C.3       15 UNK        -0.1800 
     87 C          -3.8042  -24.9609  -50.6977 C.2       15 UNK         0.5000 
     88 O          -4.7567  -24.7400  -51.4446 O.2       15 UNK        -0.5000 
     89 N          -2.5905  -24.4313  -50.8954 N.am      16 UNK        -0.5000 
     90 CA         -2.2392  -23.5389  -52.0025 C.3       16 UNK         0.1400 
     91 CB         -0.7164  -23.3410  -52.0353 C.3       16 UNK        -0.1800 
     92 C          -2.9590  -22.1830  -51.9090 C.2       16 UNK         0.5000 
     93 O          -3.4684  -21.6872  -52.9161 O.2       16 UNK        -0.5000 
     94 N          -3.0214  -21.6303  -50.6898 N.am      17 UNK        -0.5000 
     95 CA         -3.7441  -20.3933  -50.3923 C.3       17 UNK         0.1400 
     96 CB         -3.2422  -19.8070  -49.0662 C.3       17 UNK        -0.1800 
     97 C          -5.2671  -20.6068  -50.3475 C.2       17 UNK         0.5000 
     98 O          -6.0134  -19.6930  -50.6957 O.2       17 UNK        -0.5000 
     99 N          -5.6995  -21.8125  -49.9479 N.am      18 UNK        -0.5000 
    100 CA        -7.1069  -22.2157  -49.8936 C.3       18 UNK         0.1400 
    101 CB        -7.2453  -23.5035  -49.0671 C.3       18 UNK        -0.1800 
    102 C         -7.7094  -22.3955  -51.2988 C.2       18 UNK         0.5000 
    103 O         -8.8294  -21.9471  -51.5447 O.2       18 UNK        -0.5000 
    104 N         -6.9364  -23.0113  -52.2046 N.am      19 UNK        -0.5000 
    105 CA        -7.2589  -23.1486  -53.6263 C.3       19 UNK         0.1400 
    106 CB        -6.3592  -24.2371  -54.2327 C.3       19 UNK        -0.1800 
    107 C         -7.0967  -21.8327  -54.4134 C.2       19 UNK         0.5000 
    108 O         -7.6195  -21.7308  -55.5238 O.2       19 UNK        -0.5000 
    109 N         -6.3632  -20.8697  -53.8337 N.am      20 UNK        -0.5000 
    110 CA        -5.9653  -19.5787  -54.4006 C.3       20 UNK         0.1400 
    111 CB        -7.1897  -18.6690  -54.6284 C.3       20 UNK        -0.1800 
    112 C         -5.0869  -19.7516  -55.6558 C.2       20 UNK         0.5000 
    113 O         -5.2688  -19.0485  -56.6523 O.2       20 UNK        -0.5000 
    114 N         -4.1315  -20.6898  -55.5728 N.am      21 UNK        -0.5000 
    115 CA        -3.2256  -21.0937  -56.6547 C.3       21 UNK         0.1400 
    116 CB        -2.3911  -22.2893  -56.1687 C.3       21 UNK        -0.1800 
    117 C         -2.3047  -19.9649  -57.1618 C.2       21 UNK         0.5000 
    118 O         -1.8230  -20.0266  -58.2935 O.2       21 UNK        -0.5000 
    119 N         -2.0944  -18.9563  -56.3117 N.am      22 UNK        -0.5000 
    120 CA        -1.3316  -17.7321  -56.5845 C.3       22 UNK         0.1400 
    121 C         -2.1404  -16.6481  -57.3576 C.2       22 UNK         0.5000 
    122 N         -3.4353  -16.8191  -57.6042 N.am      22 UNK        -0.7600 
    123 O         -1.5775  -15.6307  -57.7523 O.2       22 UNK        -0.5000 
    124 C124       -0.7245  -17.1531  -55.2791 C.3       23 UNK        -0.0398 
    125 S125        0.3595  -18.3512  -54.4261 S.3       23 UNK        -0.2404 
    126 C126       -0.7831  -19.1041  -53.2233 C.3       23 UNK        -0.0205 
    127 H127        1.6468  -13.8300  -52.6848 H         1 UNK         0.0600 
    128 H128        2.1798  -15.4520  -52.2347 H         1 UNK         0.0600 
    129 H129        3.2006  -14.0542  -51.8742 H         1 UNK         0.0600 
    130 H130        0.0403  -13.1042  -51.3283 H         1 UNK         0.3000 
    131 H131       -0.4755  -14.3380  -48.7754 H         1 UNK         0.0600 
    132 H132       -2.0313  -12.0253  -49.9873 H         1 UNK         0.0800 
    133 H133       -2.5856  -13.1789  -48.8085 H         1 UNK         0.0800 
    134 H134       -3.2472  -15.5123  -49.2176 H         1 UNK         0.0800 
    135 H135       -3.9832  -16.0192  -50.7152 H         1 UNK         0.0800 
    136 H136       -2.6039  -17.1792  -52.4930 H         1 UNK         0.1150 
    137 H137        0.8797  -19.2551  -51.0967 H         1 UNK         0.1150 
    138 H138       -1.0929  -16.4389  -48.5492 H         1 UNK         0.1150 
    139 H139        1.2323  -17.1945  -48.0989 H         1 UNK         0.0800 
    140 H140        1.9687  -18.4671  -49.0362 H         1 UNK         0.0800 
    141 H141        1.7235  -20.9286  -48.6034 H         1 UNK         0.0800 
    142 H142        0.1148  -20.9028  -49.2657 H         1 UNK         0.0800 
    143 H143        0.8336  -22.9988  -47.9651 H         1 UNK         0.0600 
    144 H144        1.1169  -21.1231  -45.8148 H         1 UNK         0.3000 
    145 H145        1.2406  -23.4997  -43.1828 H         1 UNK         0.0600 
    146 H146        3.5553  -23.4744  -44.1381 H         1 UNK         0.0600 
    147 H147        3.4081  -22.3549  -42.7915 H         1 UNK         0.0600 
    148 H148        3.4204  -21.7456  -44.4450 H         1 UNK         0.0600 
    149 H149        1.5226  -20.6247  -43.3663 H         1 UNK         0.3000 
    150 H150       -0.0470  -19.3334  -42.3554 H         1 UNK         0.0600 
    151 H151       -1.8933  -19.7967  -44.7651 H         1 UNK         0.0600 
    152 H152       -0.3573  -18.9506  -44.7225 H         1 UNK         0.0600 
    153 H153       -1.7746  -18.2434  -43.9741 H         1 UNK         0.0600 
    154 H154       -2.6352  -20.7256  -42.2052 H         1 UNK         0.3000 
    155 H155       -1.9744  -17.6200  -39.5575 H         1 UNK         0.0600 
    156 H156        0.5792  -19.1536  -40.2398 H         1 UNK         0.0600 
    157 H157       -0.4259  -19.4440  -38.8286 H         1 UNK         0.0600 
    158 H158        0.3700  -17.8937  -39.0335 H         1 UNK         0.0600 
    159 H159        0.0120  -16.9416  -41.3369 H         1 UNK         0.3000 
    160 H160       -1.8850  -15.1556  -43.7442 H         1 UNK         0.0600 
    161 H161       -0.2931  -14.0495  -41.3718 H         1 UNK         0.0600 
    162 H162       -1.9550  -13.6316  -41.7710 H         1 UNK         0.0600 
    163 H163       -0.6615  -13.2012  -42.8744 H         1 UNK         0.0600 
    164 H164        0.8689  -15.8041  -42.7621 H         1 UNK         0.3000 
    165 H165        1.6769  -17.5438  -45.5717 H         1 UNK         0.0600 
    166 H166        2.8079  -14.7196  -45.5514 H         1 UNK         0.0600 
    167 H167        3.3406  -16.0909  -46.5142 H         1 UNK         0.0600 
    168 H168        1.7975  -15.3211  -46.8538 H         1 UNK         0.0600 
    169 H169        3.1280  -15.9121  -43.5795 H         1 UNK         0.3000 
    170 H170        3.1173  -18.4174  -41.1609 H         1 UNK         0.0600 
    171 H171        4.9194  -19.4591  -42.5472 H         1 UNK         0.0600 
    172 H172        5.5938  -18.4963  -41.2428 H         1 UNK         0.0600 
    173 H173        5.5873  -17.8678  -42.8916 H         1 UNK         0.0600 
    174 H174        4.7541  -16.1216  -41.3195 H         1 UNK         0.3000 
    175 H175        2.7344  -14.2079  -39.4070 H         1 UNK         0.0600 
    176 H176        5.1451  -14.8204  -39.5438 H         1 UNK         0.0600 
    177 H177        5.2608  -14.1014  -41.1503 H         1 UNK         0.0600 
    178 H178        4.9171  -13.0957  -39.7508 H         1 UNK         0.0600 
    179 H179        2.0366  -12.5557  -40.6913 H         1 UNK         0.3000 
    180 H180        1.1539  -11.6593  -42.8361 H         1 UNK         0.0600 
    181 H181        2.4231   -9.4965  -42.7363 H         1 UNK         0.0600 
    182 H182        3.9267  -10.3863  -42.5001 H         1 UNK         0.0600 
    183 H183        2.6622  -10.4386  -41.2787 H         1 UNK         0.0600 
    184 H184        3.2143  -10.9395  -44.7717 H         1 UNK         0.3000 
    185 H185        1.9281  -10.7573  -47.1022 H         1 UNK         0.0600 
    186 H186        4.2420  -11.4359  -46.5033 H         1 UNK         0.0600 
    187 H187        3.8871  -13.1121  -46.9013 H         1 UNK         0.0600 
    188 H188        3.9014  -11.8840  -48.1609 H         1 UNK         0.0600 
    189 H189        1.8221  -13.4456  -48.2283 H         1 UNK         0.3000 
    190 H190       -1.4270  -21.7592  -45.6151 H         1 UNK         0.3000 
    191 H191       -3.8068  -22.5161  -47.1808 H         1 UNK         0.0600 
    192 H192       -3.9847  -20.5981  -45.6262 H         1 UNK         0.0600 
    193 H193       -5.0512  -21.9027  -45.1391 H         1 UNK         0.0600 
    194 H194       -3.5549  -21.6321  -44.2618 H         1 UNK         0.0600 
    195 H195       -1.8114  -23.7919  -44.4830 H         1 UNK         0.3000 
    196 H196       -3.2746  -26.2025  -44.0835 H         1 UNK         0.0600 
    197 H197       -1.2167  -26.9626  -42.9278 H         1 UNK         0.0600 
    198 H198       -1.6052  -25.3125  -42.4634 H         1 UNK         0.0600 
    199 H199       -0.3018  -25.6245  -43.6066 H         1 UNK         0.0600 
    200 H200       -0.6135  -25.3787  -46.3164 H         1 UNK         0.3000 
    201 H201       -0.4745  -27.9607  -47.6028 H         1 UNK         0.0600 
    202 H202        0.9961  -26.7653  -49.1869 H         1 UNK         0.0600 
    203 H203        1.4079  -26.2922  -47.5461 H         1 UNK         0.0600 
    204 H204        0.4639  -25.2089  -48.5692 H         1 UNK         0.0600 
    205 H205       -2.8646  -25.6031  -47.7156 H         1 UNK         0.3000 
    206 H206       -4.6983  -25.2402  -48.8090 H         1 UNK         0.0600 
    207 H207       -4.9473  -27.7252  -48.8654 H         1 UNK         0.0600 
    208 H208       -5.7330  -26.9460  -50.2280 H         1 UNK         0.0600 
    209 H209       -4.1964  -27.7627  -50.4615 H         1 UNK         0.0600 
    210 H210       -1.8871  -24.5790  -50.1851 H         1 UNK         0.3000 
    211 H211       -2.5452  -24.0158  -52.9361 H         1 UNK         0.0600 
    212 H212       -0.3482  -22.8785  -51.1185 H         1 UNK         0.0600 
    213 H213       -0.4240  -22.7005  -52.8683 H         1 UNK         0.0600 
    214 H214       -0.1992  -24.2924  -52.1608 H         1 UNK         0.0600 
    215 H215       -2.5704  -22.1094  -49.9153 H         1 UNK         0.3000 
    216 H216       -3.5316  -19.6714  -51.1831 H         1 UNK         0.0600 
    217 H217       -3.4986  -20.4382  -48.2176 H         1 UNK         0.0600 
    218 H218       -3.6789  -18.8241  -48.8861 H         1 UNK         0.0600 
    219 H219       -2.1609  -19.6826  -49.0771 H         1 UNK         0.0600 
    220 H220       -5.0133  -22.5119  -49.7125 H         1 UNK         0.3000 
    221 H221       -7.6651  -21.4262  -49.3856 H         1 UNK         0.0600 
    222 H222       -6.7834  -24.3562  -49.5641 H         1 UNK         0.0600 
    223 H223       -6.7891  -23.3970  -48.0824 H         1 UNK         0.0600 
    224 H224       -8.2962  -23.7510  -48.9133 H         1 UNK         0.0600 
    225 H225       -6.0586  -23.4282  -51.9052 H         1 UNK         0.3000 
    226 H226       -8.2990  -23.4675  -53.7199 H         1 UNK         0.0600 
    227 H227       -6.4947  -25.1907  -53.7220 H         1 UNK         0.0600 
    228 H228       -6.5907  -24.3968  -55.2865 H         1 UNK         0.0600 
    229 H229       -5.3039  -23.9681  -54.1645 H         1 UNK         0.0600 
    230 H230       -5.9673  -21.0829  -52.9293 H         1 UNK         0.3000 
    231 H231       -5.3348  -19.0989  -53.6505 H         1 UNK         0.0600 
    232 H232       -7.8439  -19.0534  -55.4112 H         1 UNK         0.0600 
    233 H233       -6.8798  -17.6666  -54.9258 H         1 UNK         0.0600 
    234 H234       -7.7791  -18.5691  -53.7168 H         1 UNK         0.0600 
    235 H235       -4.0204  -21.1811  -54.6891 H         1 UNK         0.3000 
    236 H236       -3.8393  -21.4185  -57.4971 H         1 UNK         0.0600 
    237 H237       -1.7696  -22.0220  -55.3127 H         1 UNK         0.0600 
    238 H238       -3.0293  -23.1217  -55.8714 H         1 UNK         0.0600 
    239 H239       -1.7290  -22.6517  -56.9561 H         1 UNK         0.0600 
    240 H240       -2.5544  -19.0020  -55.4170 H         1 UNK         0.3000 
    241 H241       -0.4997  -17.9991  -57.2391 H         1 UNK         0.0600 
    242 H242       -3.9368  -16.1073  -58.1113 H         1 UNK         0.3800 
    243 H243       -3.9284  -17.6504  -57.2970 H         1 UNK         0.3800 
    244 H244       -1.5090  -16.8142  -54.6019 H         1 UNK         0.0800 
    245 H245       -0.1196  -16.2724  -55.5016 H         1 UNK         0.0800 
    246 H246       -1.7790  -19.2249  -53.6478 H         1 UNK         0.0800 
    247 H247       -0.4347  -20.1140  -53.0026 H         1 UNK         0.0800 
@<TRIPOS>BOND
     1    1    2 1    
     2    1  127 1    
     3    1  128 1    
     4    1  129 1    
     5    2    3 2    
     6    2    4 am   BACKBONE|DICT|INTERRES
     7    4    5 1    
     8    4  130 1    
     9    5    6 1    
    10    5   65 1    
    11    5  131 1    
    12    6    7 1    
    13    6  132 1    
    14    6  133 1    
    15    7    8 1    
    16    8    9 1    
    17    8  134 1    
    18    8  135 1    
    19    9   10 ar   
    20    9   14 ar   
    21   10   11 ar   
    22   10  136 1    
    23   11   12 ar   
    24   11  126 1    
    25   12   13 ar   
    26   12  137 1    
    27   13   14 ar   
    28   13   15 1    
    29   14  138 1    
    30   15   16 1    
    31   15  139 1    
    32   15  140 1    
    33   16   17 1    
    34   17   18 1    
    35   17  141 1    
    36   17  142 1    
    37   18   19 1    
    38   18   67 1    
    39   18  143 1    
    40   19   20 am   BACKBONE|DICT|INTERRES
    41   19  144 1    
    42   20   21 2    
    43   20   22 1    
    44   22   23 1    
    45   22   24 1    
    46   22  145 1    
    47   23  146 1    
    48   23  147 1    
    49   23  148 1    
    50   24   25 am   BACKBONE|DICT|INTERRES
    51   24  149 1    
    52   25   26 2    
    53   25   27 1    
    54   27   28 1    
    55   27   29 1    
    56   27  150 1    
    57   28  151 1    
    58   28  152 1    
    59   28  153 1    
    60   29   30 am   BACKBONE|DICT|INTERRES
    61   29  154 1    
    62   30   31 2    
    63   30   32 1    
    64   32   33 1    
    65   32   34 1    
    66   32  155 1    
    67   33  156 1    
    68   33  157 1    
    69   33  158 1    
    70   34   35 am   BACKBONE|DICT|INTERRES
    71   34  159 1    
    72   35   36 2    
    73   35   37 1    
    74   37   38 1    
    75   37   39 1    
    76   37  160 1    
    77   38  161 1    
    78   38  162 1    
    79   38  163 1    
    80   39   40 am   BACKBONE|DICT|INTERRES
    81   39  164 1    
    82   40   41 2    
    83   40   42 1    
    84   42   43 1    
    85   42   44 1    
    86   42  165 1    
    87   43  166 1    
    88   43  167 1    
    89   43  168 1    
    90   44   45 am   BACKBONE|DICT|INTERRES
    91   44  169 1    
    92   45   46 2    
    93   45   47 1    
    94   47   48 1    
    95   47   49 1    
    96   47  170 1    
    97   48  171 1    
    98   48  172 1    
    99   48  173 1    
   100   49   50 am   BACKBONE|DICT|INTERRES
   101   49  174 1    
   102   50   51 2    
   103   50   52 1    
   104   52   53 1    
   105   52   54 1    
   106   52  175 1    
   107   53  176 1    
   108   53  177 1    
   109   53  178 1    
   110   54   55 am   BACKBONE|DICT|INTERRES
   111   54  179 1    
   112   55   56 2    
   113   55   57 1    
   114   57   58 1    
   115   57   59 1    
   116   57  180 1    
   117   58  181 1    
   118   58  182 1    
   119   58  183 1    
   120   59   60 am   BACKBONE|DICT|INTERRES
   121   59  184 1    
   122   60   61 2    
   123   60   62 1    
   124   62   63 1    
   125   62   64 1    
   126   62  185 1    
   127   63  186 1    
   128   63  187 1    
   129   63  188 1    
   130   64   65 am   BACKBONE|DICT|INTERRES
   131   64  189 1    
   132   65   66 2    
   133   67   68 2    
   134   67   69 am   BACKBONE|DICT|INTERRES
   135   69   70 1    
   136   69  190 1    
   137   70   71 1    
   138   70   72 1    
   139   70  191 1    
   140   71  192 1    
   141   71  193 1    
   142   71  194 1    
   143   72   73 2    
   144   72   74 am   BACKBONE|DICT|INTERRES
   145   74   75 1    
   146   74  195 1    
   147   75   76 1    
   148   75   77 1    
   149   75  196 1    
   150   76  197 1    
   151   76  198 1    
   152   76  199 1    
   153   77   78 2    
   154   77   79 am   BACKBONE|DICT|INTERRES
   155   79   80 1    
   156   79  200 1    
   157   80   81 1    
   158   80   82 1    
   159   80  201 1    
   160   81  202 1    
   161   81  203 1    
   162   81  204 1    
   163   82   83 2    
   164   82   84 am   BACKBONE|DICT|INTERRES
   165   84   85 1    
   166   84  205 1    
   167   85   86 1    
   168   85   87 1    
   169   85  206 1    
   170   86  207 1    
   171   86  208 1    
   172   86  209 1    
   173   87   88 2    
   174   87   89 am   BACKBONE|DICT|INTERRES
   175   89   90 1    
   176   89  210 1    
   177   90   91 1    
   178   90   92 1    
   179   90  211 1    
   180   91  212 1    
   181   91  213 1    
   182   91  214 1    
   183   92   93 2    
   184   92   94 am   BACKBONE|DICT|INTERRES
   185   94   95 1    
   186   94  215 1    
   187   95   96 1    
   188   95   97 1    
   189   95  216 1    
   190   96  217 1    
   191   96  218 1    
   192   96  219 1    
   193   97   98 2    
   194   97   99 am   BACKBONE|DICT|INTERRES
   195   99  100 1    
   196   99  220 1    
   197  100  101 1    
   198  100  102 1    
   199  100  221 1    
   200  101  222 1    
   201  101  223 1    
   202  101  224 1    
   203  102  103 2    
   204  102  104 am   BACKBONE|DICT|INTERRES
   205  104  105 1    
   206  104  225 1    
   207  105  106 1    
   208  105  107 1    
   209  105  226 1    
   210  106  227 1    
   211  106  228 1    
   212  106  229 1    
   213  107  108 2    
   214  107  109 am   BACKBONE|DICT|INTERRES
   215  109  110 1    
   216  109  230 1    
   217  110  111 1    
   218  110  112 1    
   219  110  231 1    
   220  111  232 1    
   221  111  233 1    
   222  111  234 1    
   223  112  113 2    
   224  112  114 am   BACKBONE|DICT|INTERRES
   225  114  115 1    
   226  114  235 1    
   227  115  116 1    
   228  115  117 1    
   229  115  236 1    
   230  116  237 1    
   231  116  238 1    
   232  116  239 1    
   233  117  118 2    
   234  117  119 am   BACKBONE|DICT|INTERRES
   235  119  120 1    
   236  119  240 1    
   237  120  121 1    
   238  120  124 1    
   239  120  241 1    
   240  121  122 am   BACKBONE|DICT|INTERRES
   241  121  123 2    
   242  122  242 1    
   243  122  243 1    
   244  124  125 1    
   245  124  244 1    
   246  124  245 1    
   247  125  126 1    
   248  126  246 1    
   249  126  247 1    
@<TRIPOS>SUBSTRUCTURE
     1 UNK         1 GROUP             0       ****    0 ROOT    
