@<TRIPOS>MOLECULE
3R540
247   249    1
SMALL
USER_CHARGES


@<TRIPOS>ATOM
      1 CA         -5.6219  -16.1956  -48.7246 C.3       0 UNK        -0.1800 
      2 C          -4.3513  -15.4465  -48.3498 C.2       0 UNK         0.5000 
      3 O          -4.4015  -14.2483  -48.0742 O.2       0 UNK        -0.5000 
      4 N          -3.2152  -16.1543  -48.3214 N.am      1 UNK        -0.5000 
      5 CA         -1.8848  -15.6103  -48.0031 C.3       1 UNK         0.1400 
      6 C6         -0.7510  -16.4022  -48.7049 C.3       23 UNK        -0.0398 
      7 S7         -0.9408  -16.3245  -50.5183 S.3       23 UNK        -0.2404 
      8 C8          0.7820  -16.2943  -51.0964 C.3       23 UNK        -0.0205 
      9 C9          1.3043  -17.6963  -51.3643 C.ar      23 UNK        -0.0193 
     10 C10         0.9159  -18.3647  -52.5290 C.ar      23 UNK        -0.1150 
     11 C11         1.4132  -19.6356  -52.8202 C.ar      23 UNK        -0.0193 
     12 C12         2.3181  -20.2344  -51.9410 C.ar      23 UNK        -0.1150 
     13 C13         2.7237  -19.5747  -50.7767 C.ar      23 UNK        -0.0193 
     14 C14         2.2020  -18.3096  -50.4838 C.ar      23 UNK        -0.1150 
     15 C15         3.7741  -20.2125  -49.8798 C.3       23 UNK        -0.0205 
     16 S16         3.1675  -21.7264  -49.0760 S.3       23 UNK        -0.2404 
     17 C17         2.3458  -21.0331  -47.6089 C.3       23 UNK        -0.0398 
     18 CA          1.3493  -22.0371  -46.9783 C.3       11 UNK         0.1400 
     19 N           1.3311  -21.9473  -45.5180 N.am      11 UNK        -0.5000 
     20 C           0.6892  -22.7927  -44.6997 C.2       10 UNK         0.5000 
     21 O           0.0875  -23.7952  -45.0828 O.2       10 UNK        -0.5000 
     22 CA          0.6585  -22.4088  -43.2093 C.3       10 UNK         0.1400 
     23 CB          1.9352  -22.8656  -42.4876 C.3       10 UNK        -0.1800 
     24 N           0.4716  -20.9674  -43.0326 N.am      10 UNK        -0.5000 
     25 C          -0.6527  -20.3174  -43.3653 C.2       9 UNK         0.5000 
     26 O          -1.6724  -20.8799  -43.7634 O.2       9 UNK        -0.5000 
     27 CA         -0.6156  -18.7835  -43.2956 C.3       9 UNK         0.1400 
     28 CB         -0.9585  -18.2949  -41.8805 C.3       9 UNK        -0.1800 
     29 N           0.6767  -18.2416  -43.7183 N.am      9 UNK        -0.5000 
     30 C           1.0848  -18.1957  -44.9966 C.2       8 UNK         0.5000 
     31 O           0.3919  -18.5697  -45.9421 O.2       8 UNK        -0.5000 
     32 CA          2.5209  -17.7052  -45.2736 C.3       8 UNK         0.1400 
     33 CB          2.5363  -16.1938  -45.5384 C.3       8 UNK        -0.1800 
     34 N           3.4599  -18.0146  -44.1948 N.am      8 UNK        -0.5000 
     35 C           3.7784  -19.2521  -43.7909 C.2       7 UNK         0.5000 
     36 O           3.3625  -20.2697  -44.3430 O.2       7 UNK        -0.5000 
     37 CA          4.6561  -19.3830  -42.5294 C.3       7 UNK         0.1400 
     38 CB          6.1230  -19.6106  -42.9224 C.3       7 UNK        -0.1800 
     39 N           4.5772  -18.2465  -41.6019 N.am      7 UNK        -0.5000 
     40 C           3.4563  -17.7767  -41.0369 C.2       6 UNK         0.5000 
     41 O           2.3334  -18.2294  -41.2767 O.2       6 UNK        -0.5000 
     42 CA          3.6179  -16.5856  -40.0794 C.3       6 UNK         0.1400 
     43 CB          4.2156  -15.3593  -40.7949 C.3       6 UNK        -0.1800 
     44 N           2.3113  -16.2240  -39.5445 N.am      6 UNK        -0.5000 
     45 C           2.0541  -15.7597  -38.3208 C.2       5 UNK         0.5000 
     46 O           2.9174  -15.5763  -37.4603 O.2       5 UNK        -0.5000 
     47 CA          0.5821  -15.3902  -38.0456 C.3       5 UNK         0.1400 
     48 CB          0.2734  -15.2727  -36.5424 C.3       5 UNK        -0.1800 
     49 N           0.2419  -14.1251  -38.6981 N.am      5 UNK        -0.5000 
     50 C           0.0182  -13.9676  -40.0082 C.2       4 UNK         0.5000 
     51 O          -0.0072  -14.8994  -40.8190 O.2       4 UNK        -0.5000 
     52 CA         -0.1826  -12.5258  -40.4948 C.3       4 UNK         0.1400 
     53 CB          1.1455  -11.7466  -40.4863 C.3       4 UNK        -0.1800 
     54 N          -0.7155  -12.5706  -41.8493 N.am      4 UNK        -0.5000 
     55 C          -1.4518  -11.6282  -42.4456 C.2       3 UNK         0.5000 
     56 O          -1.7440  -10.5539  -41.9184 O.2       3 UNK        -0.5000 
     57 CA         -1.9473  -11.9334  -43.8733 C.3       3 UNK         0.1400 
     58 CB         -1.0784  -11.2064  -44.9113 C.3       3 UNK        -0.1800 
     59 N          -1.9550  -13.3631  -44.1905 N.am      3 UNK        -0.5000 
     60 C          -2.8372  -14.2568  -43.7289 C.2       2 UNK         0.5000 
     61 O          -3.7707  -13.9593  -42.9817 O.2       2 UNK        -0.5000 
     62 CA         -2.6420  -15.7176  -44.1960 C.3       2 UNK         0.1400 
     63 CB         -3.7220  -16.6620  -43.6346 C.3       2 UNK        -0.1800 
     64 N          -2.6283  -15.8473  -45.6547 N.am      2 UNK        -0.5000 
     65 C          -1.6406  -15.4748  -46.4819 C.2       1 UNK         0.5000 
     66 O          -0.5770  -15.0015  -46.0806 O.2       1 UNK        -0.5000 
     67 C          -0.0650  -21.8968  -47.5783 C.2       11 UNK         0.5000 
     68 O          -0.4498  -22.7120  -48.4158 O.2       11 UNK        -0.5000 
     69 N          -0.8346  -20.9086  -47.0946 N.am      12 UNK        -0.5000 
     70 CA         -2.2332  -20.6887  -47.4649 C.3       12 UNK         0.1400 
     71 CB         -2.7624  -19.4057  -46.8051 C.3       12 UNK        -0.1800 
     72 C          -3.1389  -21.8789  -47.1096 C.2       12 UNK         0.5000 
     73 O          -3.9652  -22.2707  -47.9308 O.2       12 UNK        -0.5000 
     74 N          -2.9470  -22.4510  -45.9129 N.am      13 UNK        -0.5000 
     75 CA         -3.6538  -23.6434  -45.4453 C.3       13 UNK         0.1400 
     76 CB         -3.3444  -23.8776  -43.9591 C.3       13 UNK        -0.1800 
     77 C          -3.3282  -24.8955  -46.2813 C.2       13 UNK         0.5000 
     78 O          -4.2390  -25.6594  -46.6017 O.2       13 UNK        -0.5000 
     79 N          -2.0484  -25.0677  -46.6418 N.am      14 UNK        -0.5000 
     80 CA         -1.5620  -26.1543  -47.4935 C.3       14 UNK         0.1400 
     81 CB         -0.0266  -26.1932  -47.4506 C.3       14 UNK        -0.1800 
     82 C          -2.0677  -26.0477  -48.9444 C.2       14 UNK         0.5000 
     83 O          -2.4788  -27.0564  -49.5193 O.2       14 UNK        -0.5000 
     84 N          -2.0452  -24.8299  -49.5032 N.am      15 UNK        -0.5000 
     85 CA         -2.5456  -24.5193  -50.8443 C.3       15 UNK         0.1400 
     86 CB         -2.0020  -23.1499  -51.2732 C.3       15 UNK        -0.1800 
     87 C          -4.0833  -24.5281  -50.9420 C.2       15 UNK         0.5000 
     88 O          -4.6172  -24.6892  -52.0402 O.2       15 UNK        -0.5000 
     89 N          -4.7585  -24.3233  -49.8035 N.am      16 UNK        -0.5000 
     90 CA         -6.2018  -24.2251  -49.5721 C.3       16 UNK         0.1400 
     91 CB         -6.9404  -25.5089  -49.9966 C.3       16 UNK        -0.1800 
     92 C          -6.8349  -22.9648  -50.1889 C.2       16 UNK         0.5000 
     93 O          -7.4467  -22.1783  -49.4651 O.2       16 UNK        -0.5000 
     94 N          -6.6791  -22.7921  -51.5064 N.am      17 UNK        -0.5000 
     95 CA         -7.1547  -21.6278  -52.2525 C.3       17 UNK         0.1400 
     96 CB         -7.3772  -22.0277  -53.7175 C.3       17 UNK        -0.1800 
     97 C          -6.1834  -20.4374  -52.1401 C.2       17 UNK         0.5000 
     98 O          -6.6395  -19.2985  -52.0312 O.2       17 UNK        -0.5000 
     99 N          -4.8739  -20.7371  -52.1352 N.am      18 UNK        -0.5000 
    100 CA        -3.7404  -19.8098  -52.0170 C.3       18 UNK         0.1400 
    101 CB        -3.7751  -19.1037  -50.6445 C.3       18 UNK        -0.1800 
    102 C         -3.6259  -18.8084  -53.1899 C.2       18 UNK         0.5000 
    103 O         -4.3352  -18.9320  -54.1906 O.2       18 UNK        -0.5000 
    104 N         -2.7117  -17.8370  -53.0505 N.am      19 UNK        -0.5000 
    105 CA        -2.4302  -16.7481  -53.9916 C.3       19 UNK         0.1400 
    106 CB        -3.5788  -15.7149  -53.9573 C.3       19 UNK        -0.1800 
    107 C         -2.0830  -17.2695  -55.4040 C.2       19 UNK         0.5000 
    108 O         -1.1308  -18.0358  -55.5471 O.2       19 UNK        -0.5000 
    109 N         -2.8531  -16.8624  -56.4197 N.am      20 UNK        -0.5000 
    110 CA        -2.7062  -17.3122  -57.8051 C.3       20 UNK         0.1400 
    111 CB        -3.3510  -16.2657  -58.7281 C.3       20 UNK        -0.1800 
    112 C         -3.3151  -18.7062  -58.0649 C.2       20 UNK         0.5000 
    113 O         -3.0545  -19.2858  -59.1199 O.2       20 UNK        -0.5000 
    114 N         -4.1206  -19.2191  -57.1249 N.am      21 UNK        -0.5000 
    115 CA        -4.8758  -20.4661  -57.2494 C.3       21 UNK         0.1400 
    116 CB        -6.2730  -20.2602  -56.6410 C.3       21 UNK        -0.1800 
    117 C         -4.1478  -21.6834  -56.6424 C.2       21 UNK         0.5000 
    118 O         -4.7719  -22.7326  -56.4779 O.2       21 UNK        -0.5000 
    119 N         -2.8458  -21.5525  -56.3473 N.am      22 UNK        -0.5000 
    120 CA        -1.9687  -22.6617  -55.9259 C.3       22 UNK         0.1400 
    121 C         -1.7754  -23.7818  -56.9943 C.2       22 UNK         0.5000 
    122 N         -2.0135  -23.5306  -58.2766 N.am      22 UNK        -0.7600 
    123 O         -1.3990  -24.8989  -56.6509 O.2       22 UNK        -0.5000 
    124 C124       -0.5790  -22.1618  -55.4581 C.3       23 UNK        -0.0398 
    125 S125       -0.6320  -21.1083  -53.9746 S.3       23 UNK        -0.2404 
    126 C126        1.0110  -20.3403  -54.1050 C.3       23 UNK        -0.0205 
    127 H127       -5.8996  -15.9717  -49.7547 H         1 UNK         0.0600 
    128 H128       -5.4978  -17.2744  -48.6283 H         1 UNK         0.0600 
    129 H129       -6.4438  -15.8940  -48.0752 H         1 UNK         0.0600 
    130 H130       -3.2360  -17.1300  -48.5754 H         1 UNK         0.3000 
    131 H131       -1.8405  -14.5893  -48.3890 H         1 UNK         0.0600 
    132 H132       -0.7332  -17.4473  -48.3962 H         1 UNK         0.0800 
    133 H133        0.2219  -15.9902  -48.4332 H         1 UNK         0.0800 
    134 H134        0.8248  -15.7186  -52.0221 H         1 UNK         0.0800 
    135 H135        1.4195  -15.7645  -50.3873 H         1 UNK         0.0800 
    136 H136        0.2331  -17.8923  -53.2194 H         1 UNK         0.1150 
    137 H137        2.7234  -21.2103  -52.1692 H         1 UNK         0.1150 
    138 H138        2.5169  -17.7900  -49.5899 H         1 UNK         0.1150 
    139 H139        4.6428  -20.4675  -50.4885 H         1 UNK         0.0800 
    140 H140        4.1301  -19.5092  -49.1252 H         1 UNK         0.0800 
    141 H141        1.8683  -20.0825  -47.8556 H         1 UNK         0.0800 
    142 H142        3.1421  -20.7914  -46.9048 H         1 UNK         0.0800 
    143 H143        1.6902  -23.0509  -47.2008 H         1 UNK         0.0600 
    144 H144        1.8642  -21.1897  -45.1014 H         1 UNK         0.3000 
    145 H145       -0.1903  -22.9199  -42.7500 H         1 UNK         0.0600 
    146 H146        1.8989  -22.6168  -41.4270 H         1 UNK         0.0600 
    147 H147        2.0560  -23.9469  -42.5639 H         1 UNK         0.0600 
    148 H148        2.8299  -22.4082  -42.9090 H         1 UNK         0.0600 
    149 H149        1.2720  -20.4307  -42.7310 H         1 UNK         0.3000 
    150 H150       -1.3763  -18.4107  -43.9814 H         1 UNK         0.0600 
    151 H151       -1.9602  -18.6157  -41.5924 H         1 UNK         0.0600 
    152 H152       -0.9359  -17.2078  -41.8188 H         1 UNK         0.0600 
    153 H153       -0.2650  -18.6861  -41.1359 H         1 UNK         0.0600 
    154 H154        1.3204  -17.9822  -42.9778 H         1 UNK         0.3000 
    155 H155        2.8732  -18.2112  -46.1747 H         1 UNK         0.0600 
    156 H156        1.9156  -15.9464  -46.3999 H         1 UNK         0.0600 
    157 H157        3.5437  -15.8388  -45.7559 H         1 UNK         0.0600 
    158 H158        2.1555  -15.6301  -44.6855 H         1 UNK         0.0600 
    159 H159        3.8427  -17.2325  -43.6852 H         1 UNK         0.3000 
    160 H160        4.3072  -20.2659  -41.9902 H         1 UNK         0.0600 
    161 H161        6.2205  -20.4662  -43.5924 H         1 UNK         0.0600 
    162 H162        6.7398  -19.8149  -42.0471 H         1 UNK         0.0600 
    163 H163        6.5411  -18.7432  -43.4346 H         1 UNK         0.0600 
    164 H164        5.4570  -17.8137  -41.3601 H         1 UNK         0.3000 
    165 H165        4.2793  -16.8986  -39.2691 H         1 UNK         0.0600 
    166 H166        4.3021  -14.5118  -40.1146 H         1 UNK         0.0600 
    167 H167        5.2158  -15.5650  -41.1770 H         1 UNK         0.0600 
    168 H168        3.5966  -15.0459  -41.6369 H         1 UNK         0.0600 
    169 H169        1.5388  -16.3465  -40.1903 H         1 UNK         0.3000 
    170 H170       -0.0471  -16.1844  -38.4540 H         1 UNK         0.0600 
    171 H171        0.5189  -16.1986  -36.0207 H         1 UNK         0.0600 
    172 H172        0.8421  -14.4693  -36.0723 H         1 UNK         0.0600 
    173 H173       -0.7854  -15.0763  -36.3727 H         1 UNK         0.0600 
    174 H174        0.2736  -13.3047  -38.1102 H         1 UNK         0.3000 
    175 H175       -0.9041  -12.0390  -39.8353 H         1 UNK         0.0600 
    176 H176        1.5647  -11.6898  -39.4813 H         1 UNK         0.0600 
    177 H177        1.8908  -12.2200  -41.1271 H         1 UNK         0.0600 
    178 H178        1.0066  -10.7233  -40.8352 H         1 UNK         0.0600 
    179 H179       -0.5628  -13.4528  -42.3215 H         1 UNK         0.3000 
    180 H180       -2.9685  -11.5554  -43.9557 H         1 UNK         0.0600 
    181 H181       -0.0452  -11.5550  -44.8849 H         1 UNK         0.0600 
    182 H182       -1.0678  -10.1310  -44.7291 H         1 UNK         0.0600 
    183 H183       -1.4590  -11.3605  -45.9212 H         1 UNK         0.0600 
    184 H184       -1.2346  -13.7008  -44.8227 H         1 UNK         0.3000 
    185 H185       -1.6720  -16.0412  -43.8156 H         1 UNK         0.0600 
    186 H186       -3.5751  -17.6884  -43.9691 H         1 UNK         0.0600 
    187 H187       -3.7034  -16.6712  -42.5440 H         1 UNK         0.0600 
    188 H188       -4.7222  -16.3562  -43.9440 H         1 UNK         0.0600 
    189 H189       -3.4836  -16.1754  -46.0773 H         1 UNK         0.3000 
    190 H190       -0.4264  -20.2372  -46.4510 H         1 UNK         0.3000 
    191 H191       -2.2579  -20.5578  -48.5476 H         1 UNK         0.0600 
    192 H192       -2.8333  -19.5063  -45.7226 H         1 UNK         0.0600 
    193 H193       -3.7593  -19.1616  -47.1740 H         1 UNK         0.0600 
    194 H194       -2.1177  -18.5559  -47.0111 H         1 UNK         0.0600 
    195 H195       -2.2852  -22.0288  -45.2688 H         1 UNK         0.3000 
    196 H196       -4.7247  -23.4519  -45.5403 H         1 UNK         0.0600 
    197 H197       -2.2832  -24.0606  -43.7908 H         1 UNK         0.0600 
    198 H198       -3.8909  -24.7412  -43.5782 H         1 UNK         0.0600 
    199 H199       -3.6340  -23.0167  -43.3562 H         1 UNK         0.0600 
    200 H200       -1.3502  -24.4202  -46.2881 H         1 UNK         0.3000 
    201 H201       -1.9339  -27.0945  -47.0810 H         1 UNK         0.0600 
    202 H202        0.3348  -26.3481  -46.4338 H         1 UNK         0.0600 
    203 H203        0.4116  -25.2666  -47.8222 H         1 UNK         0.0600 
    204 H204        0.3611  -27.0089  -48.0620 H         1 UNK         0.0600 
    205 H205       -1.6250  -24.0602  -48.9861 H         1 UNK         0.3000 
    206 H206       -2.1659  -25.2714  -51.5388 H         1 UNK         0.0600 
    207 H207       -2.3267  -22.3601  -50.5945 H         1 UNK         0.0600 
    208 H208       -2.3471  -22.8922  -52.2748 H         1 UNK         0.0600 
    209 H209       -0.9119  -23.1444  -51.2936 H         1 UNK         0.0600 
    210 H210       -4.2019  -24.0859  -48.9906 H         1 UNK         0.3000 
    211 H211       -6.3116  -24.1327  -48.4902 H         1 UNK         0.0600 
    212 H212       -6.8908  -25.6784  -51.0723 H         1 UNK         0.0600 
    213 H213       -7.9952  -25.4556  -49.7251 H         1 UNK         0.0600 
    214 H214       -6.5204  -26.3839  -49.5001 H         1 UNK         0.0600 
    215 H215       -6.1320  -23.4853  -52.0086 H         1 UNK         0.3000 
    216 H216       -8.1180  -21.3156  -51.8430 H         1 UNK         0.0600 
    217 H217       -7.8240  -21.2055  -54.2765 H         1 UNK         0.0600 
    218 H218       -8.0565  -22.8766  -53.7966 H         1 UNK         0.0600 
    219 H219       -6.4426  -22.2994  -54.2099 H         1 UNK         0.0600 
    220 H220       -4.6265  -21.7067  -52.2605 H         1 UNK         0.3000 
    221 H221       -2.8439  -20.4277  -52.0513 H         1 UNK         0.0600 
    222 H222       -4.4850  -18.2762  -50.6400 H         1 UNK         0.0600 
    223 H223       -4.0675  -19.7930  -49.8524 H         1 UNK         0.0600 
    224 H224       -2.7960  -18.7047  -50.3811 H         1 UNK         0.0600 
    225 H225       -2.1467  -17.8287  -52.2127 H         1 UNK         0.3000 
    226 H226       -1.5322  -16.2477  -53.6278 H         1 UNK         0.0600 
    227 H227       -3.7295  -15.3408  -52.9444 H         1 UNK         0.0600 
    228 H228       -3.3545  -14.8508  -54.5839 H         1 UNK         0.0600 
    229 H229       -4.5258  -16.1393  -54.2928 H         1 UNK         0.0600 
    230 H230       -3.6268  -16.2440  -56.2237 H         1 UNK         0.3000 
    231 H231       -1.6430  -17.3694  -58.0481 H         1 UNK         0.0600 
    232 H232       -3.2315  -16.5411  -59.7768 H         1 UNK         0.0600 
    233 H233       -2.8899  -15.2865  -58.5973 H         1 UNK         0.0600 
    234 H234       -4.4197  -16.1632  -58.5355 H         1 UNK         0.0600 
    235 H235       -4.2196  -18.7386  -56.2362 H         1 UNK         0.3000 
    236 H236       -5.0203  -20.6964  -58.3068 H         1 UNK         0.0600 
    237 H237       -6.8924  -21.1502  -56.7577 H         1 UNK         0.0600 
    238 H238       -6.2177  -20.0329  -55.5775 H         1 UNK         0.0600 
    239 H239       -6.7964  -19.4384  -57.1296 H         1 UNK         0.0600 
    240 H240       -2.4086  -20.6515  -56.4742 H         1 UNK         0.3000 
    241 H241       -2.4522  -23.1414  -55.0725 H         1 UNK         0.0600 
    242 H242       -1.8866  -24.2639  -58.9567 H         1 UNK         0.3800 
    243 H243       -2.3142  -22.6169  -58.5764 H         1 UNK         0.3800 
    244 H244       -0.0893  -21.6153  -56.2662 H         1 UNK         0.0800 
    245 H245        0.0737  -23.0041  -55.2200 H         1 UNK         0.0800 
    246 H246        1.7488  -21.1038  -54.3569 H         1 UNK         0.0800 
    247 H247        1.0118  -19.6283  -54.9315 H         1 UNK         0.0800 
@<TRIPOS>BOND
     1    1    2 1    
     2    1  127 1    
     3    1  128 1    
     4    1  129 1    
     5    2    3 2    
     6    2    4 am   BACKBONE|DICT|INTERRES
     7    4    5 1    
     8    4  130 1    
     9    5    6 1    
    10    5   65 1    
    11    5  131 1    
    12    6    7 1    
    13    6  132 1    
    14    6  133 1    
    15    7    8 1    
    16    8    9 1    
    17    8  134 1    
    18    8  135 1    
    19    9   10 ar   
    20    9   14 ar   
    21   10   11 ar   
    22   10  136 1    
    23   11   12 ar   
    24   11  126 1    
    25   12   13 ar   
    26   12  137 1    
    27   13   14 ar   
    28   13   15 1    
    29   14  138 1    
    30   15   16 1    
    31   15  139 1    
    32   15  140 1    
    33   16   17 1    
    34   17   18 1    
    35   17  141 1    
    36   17  142 1    
    37   18   19 1    
    38   18   67 1    
    39   18  143 1    
    40   19   20 am   BACKBONE|DICT|INTERRES
    41   19  144 1    
    42   20   21 2    
    43   20   22 1    
    44   22   23 1    
    45   22   24 1    
    46   22  145 1    
    47   23  146 1    
    48   23  147 1    
    49   23  148 1    
    50   24   25 am   BACKBONE|DICT|INTERRES
    51   24  149 1    
    52   25   26 2    
    53   25   27 1    
    54   27   28 1    
    55   27   29 1    
    56   27  150 1    
    57   28  151 1    
    58   28  152 1    
    59   28  153 1    
    60   29   30 am   BACKBONE|DICT|INTERRES
    61   29  154 1    
    62   30   31 2    
    63   30   32 1    
    64   32   33 1    
    65   32   34 1    
    66   32  155 1    
    67   33  156 1    
    68   33  157 1    
    69   33  158 1    
    70   34   35 am   BACKBONE|DICT|INTERRES
    71   34  159 1    
    72   35   36 2    
    73   35   37 1    
    74   37   38 1    
    75   37   39 1    
    76   37  160 1    
    77   38  161 1    
    78   38  162 1    
    79   38  163 1    
    80   39   40 am   BACKBONE|DICT|INTERRES
    81   39  164 1    
    82   40   41 2    
    83   40   42 1    
    84   42   43 1    
    85   42   44 1    
    86   42  165 1    
    87   43  166 1    
    88   43  167 1    
    89   43  168 1    
    90   44   45 am   BACKBONE|DICT|INTERRES
    91   44  169 1    
    92   45   46 2    
    93   45   47 1    
    94   47   48 1    
    95   47   49 1    
    96   47  170 1    
    97   48  171 1    
    98   48  172 1    
    99   48  173 1    
   100   49   50 am   BACKBONE|DICT|INTERRES
   101   49  174 1    
   102   50   51 2    
   103   50   52 1    
   104   52   53 1    
   105   52   54 1    
   106   52  175 1    
   107   53  176 1    
   108   53  177 1    
   109   53  178 1    
   110   54   55 am   BACKBONE|DICT|INTERRES
   111   54  179 1    
   112   55   56 2    
   113   55   57 1    
   114   57   58 1    
   115   57   59 1    
   116   57  180 1    
   117   58  181 1    
   118   58  182 1    
   119   58  183 1    
   120   59   60 am   BACKBONE|DICT|INTERRES
   121   59  184 1    
   122   60   61 2    
   123   60   62 1    
   124   62   63 1    
   125   62   64 1    
   126   62  185 1    
   127   63  186 1    
   128   63  187 1    
   129   63  188 1    
   130   64   65 am   BACKBONE|DICT|INTERRES
   131   64  189 1    
   132   65   66 2    
   133   67   68 2    
   134   67   69 am   BACKBONE|DICT|INTERRES
   135   69   70 1    
   136   69  190 1    
   137   70   71 1    
   138   70   72 1    
   139   70  191 1    
   140   71  192 1    
   141   71  193 1    
   142   71  194 1    
   143   72   73 2    
   144   72   74 am   BACKBONE|DICT|INTERRES
   145   74   75 1    
   146   74  195 1    
   147   75   76 1    
   148   75   77 1    
   149   75  196 1    
   150   76  197 1    
   151   76  198 1    
   152   76  199 1    
   153   77   78 2    
   154   77   79 am   BACKBONE|DICT|INTERRES
   155   79   80 1    
   156   79  200 1    
   157   80   81 1    
   158   80   82 1    
   159   80  201 1    
   160   81  202 1    
   161   81  203 1    
   162   81  204 1    
   163   82   83 2    
   164   82   84 am   BACKBONE|DICT|INTERRES
   165   84   85 1    
   166   84  205 1    
   167   85   86 1    
   168   85   87 1    
   169   85  206 1    
   170   86  207 1    
   171   86  208 1    
   172   86  209 1    
   173   87   88 2    
   174   87   89 am   BACKBONE|DICT|INTERRES
   175   89   90 1    
   176   89  210 1    
   177   90   91 1    
   178   90   92 1    
   179   90  211 1    
   180   91  212 1    
   181   91  213 1    
   182   91  214 1    
   183   92   93 2    
   184   92   94 am   BACKBONE|DICT|INTERRES
   185   94   95 1    
   186   94  215 1    
   187   95   96 1    
   188   95   97 1    
   189   95  216 1    
   190   96  217 1    
   191   96  218 1    
   192   96  219 1    
   193   97   98 2    
   194   97   99 am   BACKBONE|DICT|INTERRES
   195   99  100 1    
   196   99  220 1    
   197  100  101 1    
   198  100  102 1    
   199  100  221 1    
   200  101  222 1    
   201  101  223 1    
   202  101  224 1    
   203  102  103 2    
   204  102  104 am   BACKBONE|DICT|INTERRES
   205  104  105 1    
   206  104  225 1    
   207  105  106 1    
   208  105  107 1    
   209  105  226 1    
   210  106  227 1    
   211  106  228 1    
   212  106  229 1    
   213  107  108 2    
   214  107  109 am   BACKBONE|DICT|INTERRES
   215  109  110 1    
   216  109  230 1    
   217  110  111 1    
   218  110  112 1    
   219  110  231 1    
   220  111  232 1    
   221  111  233 1    
   222  111  234 1    
   223  112  113 2    
   224  112  114 am   BACKBONE|DICT|INTERRES
   225  114  115 1    
   226  114  235 1    
   227  115  116 1    
   228  115  117 1    
   229  115  236 1    
   230  116  237 1    
   231  116  238 1    
   232  116  239 1    
   233  117  118 2    
   234  117  119 am   BACKBONE|DICT|INTERRES
   235  119  120 1    
   236  119  240 1    
   237  120  121 1    
   238  120  124 1    
   239  120  241 1    
   240  121  122 am   BACKBONE|DICT|INTERRES
   241  121  123 2    
   242  122  242 1    
   243  122  243 1    
   244  124  125 1    
   245  124  244 1    
   246  124  245 1    
   247  125  126 1    
   248  126  246 1    
   249  126  247 1    
@<TRIPOS>SUBSTRUCTURE
     1 UNK         1 GROUP             0       ****    0 ROOT    
