@<TRIPOS>MOLECULE
3R540
247   249    1
SMALL
USER_CHARGES


@<TRIPOS>ATOM
      1 CA          1.2508  -12.1977  -49.7413 C.3       0 UNK        -0.1800 
      2 C           0.6586  -12.7563  -48.4491 C.2       0 UNK         0.5000 
      3 O          -0.5543  -12.6894  -48.2664 O.2       0 UNK        -0.5000 
      4 N           1.4623  -13.3125  -47.5339 N.am      1 UNK        -0.5000 
      5 CA          2.9251  -13.4077  -47.5893 C.3       1 UNK         0.1400 
      6 C6          3.4575  -14.5949  -46.7462 C.3       23 UNK        -0.0398 
      7 S7          2.7200  -16.1900  -47.2326 S.3       23 UNK        -0.2404 
      8 C8          3.8504  -16.7071  -48.5589 C.3       23 UNK        -0.0205 
      9 C9          3.0853  -17.3649  -49.6939 C.ar      23 UNK        -0.0193 
     10 C10         2.4409  -16.5731  -50.6476 C.ar      23 UNK        -0.1150 
     11 C11         1.7307  -17.1592  -51.7007 C.ar      23 UNK        -0.0193 
     12 C12         1.6965  -18.5533  -51.8051 C.ar      23 UNK        -0.1150 
     13 C13         2.3426  -19.3578  -50.8606 C.ar      23 UNK        -0.0193 
     14 C14         3.0293  -18.7565  -49.8016 C.ar      23 UNK        -0.1150 
     15 C15         2.3233  -20.8753  -50.9970 C.3       23 UNK        -0.0205 
     16 S16         0.6381  -21.5637  -50.9560 S.3       23 UNK        -0.2404 
     17 C17         0.0973  -21.1397  -49.2659 C.3       23 UNK        -0.0398 
     18 CA         -0.1227  -22.3870  -48.3770 C.3       11 UNK         0.1400 
     19 N          -0.0773  -22.0524  -46.9525 N.am      11 UNK        -0.5000 
     20 C           0.0283  -22.9475  -45.9600 C.2       10 UNK         0.5000 
     21 O           0.1646  -24.1559  -46.1442 O.2       10 UNK        -0.5000 
     22 CA         -0.0860  -22.4089  -44.5214 C.3       10 UNK         0.1400 
     23 CB          1.2982  -22.0323  -43.9748 C.3       10 UNK        -0.1800 
     24 N          -0.9864  -21.2576  -44.4281 N.am      10 UNK        -0.5000 
     25 C          -2.3147  -21.3311  -44.6129 C.2       9 UNK         0.5000 
     26 O          -2.9099  -22.3886  -44.8123 O.2       9 UNK        -0.5000 
     27 CA         -3.1101  -20.0108  -44.6402 C.3       9 UNK         0.1400 
     28 CB         -3.6973  -19.7108  -43.2543 C.3       9 UNK        -0.1800 
     29 N          -2.3155  -18.8680  -45.0920 N.am      9 UNK        -0.5000 
     30 C          -1.7466  -18.7655  -46.3035 C.2       8 UNK         0.5000 
     31 O          -1.9153  -19.5958  -47.1974 O.2       8 UNK        -0.5000 
     32 CA         -0.7753  -17.5899  -46.5382 C.3       8 UNK         0.1400 
     33 CB         -1.4262  -16.5106  -47.4116 C.3       8 UNK        -0.1800 
     34 N          -0.2793  -16.9813  -45.3005 N.am      8 UNK        -0.5000 
     35 C           0.4904  -17.6064  -44.3958 C.2       7 UNK         0.5000 
     36 O           0.8790  -18.7671  -44.5263 O.2       7 UNK        -0.5000 
     37 CA          0.8289  -16.8430  -43.1007 C.3       7 UNK         0.1400 
     38 CB          2.2605  -16.2919  -43.1446 C.3       7 UNK        -0.1800 
     39 N          -0.1061  -15.7546  -42.8036 N.am      7 UNK        -0.5000 
     40 C          -1.3871  -15.9358  -42.4473 C.2       6 UNK         0.5000 
     41 O          -1.9120  -17.0452  -42.3545 O.2       6 UNK        -0.5000 
     42 CA         -2.2331  -14.6789  -42.1670 C.3       6 UNK         0.1400 
     43 CB         -2.2877  -14.3988  -40.6577 C.3       6 UNK        -0.1800 
     44 N          -1.7498  -13.4803  -42.8531 N.am      6 UNK        -0.5000 
     45 C          -1.7681  -13.2907  -44.1803 C.2       5 UNK         0.5000 
     46 O          -2.2085  -14.1146  -44.9805 O.2       5 UNK        -0.5000 
     47 CA         -1.1513  -11.9740  -44.6921 C.3       5 UNK         0.1400 
     48 CB         -2.2214  -10.8771  -44.7931 C.3       5 UNK        -0.1800 
     49 N          -0.0475  -11.5009  -43.8505 N.am      5 UNK        -0.5000 
     50 C           1.1201  -12.1427  -43.7246 C.2       4 UNK         0.5000 
     51 O           1.3963  -13.1822  -44.3291 O.2       4 UNK        -0.5000 
     52 CA          2.1117  -11.5757  -42.7026 C.3       4 UNK         0.1400 
     53 CB          1.8248  -12.1824  -41.3137 C.3       4 UNK        -0.1800 
     54 N           3.4607  -11.9067  -43.1466 N.am      4 UNK        -0.5000 
     55 C           4.6075  -11.4716  -42.6122 C.2       3 UNK         0.5000 
     56 O           4.6749  -10.7135  -41.6439 O.2       3 UNK        -0.5000 
     57 CA          5.9020  -11.9551  -43.2917 C.3       3 UNK         0.1400 
     58 CB          6.2090  -13.4104  -42.9028 C.3       3 UNK        -0.1800 
     59 N           5.8389  -11.8473  -44.7499 N.am      3 UNK        -0.5000 
     60 C           5.8479  -10.6915  -45.4310 C.2       2 UNK         0.5000 
     61 O           5.9756   -9.5860  -44.9035 O.2       2 UNK        -0.5000 
     62 CA          5.6782  -10.7849  -46.9617 C.3       2 UNK         0.1400 
     63 CB          7.0492  -10.8408  -47.6531 C.3       2 UNK        -0.1800 
     64 N           4.8772  -11.9370  -47.3893 N.am      2 UNK        -0.5000 
     65 C           3.5717  -12.0852  -47.1255 C.2       1 UNK         0.5000 
     66 O           2.9044  -11.2402  -46.5243 O.2       1 UNK        -0.5000 
     67 C          -1.4366  -23.1170  -48.7209 C.2       11 UNK         0.5000 
     68 O          -1.4032  -24.1490  -49.3906 O.2       11 UNK        -0.5000 
     69 N          -2.5634  -22.6036  -48.2039 N.am      12 UNK        -0.5000 
     70 CA         -3.8816  -23.2279  -48.3344 C.3       12 UNK         0.1400 
     71 CB         -4.9645  -22.2685  -47.8210 C.3       12 UNK        -0.1800 
     72 C          -3.9650  -24.5943  -47.6257 C.2       12 UNK         0.5000 
     73 O          -4.5611  -25.5231  -48.1681 O.2       12 UNK        -0.5000 
     74 N          -3.3297  -24.7155  -46.4514 N.am      13 UNK        -0.5000 
     75 CA         -3.1983  -25.9708  -45.7100 C.3       13 UNK         0.1400 
     76 CB         -2.6176  -25.6968  -44.3152 C.3       13 UNK        -0.1800 
     77 C          -2.3530  -27.0174  -46.4599 C.2       13 UNK         0.5000 
     78 O          -2.7393  -28.1854  -46.4970 O.2       13 UNK        -0.5000 
     79 N          -1.2429  -26.5806  -47.0736 N.am      14 UNK        -0.5000 
     80 CA         -0.3717  -27.4118  -47.9088 C.3       14 UNK         0.1400 
     81 CB          0.9260  -26.6513  -48.2211 C.3       14 UNK        -0.1800 
     82 C          -1.0584  -27.8799  -49.2059 C.2       14 UNK         0.5000 
     83 O          -0.8947  -29.0364  -49.5964 O.2       14 UNK        -0.5000 
     84 N          -1.8398  -26.9873  -49.8298 N.am      15 UNK        -0.5000 
     85 CA         -2.6805  -27.2798  -50.9939 C.3       15 UNK         0.1400 
     86 CB         -3.1206  -25.9533  -51.6334 C.3       15 UNK        -0.1800 
     87 C          -3.9112  -28.1487  -50.6571 C.2       15 UNK         0.5000 
     88 O          -4.4819  -28.7599  -51.5611 O.2       15 UNK        -0.5000 
     89 N          -4.2953  -28.1737  -49.3724 N.am      16 UNK        -0.5000 
     90 CA         -5.4606  -28.8369  -48.7789 C.3       16 UNK         0.1400 
     91 CB         -5.3660  -30.3688  -48.9348 C.3       16 UNK        -0.1800 
     92 C          -6.8055  -28.2579  -49.2698 C.2       16 UNK         0.5000 
     93 O          -7.8164  -28.9630  -49.2687 O.2       16 UNK        -0.5000 
     94 N          -6.7952  -26.9808  -49.6672 N.am      17 UNK        -0.5000 
     95 CA         -7.9072  -26.2191  -50.2247 C.3       17 UNK         0.1400 
     96 CB         -8.3457  -26.8072  -51.5822 C.3       17 UNK        -0.1800 
     97 C          -7.4414  -24.7712  -50.4199 C.2       17 UNK         0.5000 
     98 O          -6.2386  -24.5206  -50.5259 O.2       17 UNK        -0.5000 
     99 N          -8.3938  -23.8411  -50.5546 N.am      18 UNK        -0.5000 
    100 CA        -8.1612  -22.4225  -50.8574 C.3       18 UNK         0.1400 
    101 CB        -9.4015  -21.6172  -50.4304 C.3       18 UNK        -0.1800 
    102 C         -7.7663  -22.1709  -52.3347 C.2       18 UNK         0.5000 
    103 O         -8.2495  -21.2241  -52.9572 O.2       18 UNK        -0.5000 
    104 N         -6.8997  -23.0362  -52.8729 N.am      19 UNK        -0.5000 
    105 CA        -6.3653  -22.9918  -54.2328 C.3       19 UNK         0.1400 
    106 CB        -6.0463  -24.4292  -54.6739 C.3       19 UNK        -0.1800 
    107 C         -5.1125  -22.1021  -54.3437 C.2       19 UNK         0.5000 
    108 O         -4.7107  -21.7649  -55.4583 O.2       19 UNK        -0.5000 
    109 N         -4.5115  -21.7475  -53.1985 N.am      20 UNK        -0.5000 
    110 CA        -3.3675  -20.8457  -53.0863 C.3       20 UNK         0.1400 
    111 CB        -2.8978  -20.8186  -51.6235 C.3       20 UNK        -0.1800 
    112 C         -3.7232  -19.4261  -53.5621 C.2       20 UNK         0.5000 
    113 O         -4.7395  -18.8788  -53.1279 O.2       20 UNK        -0.5000 
    114 N         -2.8689  -18.8438  -54.4145 N.am      21 UNK        -0.5000 
    115 CA        -3.0599  -17.5225  -55.0271 C.3       21 UNK         0.1400 
    116 CB        -1.9381  -17.2793  -56.0486 C.3       21 UNK        -0.1800 
    117 C         -3.1260  -16.3602  -54.0162 C.2       21 UNK         0.5000 
    118 O         -3.7745  -15.3499  -54.2913 O.2       21 UNK        -0.5000 
    119 N         -2.4701  -16.5413  -52.8656 N.am      22 UNK        -0.5000 
    120 CA        -2.4964  -15.6245  -51.7177 C.3       22 UNK         0.1400 
    121 C         -3.6475  -15.9235  -50.7103 C.2       22 UNK         0.5000 
    122 N         -4.4996  -16.9198  -50.9269 N.am      22 UNK        -0.7600 
    123 O         -3.7885  -15.2202  -49.7148 O.2       22 UNK        -0.5000 
    124 C124       -1.1144  -15.5723  -51.0176 C.3       23 UNK        -0.0398 
    125 S125        0.1705  -14.8390  -52.0887 S.3       23 UNK        -0.2404 
    126 C126        1.0293  -16.3068  -52.7545 C.3       23 UNK        -0.0205 
    127 H127        0.4604  -11.8217  -50.3912 H         1 UNK         0.0600 
    128 H128        1.7881  -12.9692  -50.2918 H         1 UNK         0.0600 
    129 H129        1.9313  -11.3725  -49.5328 H         1 UNK         0.0600 
    130 H130        1.0628  -13.6168  -46.6569 H         1 UNK         0.3000 
    131 H131        3.2325  -13.5795  -48.6215 H         1 UNK         0.0600 
    132 H132        3.2461  -14.4347  -45.6902 H         1 UNK         0.0800 
    133 H133        4.5428  -14.6795  -46.8207 H         1 UNK         0.0800 
    134 H134        4.3984  -15.8499  -48.9521 H         1 UNK         0.0800 
    135 H135        4.5984  -17.3872  -48.1486 H         1 UNK         0.0800 
    136 H136        2.4900  -15.4969  -50.5632 H         1 UNK         0.1150 
    137 H137        1.1689  -19.0195  -52.6254 H         1 UNK         0.1150 
    138 H138        3.5310  -19.3699  -49.0663 H         1 UNK         0.1150 
    139 H139        2.7909  -21.1483  -51.9438 H         1 UNK         0.0800 
    140 H140        2.9186  -21.3476  -50.2139 H         1 UNK         0.0800 
    141 H141       -0.8054  -20.5320  -49.3360 H         1 UNK         0.0800 
    142 H142        0.8472  -20.4937  -48.8086 H         1 UNK         0.0800 
    143 H143        0.6986  -23.0829  -48.5631 H         1 UNK         0.0600 
    144 H144       -0.2506  -21.0861  -46.7134 H         1 UNK         0.3000 
    145 H145       -0.4902  -23.2057  -43.8942 H         1 UNK         0.0600 
    146 H146        1.2314  -21.6463  -42.9575 H         1 UNK         0.0600 
    147 H147        1.9553  -22.9025  -43.9510 H         1 UNK         0.0600 
    148 H148        1.7837  -21.2748  -44.5909 H         1 UNK         0.0600 
    149 H149       -0.5504  -20.3513  -44.3011 H         1 UNK         0.3000 
    150 H150       -3.9366  -20.1373  -45.3421 H         1 UNK         0.0600 
    151 H151       -4.3495  -20.5202  -42.9238 H         1 UNK         0.0600 
    152 H152       -4.2920  -18.7972  -43.2650 H         1 UNK         0.0600 
    153 H153       -2.9148  -19.5933  -42.5036 H         1 UNK         0.0600 
    154 H154       -2.1187  -18.1554  -44.4009 H         1 UNK         0.3000 
    155 H155        0.0851  -17.9880  -47.0802 H         1 UNK         0.0600 
    156 H156       -0.7192  -15.7158  -47.6511 H         1 UNK         0.0600 
    157 H157       -1.7738  -16.9335  -48.3545 H         1 UNK         0.0600 
    158 H158       -2.2881  -16.0581  -46.9202 H         1 UNK         0.0600 
    159 H159       -0.5835  -16.0367  -45.1079 H         1 UNK         0.3000 
    160 H160        0.7739  -17.5624  -42.2809 H         1 UNK         0.0600 
    161 H161        2.3845  -15.5752  -43.9529 H         1 UNK         0.0600 
    162 H162        2.9828  -17.0931  -43.3059 H         1 UNK         0.0600 
    163 H163        2.5254  -15.7958  -42.2109 H         1 UNK         0.0600 
    164 H164        0.2449  -14.8134  -42.9118 H         1 UNK         0.3000 
    165 H165       -3.2477  -14.8826  -42.5157 H         1 UNK         0.0600 
    166 H166       -2.9481  -13.5604  -40.4351 H         1 UNK         0.0600 
    167 H167       -2.6690  -15.2638  -40.1131 H         1 UNK         0.0600 
    168 H168       -1.3008  -14.1664  -40.2553 H         1 UNK         0.0600 
    169 H169       -1.3709  -12.7479  -42.2718 H         1 UNK         0.3000 
    170 H170       -0.7576  -12.1600  -45.6919 H         1 UNK         0.0600 
    171 H171       -3.0442  -11.1947  -45.4351 H         1 UNK         0.0600 
    172 H172       -2.6416  -10.6309  -43.8172 H         1 UNK         0.0600 
    173 H173       -1.8098   -9.9639  -45.2234 H         1 UNK         0.0600 
    174 H174       -0.2089  -10.6547  -43.3234 H         1 UNK         0.3000 
    175 H175        2.0081  -10.4895  -42.6665 H         1 UNK         0.0600 
    176 H176        0.7971  -11.9889  -41.0042 H         1 UNK         0.0600 
    177 H177        1.9701  -13.2636  -41.3116 H         1 UNK         0.0600 
    178 H178        2.4712  -11.7581  -40.5460 H         1 UNK         0.0600 
    179 H179        3.4819  -12.5051  -43.9613 H         1 UNK         0.3000 
    180 H180        6.7228  -11.3283  -42.9362 H         1 UNK         0.0600 
    181 H181        5.4378  -14.0968  -43.2551 H         1 UNK         0.0600 
    182 H182        6.2732  -13.5184  -41.8192 H         1 UNK         0.0600 
    183 H183        7.1631  -13.7362  -43.3174 H         1 UNK         0.0600 
    184 H184        5.7583  -12.7082  -45.2681 H         1 UNK         0.3000 
    185 H185        5.1679   -9.8772  -47.2911 H         1 UNK         0.0600 
    186 H186        7.6024  -11.7403  -47.3801 H         1 UNK         0.0600 
    187 H187        6.9452  -10.8255  -48.7382 H         1 UNK         0.0600 
    188 H188        7.6617   -9.9820  -47.3751 H         1 UNK         0.0600 
    189 H189        5.3681  -12.6528  -47.9058 H         1 UNK         0.3000 
    190 H190       -2.5086  -21.7447  -47.6710 H         1 UNK         0.3000 
    191 H191       -4.0602  -23.3968  -49.3979 H         1 UNK         0.0600 
    192 H192       -4.8473  -22.0579  -46.7580 H         1 UNK         0.0600 
    193 H193       -5.9579  -22.6958  -47.9642 H         1 UNK         0.0600 
    194 H194       -4.9379  -21.3201  -48.3579 H         1 UNK         0.0600 
    195 H195       -2.9372  -23.8850  -46.0181 H         1 UNK         0.3000 
    196 H196       -4.2005  -26.3848  -45.5810 H         1 UNK         0.0600 
    197 H197       -2.5652  -26.6147  -43.7285 H         1 UNK         0.0600 
    198 H198       -3.2365  -24.9913  -43.7607 H         1 UNK         0.0600 
    199 H199       -1.6095  -25.2875  -44.3716 H         1 UNK         0.0600 
    200 H200       -0.9599  -25.6141  -46.9472 H         1 UNK         0.3000 
    201 H201       -0.1097  -28.3025  -47.3340 H         1 UNK         0.0600 
    202 H202        1.4599  -26.3921  -47.3067 H         1 UNK         0.0600 
    203 H203        0.7323  -25.7281  -48.7676 H         1 UNK         0.0600 
    204 H204        1.5981  -27.2582  -48.8290 H         1 UNK         0.0600 
    205 H205       -1.8550  -26.0297  -49.4885 H         1 UNK         0.3000 
    206 H206       -2.0805  -27.8282  -51.7228 H         1 UNK         0.0600 
    207 H207       -2.2611  -25.3639  -51.9532 H         1 UNK         0.0600 
    208 H208       -3.7426  -26.1276  -52.5118 H         1 UNK         0.0600 
    209 H209       -3.6987  -25.3467  -50.9364 H         1 UNK         0.0600 
    210 H210       -3.7809  -27.5798  -48.7348 H         1 UNK         0.3000 
    211 H211       -5.4137  -28.6139  -47.7121 H         1 UNK         0.0600 
    212 H212       -5.4844  -30.6795  -49.9730 H         1 UNK         0.0600 
    213 H213       -6.1415  -30.8695  -48.3542 H         1 UNK         0.0600 
    214 H214       -4.4051  -30.7411  -48.5792 H         1 UNK         0.0600 
    215 H215       -5.9364  -26.4445  -49.5699 H         1 UNK         0.3000 
    216 H216       -8.7393  -26.2341  -49.5186 H         1 UNK         0.0600 
    217 H217       -7.5116  -26.8551  -52.2838 H         1 UNK         0.0600 
    218 H218       -9.1265  -26.2008  -52.0429 H         1 UNK         0.0600 
    219 H219       -8.7497  -27.8135  -51.4760 H         1 UNK         0.0600 
    220 H220       -9.3610  -24.1276  -50.5053 H         1 UNK         0.3000 
    221 H221       -7.3225  -22.0769  -50.2493 H         1 UNK         0.0600 
    222 H222       -9.6317  -21.7767  -49.3768 H         1 UNK         0.0600 
    223 H223      -10.2808  -21.8953  -51.0127 H         1 UNK         0.0600 
    224 H224       -9.2416  -20.5466  -50.5649 H         1 UNK         0.0600 
    225 H225       -6.5354  -23.7614  -52.2620 H         1 UNK         0.3000 
    226 H226       -7.1226  -22.5849  -54.9062 H         1 UNK         0.0600 
    227 H227       -5.6716  -24.4513  -55.6981 H         1 UNK         0.0600 
    228 H228       -5.2889  -24.8864  -54.0363 H         1 UNK         0.0600 
    229 H229       -6.9361  -25.0583  -54.6404 H         1 UNK         0.0600 
    230 H230       -4.9282  -22.0558  -52.3337 H         1 UNK         0.3000 
    231 H231       -2.5595  -21.2419  -53.7048 H         1 UNK         0.0600 
    232 H232       -3.6865  -20.4822  -50.9490 H         1 UNK         0.0600 
    233 H233       -2.0517  -20.1421  -51.4990 H         1 UNK         0.0600 
    234 H234       -2.5762  -21.8074  -51.2959 H         1 UNK         0.0600 
    235 H235       -2.0579  -19.3616  -54.7208 H         1 UNK         0.3000 
    236 H236       -4.0117  -17.5416  -55.5619 H         1 UNK         0.0600 
    237 H237       -1.9397  -18.0429  -56.8267 H         1 UNK         0.0600 
    238 H238       -2.0617  -16.3146  -56.5428 H         1 UNK         0.0600 
    239 H239       -0.9553  -17.2817  -55.5760 H         1 UNK         0.0600 
    240 H240       -1.9836  -17.4133  -52.7279 H         1 UNK         0.3000 
    241 H241       -2.7048  -14.6178  -52.0850 H         1 UNK         0.0600 
    242 H242       -5.2390  -17.0776  -50.2617 H         1 UNK         0.3800 
    243 H243       -4.4542  -17.4951  -51.7613 H         1 UNK         0.3800 
    244 H244       -0.8089  -16.5644  -50.6825 H         1 UNK         0.0800 
    245 H245       -1.1621  -14.9523  -50.1206 H         1 UNK         0.0800 
    246 H246        0.3124  -16.9054  -53.3170 H         1 UNK         0.0800 
    247 H247        1.7767  -15.9710  -53.4741 H         1 UNK         0.0800 
@<TRIPOS>BOND
     1    1    2 1    
     2    1  127 1    
     3    1  128 1    
     4    1  129 1    
     5    2    3 2    
     6    2    4 am   BACKBONE|DICT|INTERRES
     7    4    5 1    
     8    4  130 1    
     9    5    6 1    
    10    5   65 1    
    11    5  131 1    
    12    6    7 1    
    13    6  132 1    
    14    6  133 1    
    15    7    8 1    
    16    8    9 1    
    17    8  134 1    
    18    8  135 1    
    19    9   10 ar   
    20    9   14 ar   
    21   10   11 ar   
    22   10  136 1    
    23   11   12 ar   
    24   11  126 1    
    25   12   13 ar   
    26   12  137 1    
    27   13   14 ar   
    28   13   15 1    
    29   14  138 1    
    30   15   16 1    
    31   15  139 1    
    32   15  140 1    
    33   16   17 1    
    34   17   18 1    
    35   17  141 1    
    36   17  142 1    
    37   18   19 1    
    38   18   67 1    
    39   18  143 1    
    40   19   20 am   BACKBONE|DICT|INTERRES
    41   19  144 1    
    42   20   21 2    
    43   20   22 1    
    44   22   23 1    
    45   22   24 1    
    46   22  145 1    
    47   23  146 1    
    48   23  147 1    
    49   23  148 1    
    50   24   25 am   BACKBONE|DICT|INTERRES
    51   24  149 1    
    52   25   26 2    
    53   25   27 1    
    54   27   28 1    
    55   27   29 1    
    56   27  150 1    
    57   28  151 1    
    58   28  152 1    
    59   28  153 1    
    60   29   30 am   BACKBONE|DICT|INTERRES
    61   29  154 1    
    62   30   31 2    
    63   30   32 1    
    64   32   33 1    
    65   32   34 1    
    66   32  155 1    
    67   33  156 1    
    68   33  157 1    
    69   33  158 1    
    70   34   35 am   BACKBONE|DICT|INTERRES
    71   34  159 1    
    72   35   36 2    
    73   35   37 1    
    74   37   38 1    
    75   37   39 1    
    76   37  160 1    
    77   38  161 1    
    78   38  162 1    
    79   38  163 1    
    80   39   40 am   BACKBONE|DICT|INTERRES
    81   39  164 1    
    82   40   41 2    
    83   40   42 1    
    84   42   43 1    
    85   42   44 1    
    86   42  165 1    
    87   43  166 1    
    88   43  167 1    
    89   43  168 1    
    90   44   45 am   BACKBONE|DICT|INTERRES
    91   44  169 1    
    92   45   46 2    
    93   45   47 1    
    94   47   48 1    
    95   47   49 1    
    96   47  170 1    
    97   48  171 1    
    98   48  172 1    
    99   48  173 1    
   100   49   50 am   BACKBONE|DICT|INTERRES
   101   49  174 1    
   102   50   51 2    
   103   50   52 1    
   104   52   53 1    
   105   52   54 1    
   106   52  175 1    
   107   53  176 1    
   108   53  177 1    
   109   53  178 1    
   110   54   55 am   BACKBONE|DICT|INTERRES
   111   54  179 1    
   112   55   56 2    
   113   55   57 1    
   114   57   58 1    
   115   57   59 1    
   116   57  180 1    
   117   58  181 1    
   118   58  182 1    
   119   58  183 1    
   120   59   60 am   BACKBONE|DICT|INTERRES
   121   59  184 1    
   122   60   61 2    
   123   60   62 1    
   124   62   63 1    
   125   62   64 1    
   126   62  185 1    
   127   63  186 1    
   128   63  187 1    
   129   63  188 1    
   130   64   65 am   BACKBONE|DICT|INTERRES
   131   64  189 1    
   132   65   66 2    
   133   67   68 2    
   134   67   69 am   BACKBONE|DICT|INTERRES
   135   69   70 1    
   136   69  190 1    
   137   70   71 1    
   138   70   72 1    
   139   70  191 1    
   140   71  192 1    
   141   71  193 1    
   142   71  194 1    
   143   72   73 2    
   144   72   74 am   BACKBONE|DICT|INTERRES
   145   74   75 1    
   146   74  195 1    
   147   75   76 1    
   148   75   77 1    
   149   75  196 1    
   150   76  197 1    
   151   76  198 1    
   152   76  199 1    
   153   77   78 2    
   154   77   79 am   BACKBONE|DICT|INTERRES
   155   79   80 1    
   156   79  200 1    
   157   80   81 1    
   158   80   82 1    
   159   80  201 1    
   160   81  202 1    
   161   81  203 1    
   162   81  204 1    
   163   82   83 2    
   164   82   84 am   BACKBONE|DICT|INTERRES
   165   84   85 1    
   166   84  205 1    
   167   85   86 1    
   168   85   87 1    
   169   85  206 1    
   170   86  207 1    
   171   86  208 1    
   172   86  209 1    
   173   87   88 2    
   174   87   89 am   BACKBONE|DICT|INTERRES
   175   89   90 1    
   176   89  210 1    
   177   90   91 1    
   178   90   92 1    
   179   90  211 1    
   180   91  212 1    
   181   91  213 1    
   182   91  214 1    
   183   92   93 2    
   184   92   94 am   BACKBONE|DICT|INTERRES
   185   94   95 1    
   186   94  215 1    
   187   95   96 1    
   188   95   97 1    
   189   95  216 1    
   190   96  217 1    
   191   96  218 1    
   192   96  219 1    
   193   97   98 2    
   194   97   99 am   BACKBONE|DICT|INTERRES
   195   99  100 1    
   196   99  220 1    
   197  100  101 1    
   198  100  102 1    
   199  100  221 1    
   200  101  222 1    
   201  101  223 1    
   202  101  224 1    
   203  102  103 2    
   204  102  104 am   BACKBONE|DICT|INTERRES
   205  104  105 1    
   206  104  225 1    
   207  105  106 1    
   208  105  107 1    
   209  105  226 1    
   210  106  227 1    
   211  106  228 1    
   212  106  229 1    
   213  107  108 2    
   214  107  109 am   BACKBONE|DICT|INTERRES
   215  109  110 1    
   216  109  230 1    
   217  110  111 1    
   218  110  112 1    
   219  110  231 1    
   220  111  232 1    
   221  111  233 1    
   222  111  234 1    
   223  112  113 2    
   224  112  114 am   BACKBONE|DICT|INTERRES
   225  114  115 1    
   226  114  235 1    
   227  115  116 1    
   228  115  117 1    
   229  115  236 1    
   230  116  237 1    
   231  116  238 1    
   232  116  239 1    
   233  117  118 2    
   234  117  119 am   BACKBONE|DICT|INTERRES
   235  119  120 1    
   236  119  240 1    
   237  120  121 1    
   238  120  124 1    
   239  120  241 1    
   240  121  122 am   BACKBONE|DICT|INTERRES
   241  121  123 2    
   242  122  242 1    
   243  122  243 1    
   244  124  125 1    
   245  124  244 1    
   246  124  245 1    
   247  125  126 1    
   248  126  246 1    
   249  126  247 1    
@<TRIPOS>SUBSTRUCTURE
     1 UNK         1 GROUP             0       ****    0 ROOT    
