@<TRIPOS>MOLECULE
3R540
247   249    1
SMALL
USER_CHARGES


@<TRIPOS>ATOM
      1 CA          1.3706  -12.3481  -49.6691 C.3       0 UNK        -0.1800 
      2 C           2.8087  -12.5985  -49.2406 C.2       0 UNK         0.5000 
      3 O           3.6001  -11.6577  -49.1649 O.2       0 UNK        -0.5000 
      4 N           3.1477  -13.8599  -48.9466 N.am      1 UNK        -0.5000 
      5 CA          4.4447  -14.2837  -48.4112 C.3       1 UNK         0.1400 
      6 C6          4.5895  -15.8270  -48.4117 C.3       23 UNK        -0.0398 
      7 S7          5.2074  -16.4679  -50.0057 S.3       23 UNK        -0.2404 
      8 C8          3.7207  -16.5110  -51.0580 C.3       23 UNK        -0.0205 
      9 C9          2.6813  -17.5109  -50.5747 C.ar      23 UNK        -0.0193 
     10 C10         1.4786  -17.0636  -50.0176 C.ar      23 UNK        -0.1150 
     11 C11         0.5098  -17.9783  -49.5991 C.ar      23 UNK        -0.0193 
     12 C12         0.7456  -19.3462  -49.7555 C.ar      23 UNK        -0.1150 
     13 C13         1.9444  -19.8093  -50.3054 C.ar      23 UNK        -0.0193 
     14 C14         2.9090  -18.8844  -50.7146 C.ar      23 UNK        -0.1150 
     15 C15         2.1777  -21.3054  -50.4841 C.3       23 UNK        -0.0205 
     16 S16         3.1880  -22.0535  -49.1556 S.3       23 UNK        -0.2404 
     17 C17         2.2103  -21.7135  -47.6480 C.3       23 UNK        -0.0398 
     18 CA          1.2506  -22.8345  -47.1702 C.3       11 UNK         0.1400 
     19 N           0.5506  -22.4285  -45.9478 N.am      11 UNK        -0.5000 
     20 C          -0.1526  -23.2463  -45.1502 C.2       10 UNK         0.5000 
     21 O          -0.2323  -24.4610  -45.3272 O.2       10 UNK        -0.5000 
     22 CA         -0.9383  -22.5975  -43.9892 C.3       10 UNK         0.1400 
     23 CB         -0.0674  -22.5247  -42.7269 C.3       10 UNK        -0.1800 
     24 N          -1.4391  -21.2570  -44.3020 N.am      10 UNK        -0.5000 
     25 C          -2.2826  -20.9675  -45.3031 C.2       9 UNK         0.5000 
     26 O          -2.8282  -21.8279  -45.9928 O.2       9 UNK        -0.5000 
     27 CA         -2.5047  -19.4789  -45.6473 C.3       9 UNK         0.1400 
     28 CB         -3.8611  -18.9962  -45.1163 C.3       9 UNK        -0.1800 
     29 N          -1.4562  -18.5640  -45.1798 N.am      9 UNK        -0.5000 
     30 C          -0.1436  -18.6579  -45.4414 C.2       8 UNK         0.5000 
     31 O           0.3422  -19.5652  -46.1125 O.2       8 UNK        -0.5000 
     32 CA          0.7930  -17.5839  -44.8581 C.3       8 UNK         0.1400 
     33 CB          1.3069  -16.6687  -45.9778 C.3       8 UNK        -0.1800 
     34 N           0.1809  -16.7651  -43.8118 N.am      8 UNK        -0.5000 
     35 C          -0.1885  -17.2034  -42.5997 C.2       7 UNK         0.5000 
     36 O          -0.0398  -18.3639  -42.2154 O.2       7 UNK        -0.5000 
     37 CA         -0.8828  -16.1780  -41.6893 C.3       7 UNK         0.1400 
     38 CB          0.1532  -15.3287  -40.9372 C.3       7 UNK        -0.1800 
     39 N          -1.7671  -15.3040  -42.4628 N.am      7 UNK        -0.5000 
     40 C          -3.0156  -15.6277  -42.8280 C.2       6 UNK         0.5000 
     41 O          -3.5703  -16.6758  -42.4997 O.2       6 UNK        -0.5000 
     42 CA         -3.7706  -14.6229  -43.7189 C.3       6 UNK         0.1400 
     43 CB         -4.5383  -13.6108  -42.8557 C.3       6 UNK        -0.1800 
     44 N          -2.8887  -13.8982  -44.6345 N.am      6 UNK        -0.5000 
     45 C          -2.3182  -14.4249  -45.7265 C.2       5 UNK         0.5000 
     46 O          -2.5464  -15.5659  -46.1299 O.2       5 UNK        -0.5000 
     47 CA         -1.3258  -13.5313  -46.4986 C.3       5 UNK         0.1400 
     48 CB         -2.0420  -12.8354  -47.6648 C.3       5 UNK        -0.1800 
     49 N          -0.6509  -12.5206  -45.6761 N.am      5 UNK        -0.5000 
     50 C           0.0921  -12.7631  -44.5882 C.2       4 UNK         0.5000 
     51 O           0.2783  -13.8940  -44.1357 O.2       4 UNK        -0.5000 
     52 CA          0.6968  -11.5328  -43.8834 C.3       4 UNK         0.1400 
     53 CB          1.2526  -11.8701  -42.4887 C.3       4 UNK        -0.1800 
     54 N           1.7631  -10.9218  -44.6711 N.am      4 UNK        -0.5000 
     55 C           1.6172  -10.1781  -45.7724 C.2       3 UNK         0.5000 
     56 O           0.5205   -9.9134  -46.2676 O.2       3 UNK        -0.5000 
     57 CA          2.8980   -9.6440  -46.4461 C.3       3 UNK         0.1400 
     58 CB          3.2703   -8.2516  -45.9030 C.3       3 UNK        -0.1800 
     59 N           4.0479  -10.5602  -46.4118 N.am      3 UNK        -0.5000 
     60 C           4.7791  -10.9811  -45.3665 C.2       2 UNK         0.5000 
     61 O           4.5740  -10.6242  -44.2054 O.2       2 UNK        -0.5000 
     62 CA          5.9118  -11.9886  -45.6726 C.3       2 UNK         0.1400 
     63 CB          6.2923  -12.8538  -44.4522 C.3       2 UNK        -0.1800 
     64 N           5.6353  -12.8255  -46.8476 N.am      2 UNK        -0.5000 
     65 C           4.6220  -13.6914  -46.9992 C.2       1 UNK         0.5000 
     66 O           3.8172  -13.9839  -46.1139 O.2       1 UNK        -0.5000 
     67 C           0.2403  -23.2610  -48.2563 C.2       11 UNK         0.5000 
     68 O           0.4435  -24.2859  -48.9052 O.2       11 UNK        -0.5000 
     69 N          -0.8499  -22.4941  -48.4086 N.am      12 UNK        -0.5000 
     70 CA         -1.9345  -22.7870  -49.3484 C.3       12 UNK         0.1400 
     71 CB         -2.8521  -21.5625  -49.4764 C.3       12 UNK        -0.1800 
     72 C          -2.7228  -24.0462  -48.9422 C.2       12 UNK         0.5000 
     73 O          -3.0468  -24.8668  -49.8011 O.2       12 UNK        -0.5000 
     74 N          -2.9552  -24.2080  -47.6312 N.am      13 UNK        -0.5000 
     75 CA         -3.5513  -25.4005  -47.0318 C.3       13 UNK         0.1400 
     76 CB         -3.7855  -25.1708  -45.5317 C.3       13 UNK        -0.1800 
     77 C          -2.7058  -26.6652  -47.2754 C.2       13 UNK         0.5000 
     78 O          -3.2509  -27.6870  -47.6958 O.2       13 UNK        -0.5000 
     79 N          -1.3869  -26.5580  -47.0533 N.am      14 UNK        -0.5000 
     80 CA         -0.4074  -27.6153  -47.3137 C.3       14 UNK         0.1400 
     81 CB          0.9618  -27.1989  -46.7564 C.3       14 UNK        -0.1800 
     82 C          -0.2975  -27.9875  -48.8043 C.2       14 UNK         0.5000 
     83 O          -0.1285  -29.1654  -49.1229 O.2       14 UNK        -0.5000 
     84 N          -0.4435  -26.9965  -49.6940 N.am      15 UNK        -0.5000 
     85 CA         -0.4756  -27.1390  -51.1516 C.3       15 UNK         0.1400 
     86 CB         -0.1340  -25.7815  -51.7925 C.3       15 UNK        -0.1800 
     87 C          -1.8125  -27.7206  -51.6677 C.2       15 UNK         0.5000 
     88 O          -2.4379  -27.1422  -52.5573 O.2       15 UNK        -0.5000 
     89 N          -2.2135  -28.8690  -51.1048 N.am      16 UNK        -0.5000 
     90 CA         -3.3922  -29.6730  -51.4412 C.3       16 UNK         0.1400 
     91 CB         -3.2285  -30.3062  -52.8393 C.3       16 UNK        -0.1800 
     92 C          -4.7287  -28.9186  -51.2717 C.2       16 UNK         0.5000 
     93 O          -5.6245  -29.0624  -52.1064 O.2       16 UNK        -0.5000 
     94 N          -4.8419  -28.1466  -50.1796 N.am      17 UNK        -0.5000 
     95 CA         -6.0175  -27.3701  -49.7704 C.3       17 UNK         0.1400 
     96 CB         -7.1671  -28.3084  -49.3461 C.3       17 UNK        -0.1800 
     97 C          -6.4464  -26.3130  -50.8101 C.2       17 UNK         0.5000 
     98 O          -7.6349  -26.1859  -51.1142 O.2       17 UNK        -0.5000 
     99 N          -5.4670  -25.5731  -51.3427 N.am      18 UNK        -0.5000 
    100 CA        -5.6848  -24.4602  -52.2625 C.3       18 UNK         0.1400 
    101 CB        -4.3677  -24.1537  -52.9939 C.3       18 UNK        -0.1800 
    102 C         -6.1796  -23.2090  -51.5159 C.2       18 UNK         0.5000 
    103 O         -5.8661  -23.0279  -50.3372 O.2       18 UNK        -0.5000 
    104 N         -6.9107  -22.3448  -52.2299 N.am      19 UNK        -0.5000 
    105 CA        -7.2577  -21.0028  -51.7599 C.3       19 UNK         0.1400 
    106 CB        -8.5233  -20.5096  -52.4794 C.3       19 UNK        -0.1800 
    107 C         -6.0817  -20.0372  -51.9845 C.2       19 UNK         0.5000 
    108 O         -5.7000  -19.3132  -51.0658 O.2       19 UNK        -0.5000 
    109 N         -5.5337  -20.0560  -53.2120 N.am      20 UNK        -0.5000 
    110 CA        -4.3382  -19.3387  -53.6843 C.3       20 UNK         0.1400 
    111 CB        -3.0794  -19.9576  -53.0429 C.3       20 UNK        -0.1800 
    112 C         -4.3813  -17.7985  -53.5288 C.2       20 UNK         0.5000 
    113 O         -3.3356  -17.1520  -53.5975 O.2       20 UNK        -0.5000 
    114 N         -5.5858  -17.2433  -53.3183 N.am      21 UNK        -0.5000 
    115 CA        -5.8821  -15.8536  -52.9426 C.3       21 UNK         0.1400 
    116 CB        -5.4889  -14.8749  -54.0692 C.3       21 UNK        -0.1800 
    117 C         -5.3049  -15.4478  -51.5643 C.2       21 UNK         0.5000 
    118 O         -5.1344  -14.2562  -51.2986 O.2       21 UNK        -0.5000 
    119 N         -5.0223  -16.4397  -50.7120 N.am      22 UNK        -0.5000 
    120 CA        -4.4914  -16.2782  -49.3523 C.3       22 UNK         0.1400 
    121 C         -5.6124  -16.0230  -48.3037 C.2       22 UNK         0.5000 
    122 N         -5.2525  -15.7590  -47.0555 N.am      22 UNK        -0.7600 
    123 O         -6.8065  -16.0665  -48.5949 O.2       22 UNK        -0.5000 
    124 C124       -3.6061  -17.4885  -48.9609 C.3       23 UNK        -0.0398 
    125 S125       -2.1915  -17.7098  -50.0943 S.3       23 UNK        -0.2404 
    126 C126       -0.7873  -17.5021  -48.9657 C.3       23 UNK        -0.0205 
    127 H127        1.3427  -11.9907  -50.6985 H         1 UNK         0.0600 
    128 H128        0.9203  -11.5878  -49.0306 H         1 UNK         0.0600 
    129 H129        0.7630  -13.2512  -49.6035 H         1 UNK         0.0600 
    130 H130        2.4433  -14.5789  -48.9867 H         1 UNK         0.3000 
    131 H131        5.2232  -13.8626  -49.0517 H         1 UNK         0.0600 
    132 H132        5.3167  -16.1465  -47.6626 H         1 UNK         0.0800 
    133 H133        3.6559  -16.3197  -48.1387 H         1 UNK         0.0800 
    134 H134        4.0236  -16.7836  -52.0699 H         1 UNK         0.0800 
    135 H135        3.2965  -15.5098  -51.1370 H         1 UNK         0.0800 
    136 H136        1.2894  -16.0053  -49.9171 H         1 UNK         0.1150 
    137 H137       -0.0084  -20.0515  -49.4408 H         1 UNK         0.1150 
    138 H138        3.8364  -19.2326  -51.1476 H         1 UNK         0.1150 
    139 H139        1.2245  -21.8296  -50.5599 H         1 UNK         0.0800 
    140 H140        2.6818  -21.4765  -51.4363 H         1 UNK         0.0800 
    141 H141        1.6693  -20.7837  -47.7850 H         1 UNK         0.0800 
    142 H142        2.9261  -21.5045  -46.8521 H         1 UNK         0.0800 
    143 H143        1.8564  -23.7107  -46.9296 H         1 UNK         0.0600 
    144 H144        0.5229  -21.4281  -45.7691 H         1 UNK         0.3000 
    145 H145       -1.7998  -23.2323  -43.7747 H         1 UNK         0.0600 
    146 H146       -0.6354  -22.1458  -41.8770 H         1 UNK         0.0600 
    147 H147        0.3072  -23.5119  -42.4529 H         1 UNK         0.0600 
    148 H148        0.7955  -21.8729  -42.8707 H         1 UNK         0.0600 
    149 H149       -1.0342  -20.4890  -43.7850 H         1 UNK         0.3000 
    150 H150       -2.5256  -19.4134  -46.7361 H         1 UNK         0.0600 
    151 H151       -4.6739  -19.6179  -45.4942 H         1 UNK         0.0600 
    152 H152       -4.0660  -17.9715  -45.4264 H         1 UNK         0.0600 
    153 H153       -3.8989  -19.0304  -44.0269 H         1 UNK         0.0600 
    154 H154       -1.7672  -17.7710  -44.6376 H         1 UNK         0.3000 
    155 H155        1.6485  -18.1025  -44.4210 H         1 UNK         0.0600 
    156 H156        1.8343  -17.2426  -46.7408 H         1 UNK         0.0600 
    157 H157        2.0002  -15.9217  -45.5918 H         1 UNK         0.0600 
    158 H158        0.4885  -16.1460  -46.4693 H         1 UNK         0.0600 
    159 H159        0.0797  -15.7741  -44.0156 H         1 UNK         0.3000 
    160 H160       -1.4728  -16.7236  -40.9496 H         1 UNK         0.0600 
    161 H161        0.8141  -14.7952  -41.6207 H         1 UNK         0.0600 
    162 H162        0.7798  -15.9554  -40.3016 H         1 UNK         0.0600 
    163 H163       -0.3302  -14.5933  -40.2940 H         1 UNK         0.0600 
    164 H164       -1.3505  -14.4608  -42.8345 H         1 UNK         0.3000 
    165 H165       -4.4971  -15.1859  -44.3077 H         1 UNK         0.0600 
    166 H166       -5.1344  -12.9385  -43.4732 H         1 UNK         0.0600 
    167 H167       -5.2235  -14.1184  -42.1754 H         1 UNK         0.0600 
    168 H168       -3.8646  -13.0031  -42.2503 H         1 UNK         0.0600 
    169 H169       -2.6676  -12.9433  -44.3941 H         1 UNK         0.3000 
    170 H170       -0.5541  -14.1782  -46.9160 H         1 UNK         0.0600 
    171 H171       -2.5043  -13.5642  -48.3317 H         1 UNK         0.0600 
    172 H172       -2.8287  -12.1673  -47.3119 H         1 UNK         0.0600 
    173 H173       -1.3476  -12.2461  -48.2627 H         1 UNK         0.0600 
    174 H174       -0.6942  -11.5614  -46.0038 H         1 UNK         0.3000 
    175 H175       -0.1032  -10.8011  -43.7539 H         1 UNK         0.0600 
    176 H176        2.0707  -12.5896  -42.5440 H         1 UNK         0.0600 
    177 H177        1.6272  -10.9774  -41.9876 H         1 UNK         0.0600 
    178 H178        0.4775  -12.2972  -41.8513 H         1 UNK         0.0600 
    179 H179        2.7113  -11.0638  -44.3373 H         1 UNK         0.3000 
    180 H180        2.6574   -9.5246  -47.5037 H         1 UNK         0.0600 
    181 H181        3.4964   -8.2748  -44.8368 H         1 UNK         0.0600 
    182 H182        2.4484   -7.5485  -46.0439 H         1 UNK         0.0600 
    183 H183        4.1380   -7.8447  -46.4223 H         1 UNK         0.0600 
    184 H184        4.2621  -10.9687  -47.3158 H         1 UNK         0.3000 
    185 H185        6.7839  -11.3857  -45.9291 H         1 UNK         0.0600 
    186 H186        6.6544  -12.2336  -43.6315 H         1 UNK         0.0600 
    187 H187        5.4426  -13.4248  -44.0769 H         1 UNK         0.0600 
    188 H188        7.0870  -13.5574  -44.6996 H         1 UNK         0.0600 
    189 H189        6.2253  -12.6424  -47.6481 H         1 UNK         0.3000 
    190 H190       -0.9798  -21.7057  -47.7926 H         1 UNK         0.3000 
    191 H191       -1.4878  -22.9725  -50.3273 H         1 UNK         0.0600 
    192 H192       -3.4035  -21.3630  -48.5577 H         1 UNK         0.0600 
    193 H193       -3.5837  -21.7099  -50.2705 H         1 UNK         0.0600 
    194 H194       -2.2856  -20.6681  -49.7294 H         1 UNK         0.0600 
    195 H195       -2.7165  -23.4478  -47.0007 H         1 UNK         0.3000 
    196 H196       -4.5245  -25.5436  -47.5001 H         1 UNK         0.0600 
    197 H197       -4.3056  -26.0195  -45.0861 H         1 UNK         0.0600 
    198 H198       -4.3974  -24.2853  -45.3580 H         1 UNK         0.0600 
    199 H199       -2.8491  -25.0421  -44.9904 H         1 UNK         0.0600 
    200 H200       -1.0233  -25.6939  -46.6630 H         1 UNK         0.3000 
    201 H201       -0.7343  -28.5078  -46.7763 H         1 UNK         0.0600 
    202 H202        0.9124  -27.0216  -45.6820 H         1 UNK         0.0600 
    203 H203        1.3288  -26.2876  -47.2291 H         1 UNK         0.0600 
    204 H204        1.7059  -27.9787  -46.9231 H         1 UNK         0.0600 
    205 H205       -0.5385  -26.0502  -49.3417 H         1 UNK         0.3000 
    206 H206        0.3069  -27.8426  -51.4425 H         1 UNK         0.0600 
    207 H207        0.8322  -25.4132  -51.4473 H         1 UNK         0.0600 
    208 H208       -0.0800  -25.8618  -52.8788 H         1 UNK         0.0600 
    209 H209       -0.8842  -25.0270  -51.5555 H         1 UNK         0.0600 
    210 H210       -1.6196  -29.2418  -50.3697 H         1 UNK         0.3000 
    211 H211       -3.4170  -30.4878  -50.7164 H         1 UNK         0.0600 
    212 H212       -3.2420  -29.5536  -53.6283 H         1 UNK         0.0600 
    213 H213       -4.0335  -31.0122  -53.0467 H         1 UNK         0.0600 
    214 H214       -2.2904  -30.8558  -52.9160 H         1 UNK         0.0600 
    215 H215       -4.0503  -28.0861  -49.5469 H         1 UNK         0.3000 
    216 H216       -5.7208  -26.8119  -48.8849 H         1 UNK         0.0600 
    217 H217       -7.9976  -27.7420  -48.9231 H         1 UNK         0.0600 
    218 H218       -6.8373  -29.0149  -48.5843 H         1 UNK         0.0600 
    219 H219       -7.5574  -28.8805  -50.1883 H         1 UNK         0.0600 
    220 H220       -4.5239  -25.6701  -50.9797 H         1 UNK         0.3000 
    221 H221       -6.4339  -24.7537  -53.0010 H         1 UNK         0.0600 
    222 H222       -3.5817  -23.8522  -52.3003 H         1 UNK         0.0600 
    223 H223       -4.0107  -25.0251  -53.5431 H         1 UNK         0.0600 
    224 H224       -4.4958  -23.3454  -53.7147 H         1 UNK         0.0600 
    225 H225       -7.1509  -22.5729  -53.1837 H         1 UNK         0.3000 
    226 H226       -7.4714  -21.0337  -50.6891 H         1 UNK         0.0600 
    227 H227       -9.3711  -21.1623  -52.2706 H         1 UNK         0.0600 
    228 H228       -8.7962  -19.5081  -52.1442 H         1 UNK         0.0600 
    229 H229       -8.3917  -20.4700  -53.5613 H         1 UNK         0.0600 
    230 H230       -5.9543  -20.6664  -53.8974 H         1 UNK         0.3000 
    231 H231       -4.2806  -19.5214  -54.7581 H         1 UNK         0.0600 
    232 H232       -3.0272  -21.0299  -53.2309 H         1 UNK         0.0600 
    233 H233       -3.0686  -19.8095  -51.9641 H         1 UNK         0.0600 
    234 H234       -2.1669  -19.5147  -53.4434 H         1 UNK         0.0600 
    235 H235       -6.3747  -17.8728  -53.2908 H         1 UNK         0.3000 
    236 H236       -6.9662  -15.8017  -52.8327 H         1 UNK         0.0600 
    237 H237       -5.8671  -13.8726  -53.8653 H         1 UNK         0.0600 
    238 H238       -4.4074  -14.7966  -54.1807 H         1 UNK         0.0600 
    239 H239       -5.9044  -15.1877  -55.0270 H         1 UNK         0.0600 
    240 H240       -5.2219  -17.3964  -50.9866 H         1 UNK         0.3000 
    241 H241       -3.8587  -15.3890  -49.3404 H         1 UNK         0.0600 
    242 H242       -5.9754  -15.5944  -46.3740 H         1 UNK         0.3800 
    243 H243       -4.2764  -15.7283  -46.7726 H         1 UNK         0.3800 
    244 H244       -3.2302  -17.3769  -47.9443 H         1 UNK         0.0800 
    245 H245       -4.1931  -18.4084  -48.9642 H         1 UNK         0.0800 
    246 H246       -0.9682  -18.0830  -48.0644 H         1 UNK         0.0800 
    247 H247       -0.7197  -16.4574  -48.6591 H         1 UNK         0.0800 
@<TRIPOS>BOND
     1    1    2 1    
     2    1  127 1    
     3    1  128 1    
     4    1  129 1    
     5    2    3 2    
     6    2    4 am   BACKBONE|DICT|INTERRES
     7    4    5 1    
     8    4  130 1    
     9    5    6 1    
    10    5   65 1    
    11    5  131 1    
    12    6    7 1    
    13    6  132 1    
    14    6  133 1    
    15    7    8 1    
    16    8    9 1    
    17    8  134 1    
    18    8  135 1    
    19    9   10 ar   
    20    9   14 ar   
    21   10   11 ar   
    22   10  136 1    
    23   11   12 ar   
    24   11  126 1    
    25   12   13 ar   
    26   12  137 1    
    27   13   14 ar   
    28   13   15 1    
    29   14  138 1    
    30   15   16 1    
    31   15  139 1    
    32   15  140 1    
    33   16   17 1    
    34   17   18 1    
    35   17  141 1    
    36   17  142 1    
    37   18   19 1    
    38   18   67 1    
    39   18  143 1    
    40   19   20 am   BACKBONE|DICT|INTERRES
    41   19  144 1    
    42   20   21 2    
    43   20   22 1    
    44   22   23 1    
    45   22   24 1    
    46   22  145 1    
    47   23  146 1    
    48   23  147 1    
    49   23  148 1    
    50   24   25 am   BACKBONE|DICT|INTERRES
    51   24  149 1    
    52   25   26 2    
    53   25   27 1    
    54   27   28 1    
    55   27   29 1    
    56   27  150 1    
    57   28  151 1    
    58   28  152 1    
    59   28  153 1    
    60   29   30 am   BACKBONE|DICT|INTERRES
    61   29  154 1    
    62   30   31 2    
    63   30   32 1    
    64   32   33 1    
    65   32   34 1    
    66   32  155 1    
    67   33  156 1    
    68   33  157 1    
    69   33  158 1    
    70   34   35 am   BACKBONE|DICT|INTERRES
    71   34  159 1    
    72   35   36 2    
    73   35   37 1    
    74   37   38 1    
    75   37   39 1    
    76   37  160 1    
    77   38  161 1    
    78   38  162 1    
    79   38  163 1    
    80   39   40 am   BACKBONE|DICT|INTERRES
    81   39  164 1    
    82   40   41 2    
    83   40   42 1    
    84   42   43 1    
    85   42   44 1    
    86   42  165 1    
    87   43  166 1    
    88   43  167 1    
    89   43  168 1    
    90   44   45 am   BACKBONE|DICT|INTERRES
    91   44  169 1    
    92   45   46 2    
    93   45   47 1    
    94   47   48 1    
    95   47   49 1    
    96   47  170 1    
    97   48  171 1    
    98   48  172 1    
    99   48  173 1    
   100   49   50 am   BACKBONE|DICT|INTERRES
   101   49  174 1    
   102   50   51 2    
   103   50   52 1    
   104   52   53 1    
   105   52   54 1    
   106   52  175 1    
   107   53  176 1    
   108   53  177 1    
   109   53  178 1    
   110   54   55 am   BACKBONE|DICT|INTERRES
   111   54  179 1    
   112   55   56 2    
   113   55   57 1    
   114   57   58 1    
   115   57   59 1    
   116   57  180 1    
   117   58  181 1    
   118   58  182 1    
   119   58  183 1    
   120   59   60 am   BACKBONE|DICT|INTERRES
   121   59  184 1    
   122   60   61 2    
   123   60   62 1    
   124   62   63 1    
   125   62   64 1    
   126   62  185 1    
   127   63  186 1    
   128   63  187 1    
   129   63  188 1    
   130   64   65 am   BACKBONE|DICT|INTERRES
   131   64  189 1    
   132   65   66 2    
   133   67   68 2    
   134   67   69 am   BACKBONE|DICT|INTERRES
   135   69   70 1    
   136   69  190 1    
   137   70   71 1    
   138   70   72 1    
   139   70  191 1    
   140   71  192 1    
   141   71  193 1    
   142   71  194 1    
   143   72   73 2    
   144   72   74 am   BACKBONE|DICT|INTERRES
   145   74   75 1    
   146   74  195 1    
   147   75   76 1    
   148   75   77 1    
   149   75  196 1    
   150   76  197 1    
   151   76  198 1    
   152   76  199 1    
   153   77   78 2    
   154   77   79 am   BACKBONE|DICT|INTERRES
   155   79   80 1    
   156   79  200 1    
   157   80   81 1    
   158   80   82 1    
   159   80  201 1    
   160   81  202 1    
   161   81  203 1    
   162   81  204 1    
   163   82   83 2    
   164   82   84 am   BACKBONE|DICT|INTERRES
   165   84   85 1    
   166   84  205 1    
   167   85   86 1    
   168   85   87 1    
   169   85  206 1    
   170   86  207 1    
   171   86  208 1    
   172   86  209 1    
   173   87   88 2    
   174   87   89 am   BACKBONE|DICT|INTERRES
   175   89   90 1    
   176   89  210 1    
   177   90   91 1    
   178   90   92 1    
   179   90  211 1    
   180   91  212 1    
   181   91  213 1    
   182   91  214 1    
   183   92   93 2    
   184   92   94 am   BACKBONE|DICT|INTERRES
   185   94   95 1    
   186   94  215 1    
   187   95   96 1    
   188   95   97 1    
   189   95  216 1    
   190   96  217 1    
   191   96  218 1    
   192   96  219 1    
   193   97   98 2    
   194   97   99 am   BACKBONE|DICT|INTERRES
   195   99  100 1    
   196   99  220 1    
   197  100  101 1    
   198  100  102 1    
   199  100  221 1    
   200  101  222 1    
   201  101  223 1    
   202  101  224 1    
   203  102  103 2    
   204  102  104 am   BACKBONE|DICT|INTERRES
   205  104  105 1    
   206  104  225 1    
   207  105  106 1    
   208  105  107 1    
   209  105  226 1    
   210  106  227 1    
   211  106  228 1    
   212  106  229 1    
   213  107  108 2    
   214  107  109 am   BACKBONE|DICT|INTERRES
   215  109  110 1    
   216  109  230 1    
   217  110  111 1    
   218  110  112 1    
   219  110  231 1    
   220  111  232 1    
   221  111  233 1    
   222  111  234 1    
   223  112  113 2    
   224  112  114 am   BACKBONE|DICT|INTERRES
   225  114  115 1    
   226  114  235 1    
   227  115  116 1    
   228  115  117 1    
   229  115  236 1    
   230  116  237 1    
   231  116  238 1    
   232  116  239 1    
   233  117  118 2    
   234  117  119 am   BACKBONE|DICT|INTERRES
   235  119  120 1    
   236  119  240 1    
   237  120  121 1    
   238  120  124 1    
   239  120  241 1    
   240  121  122 am   BACKBONE|DICT|INTERRES
   241  121  123 2    
   242  122  242 1    
   243  122  243 1    
   244  124  125 1    
   245  124  244 1    
   246  124  245 1    
   247  125  126 1    
   248  126  246 1    
   249  126  247 1    
@<TRIPOS>SUBSTRUCTURE
     1 UNK         1 GROUP             0       ****    0 ROOT    
