@<TRIPOS>MOLECULE
3R540
247   249    1
SMALL
USER_CHARGES


@<TRIPOS>ATOM
      1 CA          3.6105  -12.1399  -50.1613 C.3       0 UNK        -0.1800 
      2 C           2.3945  -12.9528  -49.7413 C.2       0 UNK         0.5000 
      3 O           2.1994  -13.1945  -48.5497 O.2       0 UNK        -0.5000 
      4 N           1.5699  -13.3682  -50.7109 N.am      1 UNK        -0.5000 
      5 CA          0.3551  -14.1690  -50.5191 C.3       1 UNK         0.1400 
      6 C6         -0.0138  -14.9721  -51.7914 C.3       23 UNK        -0.0398 
      7 S7          1.0779  -16.4095  -52.0344 S.3       23 UNK        -0.2404 
      8 C8          0.0348  -17.6959  -51.2801 C.3       23 UNK        -0.0205 
      9 C9          0.6632  -19.0720  -51.3896 C.ar      23 UNK        -0.0193 
     10 C10         0.3630  -19.8975  -52.4762 C.ar      23 UNK        -0.1150 
     11 C11         0.9109  -21.1842  -52.5691 C.ar      23 UNK        -0.0193 
     12 C12         1.7624  -21.6280  -51.5515 C.ar      23 UNK        -0.1150 
     13 C13         2.0816  -20.8090  -50.4639 C.ar      23 UNK        -0.0193 
     14 C14         1.5310  -19.5255  -50.3953 C.ar      23 UNK        -0.1150 
     15 C15         3.0363  -21.3223  -49.3872 C.3       23 UNK        -0.0205 
     16 S16         2.5599  -20.8660  -47.6851 S.3       23 UNK        -0.2404 
     17 C17         0.9075  -21.6260  -47.5490 C.3       23 UNK        -0.0398 
     18 CA          0.8703  -22.8337  -46.5869 C.3       11 UNK         0.1400 
     19 N           1.3086  -22.4919  -45.2275 N.am      11 UNK        -0.5000 
     20 C           1.5507  -23.3900  -44.2613 C.2       10 UNK         0.5000 
     21 O           1.4717  -24.6059  -44.4423 O.2       10 UNK        -0.5000 
     22 CA          1.8693  -22.8497  -42.8532 C.3       10 UNK         0.1400 
     23 CB          2.7276  -23.8187  -42.0133 C.3       10 UNK        -0.1800 
     24 N           2.4285  -21.4956  -42.8492 N.am      10 UNK        -0.5000 
     25 C           3.6296  -21.0943  -43.2925 C.2       9 UNK         0.5000 
     26 O           4.4614  -21.8524  -43.7925 O.2       9 UNK        -0.5000 
     27 CA          3.9717  -19.5929  -43.1579 C.3       9 UNK         0.1400 
     28 CB          4.1864  -18.9598  -44.5420 C.3       9 UNK        -0.1800 
     29 N           2.9576  -18.8184  -42.4369 N.am      9 UNK        -0.5000 
     30 C           2.7592  -18.8367  -41.1117 C.2       8 UNK         0.5000 
     31 O           3.4769  -19.4514  -40.3224 O.2       8 UNK        -0.5000 
     32 CA          1.5172  -18.0876  -40.5869 C.3       8 UNK         0.1400 
     33 CB          1.8536  -16.6228  -40.2706 C.3       8 UNK        -0.1800 
     34 N           0.3777  -18.1456  -41.5097 N.am      8 UNK        -0.5000 
     35 C          -0.2701  -19.2715  -41.8462 C.2       7 UNK         0.5000 
     36 O           0.0015  -20.3774  -41.3800 O.2       7 UNK        -0.5000 
     37 CA         -1.3604  -19.1630  -42.9274 C.3       7 UNK         0.1400 
     38 CB         -2.6795  -18.6526  -42.3312 C.3       7 UNK        -0.1800 
     39 N          -0.9492  -18.3183  -44.0497 N.am      7 UNK        -0.5000 
     40 C           0.0511  -18.6230  -44.8901 C.2       6 UNK         0.5000 
     41 O           0.6539  -19.6961  -44.8567 O.2       6 UNK        -0.5000 
     42 CA          0.4933  -17.5367  -45.8908 C.3       6 UNK         0.1400 
     43 CB         -0.3201  -17.5879  -47.1880 C.3       6 UNK        -0.1800 
     44 N           0.4058  -16.1928  -45.3267 N.am      6 UNK        -0.5000 
     45 C           1.1966  -15.7350  -44.3488 C.2       5 UNK         0.5000 
     46 O           2.0953  -16.3963  -43.8313 O.2       5 UNK        -0.5000 
     47 CA          0.9014  -14.3180  -43.8337 C.3       5 UNK         0.1400 
     48 CB          1.4974  -13.2595  -44.7739 C.3       5 UNK        -0.1800 
     49 N          -0.5339  -14.0859  -43.6699 N.am      5 UNK        -0.5000 
     50 C          -1.2899  -14.6730  -42.7316 C.2       4 UNK         0.5000 
     51 O          -0.8517  -15.4683  -41.9006 O.2       4 UNK        -0.5000 
     52 CA         -2.7923  -14.3366  -42.7414 C.3       4 UNK         0.1400 
     53 CB         -3.0572  -13.0217  -41.9930 C.3       4 UNK        -0.1800 
     54 N          -3.3448  -14.2450  -44.0936 N.am      4 UNK        -0.5000 
     55 C          -3.4815  -15.2885  -44.9235 C.2       3 UNK         0.5000 
     56 O          -3.1611  -16.4399  -44.6334 O.2       3 UNK        -0.5000 
     57 CA         -4.0175  -14.9813  -46.3340 C.3       3 UNK         0.1400 
     58 CB         -5.5501  -14.8780  -46.3239 C.3       3 UNK        -0.1800 
     59 N          -3.4496  -13.7693  -46.9352 N.am      3 UNK        -0.5000 
     60 C          -2.1413  -13.5732  -47.1393 C.2       2 UNK         0.5000 
     61 O          -1.2627  -14.3362  -46.7301 O.2       2 UNK        -0.5000 
     62 CA         -1.7287  -12.3226  -47.9319 C.3       2 UNK         0.1400 
     63 CB         -1.2476  -11.2096  -46.9895 C.3       2 UNK        -0.1800 
     64 N          -0.6392  -12.7105  -48.8217 N.am      2 UNK        -0.5000 
     65 C          -0.8270  -13.3223  -49.9952 C.2       1 UNK         0.5000 
     66 O          -1.8861  -13.2687  -50.6238 O.2       1 UNK        -0.5000 
     67 C          -0.5492  -23.4328  -46.5756 C.2       11 UNK         0.5000 
     68 O          -0.8324  -24.3556  -47.3398 O.2       11 UNK        -0.5000 
     69 N          -1.3947  -22.9208  -45.6683 N.am      12 UNK        -0.5000 
     70 CA         -2.7914  -23.3080  -45.4509 C.3       12 UNK         0.1400 
     71 CB         -3.4026  -22.3454  -44.4199 C.3       12 UNK        -0.1800 
     72 C          -3.0028  -24.7776  -45.0198 C.2       12 UNK         0.5000 
     73 O          -4.1409  -25.2472  -45.0099 O.2       12 UNK        -0.5000 
     74 N          -1.9182  -25.4797  -44.6633 N.am      13 UNK        -0.5000 
     75 CA         -1.9144  -26.9103  -44.3640 C.3       13 UNK         0.1400 
     76 CB         -0.6646  -27.2354  -43.5312 C.3       13 UNK        -0.1800 
     77 C          -1.9620  -27.7943  -45.6284 C.2       13 UNK         0.5000 
     78 O          -2.3038  -28.9722  -45.5116 O.2       13 UNK        -0.5000 
     79 N          -1.6085  -27.2368  -46.7960 N.am      14 UNK        -0.5000 
     80 CA         -1.5460  -27.9482  -48.0750 C.3       14 UNK         0.1400 
     81 CB         -0.0757  -28.0977  -48.4998 C.3       14 UNK        -0.1800 
     82 C          -2.3593  -27.2287  -49.1618 C.2       14 UNK         0.5000 
     83 O          -3.1454  -27.8713  -49.8595 O.2       14 UNK        -0.5000 
     84 N          -2.1628  -25.9121  -49.2837 N.am      15 UNK        -0.5000 
     85 CA         -2.9087  -25.0244  -50.1717 C.3       15 UNK         0.1400 
     86 CB         -1.9630  -23.8800  -50.5811 C.3       15 UNK        -0.1800 
     87 C          -4.1564  -24.4789  -49.4513 C.2       15 UNK         0.5000 
     88 O          -4.2885  -24.6469  -48.2378 O.2       15 UNK        -0.5000 
     89 N          -5.0368  -23.7906  -50.1905 N.am      16 UNK        -0.5000 
     90 CA         -6.0738  -22.9407  -49.5934 C.3       16 UNK         0.1400 
     91 CB         -7.1930  -22.6737  -50.6108 C.3       16 UNK        -0.1800 
     92 C          -5.4563  -21.6244  -49.0819 C.2       16 UNK         0.5000 
     93 O          -5.8652  -21.1236  -48.0351 O.2       16 UNK        -0.5000 
     94 N          -4.4465  -21.1309  -49.8186 N.am      17 UNK        -0.5000 
     95 CA         -3.4982  -20.0680  -49.4635 C.3       17 UNK         0.1400 
     96 CB         -2.6956  -20.4815  -48.2134 C.3       17 UNK        -0.1800 
     97 C          -4.1108  -18.6582  -49.3191 C.2       17 UNK         0.5000 
     98 O          -3.4425  -17.7568  -48.8141 O.2       17 UNK        -0.5000 
     99 N          -5.3575  -18.4778  -49.7734 N.am      18 UNK        -0.5000 
    100 CA        -6.1230  -17.2363  -49.6409 C.3       18 UNK         0.1400 
    101 CB        -7.6059  -17.5466  -49.8972 C.3       18 UNK        -0.1800 
    102 C         -5.6450  -16.0984  -50.5647 C.2       18 UNK         0.5000 
    103 O         -5.9353  -14.9346  -50.2858 O.2       18 UNK        -0.5000 
    104 N         -4.9428  -16.4484  -51.6470 N.am      19 UNK        -0.5000 
    105 CA        -4.4207  -15.5419  -52.6626 C.3       19 UNK         0.1400 
    106 CB        -5.5498  -15.1463  -53.6343 C.3       19 UNK        -0.1800 
    107 C         -3.2727  -16.2415  -53.4033 C.2       19 UNK         0.5000 
    108 O         -3.0445  -17.4364  -53.1956 O.2       19 UNK        -0.5000 
    109 N         -2.5906  -15.4980  -54.2853 N.am      20 UNK        -0.5000 
    110 CA        -1.4540  -15.9526  -55.1000 C.3       20 UNK         0.1400 
    111 CB        -0.8752  -14.7473  -55.8566 C.3       20 UNK        -0.1800 
    112 C         -1.7664  -17.1081  -56.0756 C.2       20 UNK         0.5000 
    113 O         -0.8409  -17.7692  -56.5461 O.2       20 UNK        -0.5000 
    114 N         -3.0578  -17.3537  -56.3349 N.am      21 UNK        -0.5000 
    115 CA        -3.5745  -18.5221  -57.0517 C.3       21 UNK         0.1400 
    116 CB        -5.0203  -18.2242  -57.4820 C.3       21 UNK        -0.1800 
    117 C         -3.5090  -19.8316  -56.2302 C.2       21 UNK         0.5000 
    118 O         -3.8118  -20.8928  -56.7763 O.2       21 UNK        -0.5000 
    119 N         -3.1392  -19.7341  -54.9445 N.am      22 UNK        -0.5000 
    120 CA        -3.0176  -20.8168  -53.9528 C.3       22 UNK         0.1400 
    121 C         -4.3737  -21.2927  -53.3579 C.2       22 UNK         0.5000 
    122 N         -5.4980  -20.6564  -53.6608 N.am      22 UNK        -0.7600 
    123 O         -4.4025  -22.2256  -52.5606 O.2       22 UNK        -0.5000 
    124 C124       -2.1225  -22.0110  -54.3958 C.3       23 UNK        -0.0398 
    125 S125       -0.4846  -21.5228  -55.0456 S.3       23 UNK        -0.2404 
    126 C126        0.6572  -22.1248  -53.7505 C.3       23 UNK        -0.0205 
    127 H127        3.5823  -11.1553  -49.6947 H         1 UNK         0.0600 
    128 H128        3.6541  -12.0036  -51.2422 H         1 UNK         0.0600 
    129 H129        4.5244  -12.6425  -49.8448 H         1 UNK         0.0600 
    130 H130        1.7788  -13.1208  -51.6675 H         1 UNK         0.3000 
    131 H131        0.5532  -14.8957  -49.7273 H         1 UNK         0.0600 
    132 H132       -1.0368  -15.3453  -51.7411 H         1 UNK         0.0800 
    133 H133        0.0266  -14.3362  -52.6766 H         1 UNK         0.0800 
    134 H134       -0.9425  -17.7065  -51.7607 H         1 UNK         0.0800 
    135 H135       -0.1453  -17.4511  -50.2326 H         1 UNK         0.0800 
    136 H136       -0.2899  -19.5171  -53.2474 H         1 UNK         0.1150 
    137 H137        2.1942  -22.6172  -51.6170 H         1 UNK         0.1150 
    138 H138        1.7728  -18.8772  -49.5650 H         1 UNK         0.1150 
    139 H139        3.1213  -22.4089  -49.4383 H         1 UNK         0.0800 
    140 H140        4.0314  -20.9245  -49.5891 H         1 UNK         0.0800 
    141 H141        0.5609  -21.9261  -48.5393 H         1 UNK         0.0800 
    142 H142        0.2166  -20.8517  -47.2161 H         1 UNK         0.0800 
    143 H143        1.5460  -23.5988  -46.9752 H         1 UNK         0.0600 
    144 H144        1.3605  -21.4998  -45.0104 H         1 UNK         0.3000 
    145 H145        0.9038  -22.7670  -42.3530 H         1 UNK         0.0600 
    146 H146        2.9305  -23.4091  -41.0237 H         1 UNK         0.0600 
    147 H147        2.2145  -24.7704  -41.8695 H         1 UNK         0.0600 
    148 H148        3.6832  -24.0351  -42.4911 H         1 UNK         0.0600 
    149 H149        1.8123  -20.7885  -42.4672 H         1 UNK         0.3000 
    150 H150        4.9109  -19.5245  -42.6056 H         1 UNK         0.0600 
    151 H151        4.9891  -19.4613  -45.0837 H         1 UNK         0.0600 
    152 H152        4.4585  -17.9075  -44.4590 H         1 UNK         0.0600 
    153 H153        3.2889  -19.0274  -45.1559 H         1 UNK         0.0600 
    154 H154        2.3692  -18.2135  -43.0010 H         1 UNK         0.3000 
    155 H155        1.2131  -18.5710  -39.6562 H         1 UNK         0.0600 
    156 H156        2.6796  -16.5562  -39.5615 H         1 UNK         0.0600 
    157 H157        1.0009  -16.1102  -39.8252 H         1 UNK         0.0600 
    158 H158        2.1442  -16.0722  -41.1651 H         1 UNK         0.0600 
    159 H159        0.0651  -17.2619  -41.8997 H         1 UNK         0.3000 
    160 H160       -1.5369  -20.1680  -43.3151 H         1 UNK         0.0600 
    161 H161       -2.5906  -17.6277  -41.9710 H         1 UNK         0.0600 
    162 H162       -2.9939  -19.2715  -41.4900 H         1 UNK         0.0600 
    163 H163       -3.4804  -18.6804  -43.0702 H         1 UNK         0.0600 
    164 H164       -1.4556  -17.4480  -44.1752 H         1 UNK         0.3000 
    165 H165        1.5380  -17.7223  -46.1471 H         1 UNK         0.0600 
    166 H166       -0.0753  -16.7501  -47.8411 H         1 UNK         0.0600 
    167 H167       -0.0964  -18.4981  -47.7419 H         1 UNK         0.0600 
    168 H168       -1.3931  -17.5550  -46.9939 H         1 UNK         0.0600 
    169 H169       -0.2915  -15.5691  -45.7279 H         1 UNK         0.3000 
    170 H170        1.3770  -14.2096  -42.8565 H         1 UNK         0.0600 
    171 H171        2.5794  -13.3743  -44.8493 H         1 UNK         0.0600 
    172 H172        1.0936  -13.3401  -45.7834 H         1 UNK         0.0600 
    173 H173        1.3019  -12.2506  -44.4107 H         1 UNK         0.0600 
    174 H174       -0.9820  -13.5002  -44.3584 H         1 UNK         0.3000 
    175 H175       -3.3148  -15.1381  -42.2148 H         1 UNK         0.0600 
    176 H176       -2.6699  -13.0683  -40.9743 H         1 UNK         0.0600 
    177 H177       -2.5824  -12.1727  -42.4864 H         1 UNK         0.0600 
    178 H178       -4.1256  -12.8160  -41.9239 H         1 UNK         0.0600 
    179 H179       -3.6218  -13.3301  -44.4173 H         1 UNK         0.3000 
    180 H180       -3.7395  -15.8201  -46.9748 H         1 UNK         0.0600 
    181 H181       -5.8946  -14.0458  -45.7090 H         1 UNK         0.0600 
    182 H182       -5.9992  -15.7893  -45.9267 H         1 UNK         0.0600 
    183 H183       -5.9432  -14.7351  -47.3306 H         1 UNK         0.0600 
    184 H184       -4.1098  -13.0951  -47.2951 H         1 UNK         0.3000 
    185 H185       -2.5779  -11.9541  -48.5113 H         1 UNK         0.0600 
    186 H186       -2.0427  -10.9038  -46.3084 H         1 UNK         0.0600 
    187 H187       -0.3993  -11.5277  -46.3835 H         1 UNK         0.0600 
    188 H188       -0.9424  -10.3263  -47.5507 H         1 UNK         0.0600 
    189 H189        0.2702  -12.8329  -48.3855 H         1 UNK         0.3000 
    190 H190       -1.0444  -22.1826  -45.0758 H         1 UNK         0.3000 
    191 H191       -3.3183  -23.1655  -46.3947 H         1 UNK         0.0600 
    192 H192       -2.8987  -22.4165  -43.4552 H         1 UNK         0.0600 
    193 H193       -4.4583  -22.5656  -44.2562 H         1 UNK         0.0600 
    194 H194       -3.3406  -21.3111  -44.7595 H         1 UNK         0.0600 
    195 H195       -1.0164  -25.0246  -44.6920 H         1 UNK         0.3000 
    196 H196       -2.7942  -27.1457  -43.7615 H         1 UNK         0.0600 
    197 H197       -0.6574  -28.2839  -43.2306 H         1 UNK         0.0600 
    198 H198       -0.6276  -26.6364  -42.6211 H         1 UNK         0.0600 
    199 H199        0.2518  -27.0499  -44.0927 H         1 UNK         0.0600 
    200 H200       -1.3780  -26.2495  -46.8147 H         1 UNK         0.3000 
    201 H201       -1.9694  -28.9500  -47.9773 H         1 UNK         0.0600 
    202 H202        0.4836  -28.6876  -47.7734 H         1 UNK         0.0600 
    203 H203        0.4179  -27.1296  -48.5944 H         1 UNK         0.0600 
    204 H204        0.0044  -28.6051  -49.4620 H         1 UNK         0.0600 
    205 H205       -1.5568  -25.4384  -48.6190 H         1 UNK         0.3000 
    206 H206       -3.2269  -25.5629  -51.0667 H         1 UNK         0.0600 
    207 H207       -1.0797  -24.2633  -51.0924 H         1 UNK         0.0600 
    208 H208       -2.4463  -23.1813  -51.2593 H         1 UNK         0.0600 
    209 H209       -1.6233  -23.3079  -49.7181 H         1 UNK         0.0600 
    210 H210       -4.8540  -23.6427  -51.1779 H         1 UNK         0.3000 
    211 H211       -6.5171  -23.4595  -48.7405 H         1 UNK         0.0600 
    212 H212       -7.9905  -22.0800  -50.1622 H         1 UNK         0.0600 
    213 H213       -7.6380  -23.6059  -50.9589 H         1 UNK         0.0600 
    214 H214       -6.8327  -22.1295  -51.4822 H         1 UNK         0.0600 
    215 H215       -4.2628  -21.5982  -50.7008 H         1 UNK         0.3000 
    216 H216       -2.7968  -20.0034  -50.2969 H         1 UNK         0.0600 
    217 H217       -1.8632  -19.8042  -48.0466 H         1 UNK         0.0600 
    218 H218       -2.2801  -21.4824  -48.3210 H         1 UNK         0.0600 
    219 H219       -3.3100  -20.4689  -47.3126 H         1 UNK         0.0600 
    220 H220       -5.8378  -19.2712  -50.1706 H         1 UNK         0.3000 
    221 H221       -6.0224  -16.8856  -48.6119 H         1 UNK         0.0600 
    222 H222       -7.7695  -17.9188  -50.9094 H         1 UNK         0.0600 
    223 H223       -7.9786  -18.2960  -49.1984 H         1 UNK         0.0600 
    224 H224       -8.2200  -16.6538  -49.7720 H         1 UNK         0.0600 
    225 H225       -4.6830  -17.4171  -51.7808 H         1 UNK         0.3000 
    226 H226       -4.0164  -14.6508  -52.1775 H         1 UNK         0.0600 
    227 H227       -6.3664  -14.6484  -53.1112 H         1 UNK         0.0600 
    228 H228       -5.1951  -14.4550  -54.3993 H         1 UNK         0.0600 
    229 H229       -5.9640  -16.0178  -54.1430 H         1 UNK         0.0600 
    230 H230       -2.8564  -14.5311  -54.4069 H         1 UNK         0.3000 
    231 H231       -0.6895  -16.3252  -54.4171 H         1 UNK         0.0600 
    232 H232       -0.5563  -13.9638  -55.1692 H         1 UNK         0.0600 
    233 H233       -1.6050  -14.3168  -56.5434 H         1 UNK         0.0600 
    234 H234       -0.0020  -15.0354  -56.4435 H         1 UNK         0.0600 
    235 H235       -3.7446  -16.7450  -55.9160 H         1 UNK         0.3000 
    236 H236       -2.9723  -18.6722  -57.9500 H         1 UNK         0.0600 
    237 H237       -5.4374  -19.0514  -58.0579 H         1 UNK         0.0600 
    238 H238       -5.6711  -18.0617  -56.6220 H         1 UNK         0.0600 
    239 H239       -5.0690  -17.3364  -58.1129 H         1 UNK         0.0600 
    240 H240       -2.9645  -18.8088  -54.5659 H         1 UNK         0.3000 
    241 H241       -2.5163  -20.3501  -53.1052 H         1 UNK         0.0600 
    242 H242       -6.3717  -20.9781  -53.2792 H         1 UNK         0.3800 
    243 H243       -5.4873  -19.8860  -54.3081 H         1 UNK         0.3800 
    244 H244       -1.9773  -22.6993  -53.5631 H         1 UNK         0.0800 
    245 H245       -2.6260  -22.5942  -55.1676 H         1 UNK         0.0800 
    246 H246        0.3108  -23.0905  -53.3796 H         1 UNK         0.0800 
    247 H247        1.6174  -22.3160  -54.2315 H         1 UNK         0.0800 
@<TRIPOS>BOND
     1    1    2 1    
     2    1  127 1    
     3    1  128 1    
     4    1  129 1    
     5    2    3 2    
     6    2    4 am   BACKBONE|DICT|INTERRES
     7    4    5 1    
     8    4  130 1    
     9    5    6 1    
    10    5   65 1    
    11    5  131 1    
    12    6    7 1    
    13    6  132 1    
    14    6  133 1    
    15    7    8 1    
    16    8    9 1    
    17    8  134 1    
    18    8  135 1    
    19    9   10 ar   
    20    9   14 ar   
    21   10   11 ar   
    22   10  136 1    
    23   11   12 ar   
    24   11  126 1    
    25   12   13 ar   
    26   12  137 1    
    27   13   14 ar   
    28   13   15 1    
    29   14  138 1    
    30   15   16 1    
    31   15  139 1    
    32   15  140 1    
    33   16   17 1    
    34   17   18 1    
    35   17  141 1    
    36   17  142 1    
    37   18   19 1    
    38   18   67 1    
    39   18  143 1    
    40   19   20 am   BACKBONE|DICT|INTERRES
    41   19  144 1    
    42   20   21 2    
    43   20   22 1    
    44   22   23 1    
    45   22   24 1    
    46   22  145 1    
    47   23  146 1    
    48   23  147 1    
    49   23  148 1    
    50   24   25 am   BACKBONE|DICT|INTERRES
    51   24  149 1    
    52   25   26 2    
    53   25   27 1    
    54   27   28 1    
    55   27   29 1    
    56   27  150 1    
    57   28  151 1    
    58   28  152 1    
    59   28  153 1    
    60   29   30 am   BACKBONE|DICT|INTERRES
    61   29  154 1    
    62   30   31 2    
    63   30   32 1    
    64   32   33 1    
    65   32   34 1    
    66   32  155 1    
    67   33  156 1    
    68   33  157 1    
    69   33  158 1    
    70   34   35 am   BACKBONE|DICT|INTERRES
    71   34  159 1    
    72   35   36 2    
    73   35   37 1    
    74   37   38 1    
    75   37   39 1    
    76   37  160 1    
    77   38  161 1    
    78   38  162 1    
    79   38  163 1    
    80   39   40 am   BACKBONE|DICT|INTERRES
    81   39  164 1    
    82   40   41 2    
    83   40   42 1    
    84   42   43 1    
    85   42   44 1    
    86   42  165 1    
    87   43  166 1    
    88   43  167 1    
    89   43  168 1    
    90   44   45 am   BACKBONE|DICT|INTERRES
    91   44  169 1    
    92   45   46 2    
    93   45   47 1    
    94   47   48 1    
    95   47   49 1    
    96   47  170 1    
    97   48  171 1    
    98   48  172 1    
    99   48  173 1    
   100   49   50 am   BACKBONE|DICT|INTERRES
   101   49  174 1    
   102   50   51 2    
   103   50   52 1    
   104   52   53 1    
   105   52   54 1    
   106   52  175 1    
   107   53  176 1    
   108   53  177 1    
   109   53  178 1    
   110   54   55 am   BACKBONE|DICT|INTERRES
   111   54  179 1    
   112   55   56 2    
   113   55   57 1    
   114   57   58 1    
   115   57   59 1    
   116   57  180 1    
   117   58  181 1    
   118   58  182 1    
   119   58  183 1    
   120   59   60 am   BACKBONE|DICT|INTERRES
   121   59  184 1    
   122   60   61 2    
   123   60   62 1    
   124   62   63 1    
   125   62   64 1    
   126   62  185 1    
   127   63  186 1    
   128   63  187 1    
   129   63  188 1    
   130   64   65 am   BACKBONE|DICT|INTERRES
   131   64  189 1    
   132   65   66 2    
   133   67   68 2    
   134   67   69 am   BACKBONE|DICT|INTERRES
   135   69   70 1    
   136   69  190 1    
   137   70   71 1    
   138   70   72 1    
   139   70  191 1    
   140   71  192 1    
   141   71  193 1    
   142   71  194 1    
   143   72   73 2    
   144   72   74 am   BACKBONE|DICT|INTERRES
   145   74   75 1    
   146   74  195 1    
   147   75   76 1    
   148   75   77 1    
   149   75  196 1    
   150   76  197 1    
   151   76  198 1    
   152   76  199 1    
   153   77   78 2    
   154   77   79 am   BACKBONE|DICT|INTERRES
   155   79   80 1    
   156   79  200 1    
   157   80   81 1    
   158   80   82 1    
   159   80  201 1    
   160   81  202 1    
   161   81  203 1    
   162   81  204 1    
   163   82   83 2    
   164   82   84 am   BACKBONE|DICT|INTERRES
   165   84   85 1    
   166   84  205 1    
   167   85   86 1    
   168   85   87 1    
   169   85  206 1    
   170   86  207 1    
   171   86  208 1    
   172   86  209 1    
   173   87   88 2    
   174   87   89 am   BACKBONE|DICT|INTERRES
   175   89   90 1    
   176   89  210 1    
   177   90   91 1    
   178   90   92 1    
   179   90  211 1    
   180   91  212 1    
   181   91  213 1    
   182   91  214 1    
   183   92   93 2    
   184   92   94 am   BACKBONE|DICT|INTERRES
   185   94   95 1    
   186   94  215 1    
   187   95   96 1    
   188   95   97 1    
   189   95  216 1    
   190   96  217 1    
   191   96  218 1    
   192   96  219 1    
   193   97   98 2    
   194   97   99 am   BACKBONE|DICT|INTERRES
   195   99  100 1    
   196   99  220 1    
   197  100  101 1    
   198  100  102 1    
   199  100  221 1    
   200  101  222 1    
   201  101  223 1    
   202  101  224 1    
   203  102  103 2    
   204  102  104 am   BACKBONE|DICT|INTERRES
   205  104  105 1    
   206  104  225 1    
   207  105  106 1    
   208  105  107 1    
   209  105  226 1    
   210  106  227 1    
   211  106  228 1    
   212  106  229 1    
   213  107  108 2    
   214  107  109 am   BACKBONE|DICT|INTERRES
   215  109  110 1    
   216  109  230 1    
   217  110  111 1    
   218  110  112 1    
   219  110  231 1    
   220  111  232 1    
   221  111  233 1    
   222  111  234 1    
   223  112  113 2    
   224  112  114 am   BACKBONE|DICT|INTERRES
   225  114  115 1    
   226  114  235 1    
   227  115  116 1    
   228  115  117 1    
   229  115  236 1    
   230  116  237 1    
   231  116  238 1    
   232  116  239 1    
   233  117  118 2    
   234  117  119 am   BACKBONE|DICT|INTERRES
   235  119  120 1    
   236  119  240 1    
   237  120  121 1    
   238  120  124 1    
   239  120  241 1    
   240  121  122 am   BACKBONE|DICT|INTERRES
   241  121  123 2    
   242  122  242 1    
   243  122  243 1    
   244  124  125 1    
   245  124  244 1    
   246  124  245 1    
   247  125  126 1    
   248  126  246 1    
   249  126  247 1    
@<TRIPOS>SUBSTRUCTURE
     1 UNK         1 GROUP             0       ****    0 ROOT    
