@<TRIPOS>MOLECULE
3R540
247   249    1
SMALL
USER_CHARGES


@<TRIPOS>ATOM
      1 CA         -1.8866  -13.3645  -44.6193 C.3       0 UNK        -0.1800 
      2 C          -1.0802  -13.1560  -45.8919 C.2       0 UNK         0.5000 
      3 O          -1.6306  -12.7148  -46.8992 O.2       0 UNK        -0.5000 
      4 N           0.2193  -13.4773  -45.8597 N.am      1 UNK        -0.5000 
      5 CA          1.1426  -13.3217  -46.9899 C.3       1 UNK         0.1400 
      6 C6          2.5123  -13.9956  -46.7218 C.3       23 UNK        -0.0398 
      7 S7          2.3915  -15.8182  -46.7564 S.3       23 UNK        -0.2404 
      8 C8          3.2290  -16.1831  -48.3329 C.3       23 UNK        -0.0205 
      9 C9          2.8454  -17.5486  -48.8822 C.ar      23 UNK        -0.0193 
     10 C10         1.7898  -17.6601  -49.7912 C.ar      23 UNK        -0.1150 
     11 C11         1.4368  -18.9043  -50.3184 C.ar      23 UNK        -0.0193 
     12 C12         2.1548  -20.0417  -49.9401 C.ar      23 UNK        -0.1150 
     13 C13         3.2076  -19.9497  -49.0228 C.ar      23 UNK        -0.0193 
     14 C14         3.5515  -18.6958  -48.5045 C.ar      23 UNK        -0.1150 
     15 C15         4.0128  -21.1880  -48.6364 C.3       23 UNK        -0.0205 
     16 S16         2.9833  -22.6336  -48.2038 S.3       23 UNK        -0.2404 
     17 C17         2.7045  -22.3911  -46.4182 C.3       23 UNK        -0.0398 
     18 CA          1.8492  -23.5298  -45.8055 C.3       11 UNK         0.1400 
     19 N           2.2302  -23.8541  -44.4277 N.am      11 UNK        -0.5000 
     20 C           1.7725  -24.9224  -43.7538 C.2       10 UNK         0.5000 
     21 O           1.0152  -25.7614  -44.2452 O.2       10 UNK        -0.5000 
     22 CA          2.1797  -25.0626  -42.2743 C.3       10 UNK         0.1400 
     23 CB          3.3699  -26.0231  -42.1365 C.3       10 UNK        -0.1800 
     24 N           2.5100  -23.7948  -41.6201 N.am      10 UNK        -0.5000 
     25 C           1.6785  -22.7541  -41.4716 C.2       9 UNK         0.5000 
     26 O           0.5172  -22.7492  -41.8784 O.2       9 UNK        -0.5000 
     27 CA          2.2413  -21.4910  -40.7896 C.3       9 UNK         0.1400 
     28 CB          3.5619  -21.7306  -40.0243 C.3       9 UNK        -0.1800 
     29 N           2.4082  -20.3740  -41.7247 N.am      9 UNK        -0.5000 
     30 C           3.0744  -20.3683  -42.8894 C.2       8 UNK         0.5000 
     31 O           3.5680  -21.3761  -43.4003 O.2       8 UNK        -0.5000 
     32 CA          3.2438  -18.9958  -43.5723 C.3       8 UNK         0.1400 
     33 CB          3.5473  -19.0820  -45.0766 C.3       8 UNK        -0.1800 
     34 N           2.0912  -18.1152  -43.3764 N.am      8 UNK        -0.5000 
     35 C           1.9919  -17.1865  -42.4173 C.2       7 UNK         0.5000 
     36 O           2.8161  -17.0625  -41.5110 O.2       7 UNK        -0.5000 
     37 CA          0.7930  -16.2218  -42.4713 C.3       7 UNK         0.1400 
     38 CB          1.2659  -14.8319  -42.9224 C.3       7 UNK        -0.1800 
     39 N          -0.2864  -16.6813  -43.3520 N.am      7 UNK        -0.5000 
     40 C          -1.2600  -17.5129  -42.9568 C.2       6 UNK         0.5000 
     41 O          -1.3412  -17.9678  -41.8154 O.2       6 UNK        -0.5000 
     42 CA         -2.3294  -17.9111  -43.9954 C.3       6 UNK         0.1400 
     43 CB         -3.5425  -16.9726  -43.9076 C.3       6 UNK        -0.1800 
     44 N          -1.8912  -17.9754  -45.3921 N.am      6 UNK        -0.5000 
     45 C          -0.8459  -18.6515  -45.8897 C.2       5 UNK         0.5000 
     46 O          -0.0107  -19.2256  -45.1913 O.2       5 UNK        -0.5000 
     47 CA         -0.7226  -18.7254  -47.4263 C.3       5 UNK         0.1400 
     48 CB         -0.8341  -20.1828  -47.8984 C.3       5 UNK        -0.1800 
     49 N          -1.7107  -17.9207  -48.1578 N.am      5 UNK        -0.5000 
     50 C          -1.6831  -16.5866  -48.2511 C.2       4 UNK         0.5000 
     51 O          -0.8231  -15.8949  -47.7098 O.2       4 UNK        -0.5000 
     52 CA         -2.8292  -15.9103  -49.0175 C.3       4 UNK         0.1400 
     53 CB         -4.1502  -16.0127  -48.2318 C.3       4 UNK        -0.1800 
     54 N          -2.4864  -14.5048  -49.2219 N.am      4 UNK        -0.5000 
     55 C          -2.9958  -13.6951  -50.1550 C.2       3 UNK         0.5000 
     56 O          -3.8815  -14.0351  -50.9398 O.2       3 UNK        -0.5000 
     57 CA         -2.4281  -12.2650  -50.2466 C.3       3 UNK         0.1400 
     58 CB         -3.3270  -11.2735  -49.4911 C.3       3 UNK        -0.1800 
     59 N          -1.0516  -12.1508  -49.7538 N.am      3 UNK        -0.5000 
     60 C           0.0308  -12.4870  -50.4710 C.2       2 UNK         0.5000 
     61 O          -0.0385  -12.9182  -51.6216 O.2       2 UNK        -0.5000 
     62 CA          1.4256  -12.2857  -49.8337 C.3       2 UNK         0.1400 
     63 CB          2.4032  -11.6450  -50.8348 C.3       2 UNK        -0.1800 
     64 N           1.4053  -11.4463  -48.6298 N.am      2 UNK        -0.5000 
     65 C           1.3207  -11.8259  -47.3470 C.2       1 UNK         0.5000 
     66 O           1.3890  -10.9997  -46.4359 O.2       1 UNK        -0.5000 
     67 C           0.3404  -23.2346  -45.9361 C.2       11 UNK         0.5000 
     68 O          -0.2463  -23.5677  -46.9637 O.2       11 UNK        -0.5000 
     69 N          -0.2741  -22.6713  -44.8825 N.am      12 UNK        -0.5000 
     70 CA         -1.7073  -22.3855  -44.8150 C.3       12 UNK         0.1400 
     71 CB         -2.0320  -21.6470  -43.5092 C.3       12 UNK        -0.1800 
     72 C          -2.5597  -23.6570  -44.9332 C.2       12 UNK         0.5000 
     73 O          -3.5332  -23.6674  -45.6864 O.2       12 UNK        -0.5000 
     74 N          -2.1467  -24.7082  -44.2137 N.am      13 UNK        -0.5000 
     75 CA         -2.7721  -26.0264  -44.2368 C.3       13 UNK         0.1400 
     76 CB         -2.3090  -26.8296  -43.0117 C.3       13 UNK        -0.1800 
     77 C          -2.4674  -26.7875  -45.5373 C.2       13 UNK         0.5000 
     78 O          -3.3728  -27.4023  -46.1007 O.2       13 UNK        -0.5000 
     79 N          -1.2074  -26.7259  -45.9930 N.am      14 UNK        -0.5000 
     80 CA         -0.7273  -27.4142  -47.1924 C.3       14 UNK         0.1400 
     81 CB          0.8049  -27.3301  -47.2568 C.3       14 UNK        -0.1800 
     82 C          -1.3557  -26.8794  -48.4916 C.2       14 UNK         0.5000 
     83 O          -1.7678  -27.6748  -49.3370 O.2       14 UNK        -0.5000 
     84 N          -1.4266  -25.5484  -48.6247 N.am      15 UNK        -0.5000 
     85 CA         -2.0048  -24.8701  -49.7849 C.3       15 UNK         0.1400 
     86 CB         -1.3687  -23.4756  -49.9122 C.3       15 UNK        -0.1800 
     87 C          -3.5385  -24.7523  -49.7038 C.2       15 UNK         0.5000 
     88 O          -4.1697  -24.5112  -50.7322 O.2       15 UNK        -0.5000 
     89 N          -4.1027  -24.8989  -48.4934 N.am      16 UNK        -0.5000 
     90 CA         -5.5009  -24.6379  -48.1282 C.3       16 UNK         0.1400 
     91 CB         -6.4599  -25.6215  -48.8305 C.3       16 UNK        -0.1800 
     92 C          -5.8552  -23.1548  -48.3628 C.2       16 UNK         0.5000 
     93 O          -6.8015  -22.8387  -49.0871 O.2       16 UNK        -0.5000 
     94 N          -5.0216  -22.2747  -47.7887 N.am      17 UNK        -0.5000 
     95 CA         -4.9622  -20.8121  -47.9266 C.3       17 UNK         0.1400 
     96 CB         -6.2592  -20.1374  -47.4442 C.3       17 UNK        -0.1800 
     97 C          -4.5679  -20.3187  -49.3345 C.2       17 UNK         0.5000 
     98 O          -3.7138  -19.4382  -49.4381 O.2       17 UNK        -0.5000 
     99 N          -5.1851  -20.8895  -50.3788 N.am      18 UNK        -0.5000 
    100 CA        -4.9365  -20.6756  -51.8110 C.3       18 UNK         0.1400 
    101 CB        -3.5605  -21.2459  -52.2082 C.3       18 UNK        -0.1800 
    102 C         -5.1307  -19.2230  -52.2958 C.2       18 UNK         0.5000 
    103 O         -4.5693  -18.8442  -53.3250 O.2       18 UNK        -0.5000 
    104 N         -5.9458  -18.4417  -51.5730 N.am      19 UNK        -0.5000 
    105 CA        -6.1530  -16.9989  -51.7509 C.3       19 UNK         0.1400 
    106 CB        -7.1542  -16.5163  -50.6906 C.3       19 UNK        -0.1800 
    107 C         -6.6129  -16.5600  -53.1585 C.2       19 UNK         0.5000 
    108 O         -6.3795  -15.4143  -53.5434 O.2       19 UNK        -0.5000 
    109 N         -7.2438  -17.4747  -53.9061 N.am      20 UNK        -0.5000 
    110 CA        -7.7161  -17.2615  -55.2740 C.3       20 UNK         0.1400 
    111 CB        -8.6813  -18.3992  -55.6423 C.3       20 UNK        -0.1800 
    112 C         -6.5918  -17.1535  -56.3264 C.2       20 UNK         0.5000 
    113 O         -6.8331  -16.5740  -57.3865 O.2       20 UNK        -0.5000 
    114 N         -5.4086  -17.7178  -56.0423 N.am      21 UNK        -0.5000 
    115 CA        -4.2758  -17.7739  -56.9762 C.3       21 UNK         0.1400 
    116 CB        -4.1623  -19.2000  -57.5393 C.3       21 UNK        -0.1800 
    117 C         -2.9471  -17.3447  -56.3312 C.2       21 UNK         0.5000 
    118 O         -2.0945  -16.7797  -57.0171 O.2       21 UNK        -0.5000 
    119 N         -2.7962  -17.6174  -55.0340 N.am      22 UNK        -0.5000 
    120 CA        -1.6290  -17.3196  -54.1937 C.3       22 UNK         0.1400 
    121 C         -1.9816  -16.2959  -53.0688 C.2       22 UNK         0.5000 
    122 N         -3.1149  -15.6085  -53.1394 N.am      22 UNK        -0.7600 
    123 O         -1.2265  -16.1062  -52.1223 O.2       22 UNK        -0.5000 
    124 C124       -1.0465  -18.6585  -53.6662 C.3       23 UNK        -0.0398 
    125 S125        0.6357  -18.5689  -52.9617 S.3       23 UNK        -0.2404 
    126 C126        0.2412  -19.0252  -51.2471 C.3       23 UNK        -0.0205 
    127 H127       -1.7860  -12.5001  -43.9633 H         1 UNK         0.0600 
    128 H128       -2.9428  -13.4925  -44.8566 H         1 UNK         0.0600 
    129 H129       -1.5559  -14.2510  -44.0816 H         1 UNK         0.0600 
    130 H130        0.6307  -13.8067  -45.0010 H         1 UNK         0.3000 
    131 H131        0.6700  -13.8268  -47.8306 H         1 UNK         0.0600 
    132 H132        2.9108  -13.6864  -45.7543 H         1 UNK         0.0800 
    133 H133        3.2548  -13.6804  -47.4570 H         1 UNK         0.0800 
    134 H134        2.9770  -15.4189  -49.0692 H         1 UNK         0.0800 
    135 H135        4.3088  -16.1256  -48.1882 H         1 UNK         0.0800 
    136 H136        1.2281  -16.7813  -50.0777 H         1 UNK         0.1150 
    137 H137        1.8845  -21.0042  -50.3509 H         1 UNK         0.1150 
    138 H138        4.3767  -18.6077  -47.8126 H         1 UNK         0.1150 
    139 H139        4.6409  -21.4580  -49.4861 H         1 UNK         0.0800 
    140 H140        4.6935  -20.9700  -47.8120 H         1 UNK         0.0800 
    141 H141        2.2483  -21.4160  -46.2515 H         1 UNK         0.0800 
    142 H142        3.6860  -22.3568  -45.9437 H         1 UNK         0.0800 
    143 H143        2.0437  -24.4384  -46.3774 H         1 UNK         0.0600 
    144 H144        2.8156  -23.1776  -43.9467 H         1 UNK         0.3000 
    145 H145        1.3278  -25.4942  -41.7450 H         1 UNK         0.0600 
    146 H146        3.6103  -26.2068  -41.0891 H         1 UNK         0.0600 
    147 H147        3.1472  -26.9893  -42.5914 H         1 UNK         0.0600 
    148 H148        4.2628  -25.6288  -42.6233 H         1 UNK         0.0600 
    149 H149        3.4576  -23.6959  -41.2865 H         1 UNK         0.3000 
    150 H150        1.4900  -21.1794  -40.0626 H         1 UNK         0.0600 
    151 H151        3.4573  -22.5368  -39.2969 H         1 UNK         0.0600 
    152 H152        3.8540  -20.8386  -39.4698 H         1 UNK         0.0600 
    153 H153        4.3866  -21.9839  -40.6914 H         1 UNK         0.0600 
    154 H154        2.0197  -19.4928  -41.4199 H         1 UNK         0.3000 
    155 H155        4.1256  -18.5515  -43.1062 H         1 UNK         0.0600 
    156 H156        3.9088  -18.1221  -45.4440 H         1 UNK         0.0600 
    157 H157        2.6588  -19.3331  -45.6530 H         1 UNK         0.0600 
    158 H158        4.3203  -19.8176  -45.3009 H         1 UNK         0.0600 
    159 H159        1.3283  -18.2342  -44.0356 H         1 UNK         0.3000 
    160 H160        0.4108  -16.1236  -41.4529 H         1 UNK         0.0600 
    161 H161        0.4566  -14.1041  -42.8886 H         1 UNK         0.0600 
    162 H162        1.6745  -14.8607  -43.9310 H         1 UNK         0.0600 
    163 H163        2.0535  -14.4575  -42.2669 H         1 UNK         0.0600 
    164 H164       -0.2606  -16.3874  -44.3178 H         1 UNK         0.3000 
    165 H165       -2.6738  -18.9085  -43.7262 H         1 UNK         0.0600 
    166 H166       -4.3705  -17.3407  -44.5139 H         1 UNK         0.0600 
    167 H167       -3.9053  -16.8923  -42.8819 H         1 UNK         0.0600 
    168 H168       -3.2995  -15.9672  -44.2501 H         1 UNK         0.0600 
    169 H169       -2.4934  -17.5238  -46.0629 H         1 UNK         0.3000 
    170 H170        0.2741  -18.3596  -47.6712 H         1 UNK         0.0600 
    171 H171       -0.0315  -20.7891  -47.4796 H         1 UNK         0.0600 
    172 H172       -1.7824  -20.6308  -47.6082 H         1 UNK         0.0600 
    173 H173       -0.7618  -20.2637  -48.9800 H         1 UNK         0.0600 
    174 H174       -2.4489  -18.4367  -48.6355 H         1 UNK         0.3000 
    175 H175       -2.9352  -16.4050  -49.9851 H         1 UNK         0.0600 
    176 H176       -4.9600  -15.5016  -48.7515 H         1 UNK         0.0600 
    177 H177       -4.4550  -17.0517  -48.1043 H         1 UNK         0.0600 
    178 H178       -4.0608  -15.5681  -47.2396 H         1 UNK         0.0600 
    179 H179       -1.7716  -14.1534  -48.5938 H         1 UNK         0.3000 
    180 H180       -2.4437  -11.9797  -51.3008 H         1 UNK         0.0600 
    181 H181       -3.3876  -11.5075  -48.4283 H         1 UNK         0.0600 
    182 H182       -4.3434  -11.2931  -49.8863 H         1 UNK         0.0600 
    183 H183       -2.9597  -10.2521  -49.5905 H         1 UNK         0.0600 
    184 H184       -0.9468  -11.8533  -48.7918 H         1 UNK         0.3000 
    185 H185        1.8227  -13.2746  -49.6040 H         1 UNK         0.0600 
    186 H186        3.3922  -11.5173  -50.3941 H         1 UNK         0.0600 
    187 H187        2.5278  -12.2678  -51.7216 H         1 UNK         0.0600 
    188 H188        2.0550  -10.6661  -51.1669 H         1 UNK         0.0600 
    189 H189        1.4836  -10.4564  -48.8126 H         1 UNK         0.3000 
    190 H190        0.2603  -22.4784  -44.0442 H         1 UNK         0.3000 
    191 H191       -1.9573  -21.7297  -45.6478 H         1 UNK         0.0600 
    192 H192       -1.3598  -20.8039  -43.3519 H         1 UNK         0.0600 
    193 H193       -3.0530  -21.2649  -43.5255 H         1 UNK         0.0600 
    194 H194       -1.9473  -22.2997  -42.6401 H         1 UNK         0.0600 
    195 H195       -1.3113  -24.6094  -43.6549 H         1 UNK         0.3000 
    196 H196       -3.8545  -25.8961  -44.1690 H         1 UNK         0.0600 
    197 H197       -2.7744  -27.8158  -42.9935 H         1 UNK         0.0600 
    198 H198       -2.5809  -26.3251  -42.0844 H         1 UNK         0.0600 
    199 H199       -1.2281  -26.9765  -43.0086 H         1 UNK         0.0600 
    200 H200       -0.5121  -26.2280  -45.4456 H         1 UNK         0.3000 
    201 H201       -1.0014  -28.4673  -47.1002 H         1 UNK         0.0600 
    202 H202        1.2629  -27.7333  -46.3534 H         1 UNK         0.0600 
    203 H203        1.1449  -26.3021  -47.3766 H         1 UNK         0.0600 
    204 H204        1.1908  -27.9021  -48.1014 H         1 UNK         0.0600 
    205 H205       -1.0345  -24.9462  -47.9028 H         1 UNK         0.3000 
    206 H206       -1.7584  -25.4357  -50.6860 H         1 UNK         0.0600 
    207 H207       -0.2804  -23.5277  -49.8708 H         1 UNK         0.0600 
    208 H208       -1.6306  -23.0118  -50.8619 H         1 UNK         0.0600 
    209 H209       -1.7015  -22.8072  -49.1173 H         1 UNK         0.0600 
    210 H210       -3.4855  -25.0906  -47.7163 H         1 UNK         0.3000 
    211 H211       -5.5823  -24.8146  -47.0549 H         1 UNK         0.0600 
    212 H212       -6.4809  -25.4764  -49.9107 H         1 UNK         0.0600 
    213 H213       -7.4798  -25.4930  -48.4664 H         1 UNK         0.0600 
    214 H214       -6.1729  -26.6550  -48.6364 H         1 UNK         0.0600 
    215 H215       -4.3059  -22.6765  -47.1896 H         1 UNK         0.3000 
    216 H216       -4.1673  -20.4913  -47.2520 H         1 UNK         0.0600 
    217 H217       -6.4969  -20.4297  -46.4214 H         1 UNK         0.0600 
    218 H218       -7.1132  -20.3915  -48.0723 H         1 UNK         0.0600 
    219 H219       -6.1594  -19.0512  -47.4565 H         1 UNK         0.0600 
    220 H220       -5.8777  -21.6006  -50.1546 H         1 UNK         0.3000 
    221 H221       -5.6926  -21.2585  -52.3381 H         1 UNK         0.0600 
    222 H222       -2.7502  -20.7782  -51.6494 H         1 UNK         0.0600 
    223 H223       -3.5225  -22.3169  -52.0211 H         1 UNK         0.0600 
    224 H224       -3.3559  -21.1085  -53.2706 H         1 UNK         0.0600 
    225 H225       -6.3800  -18.8551  -50.7617 H         1 UNK         0.3000 
    226 H226       -5.1954  -16.5142  -51.5550 H         1 UNK         0.0600 
    227 H227       -6.8217  -16.7707  -49.6844 H         1 UNK         0.0600 
    228 H228       -7.2697  -15.4322  -50.7291 H         1 UNK         0.0600 
    229 H229       -8.1400  -16.9588  -50.8391 H         1 UNK         0.0600 
    230 H230       -7.3881  -18.3925  -53.5123 H         1 UNK         0.3000 
    231 H231       -8.2737  -16.3228  -55.2965 H         1 UNK         0.0600 
    232 H232       -9.5277  -18.4371  -54.9562 H         1 UNK         0.0600 
    233 H233       -8.1852  -19.3703  -55.6197 H         1 UNK         0.0600 
    234 H234       -9.0852  -18.2605  -56.6461 H         1 UNK         0.0600 
    235 H235       -5.2868  -18.1607  -55.1389 H         1 UNK         0.3000 
    236 H236       -4.4406  -17.0930  -57.8137 H         1 UNK         0.0600 
    237 H237       -5.0657  -19.4817  -58.0805 H         1 UNK         0.0600 
    238 H238       -3.3272  -19.2817  -58.2362 H         1 UNK         0.0600 
    239 H239       -4.0041  -19.9328  -56.7469 H         1 UNK         0.0600 
    240 H240       -3.5463  -18.0837  -54.5276 H         1 UNK         0.3000 
    241 H241       -0.8615  -16.8352  -54.7992 H         1 UNK         0.0600 
    242 H242       -3.7438  -15.7222  -53.9169 H         1 UNK         0.3800 
    243 H243       -3.3565  -14.9692  -52.3858 H         1 UNK         0.3800 
    244 H244       -0.9922  -19.3774  -54.4850 H         1 UNK         0.0800 
    245 H245       -1.7347  -19.0959  -52.9434 H         1 UNK         0.0800 
    246 H246       -0.5647  -18.3911  -50.8744 H         1 UNK         0.0800 
    247 H247       -0.1435  -20.0462  -51.2376 H         1 UNK         0.0800 
@<TRIPOS>BOND
     1    1    2 1    
     2    1  127 1    
     3    1  128 1    
     4    1  129 1    
     5    2    3 2    
     6    2    4 am   BACKBONE|DICT|INTERRES
     7    4    5 1    
     8    4  130 1    
     9    5    6 1    
    10    5   65 1    
    11    5  131 1    
    12    6    7 1    
    13    6  132 1    
    14    6  133 1    
    15    7    8 1    
    16    8    9 1    
    17    8  134 1    
    18    8  135 1    
    19    9   10 ar   
    20    9   14 ar   
    21   10   11 ar   
    22   10  136 1    
    23   11   12 ar   
    24   11  126 1    
    25   12   13 ar   
    26   12  137 1    
    27   13   14 ar   
    28   13   15 1    
    29   14  138 1    
    30   15   16 1    
    31   15  139 1    
    32   15  140 1    
    33   16   17 1    
    34   17   18 1    
    35   17  141 1    
    36   17  142 1    
    37   18   19 1    
    38   18   67 1    
    39   18  143 1    
    40   19   20 am   BACKBONE|DICT|INTERRES
    41   19  144 1    
    42   20   21 2    
    43   20   22 1    
    44   22   23 1    
    45   22   24 1    
    46   22  145 1    
    47   23  146 1    
    48   23  147 1    
    49   23  148 1    
    50   24   25 am   BACKBONE|DICT|INTERRES
    51   24  149 1    
    52   25   26 2    
    53   25   27 1    
    54   27   28 1    
    55   27   29 1    
    56   27  150 1    
    57   28  151 1    
    58   28  152 1    
    59   28  153 1    
    60   29   30 am   BACKBONE|DICT|INTERRES
    61   29  154 1    
    62   30   31 2    
    63   30   32 1    
    64   32   33 1    
    65   32   34 1    
    66   32  155 1    
    67   33  156 1    
    68   33  157 1    
    69   33  158 1    
    70   34   35 am   BACKBONE|DICT|INTERRES
    71   34  159 1    
    72   35   36 2    
    73   35   37 1    
    74   37   38 1    
    75   37   39 1    
    76   37  160 1    
    77   38  161 1    
    78   38  162 1    
    79   38  163 1    
    80   39   40 am   BACKBONE|DICT|INTERRES
    81   39  164 1    
    82   40   41 2    
    83   40   42 1    
    84   42   43 1    
    85   42   44 1    
    86   42  165 1    
    87   43  166 1    
    88   43  167 1    
    89   43  168 1    
    90   44   45 am   BACKBONE|DICT|INTERRES
    91   44  169 1    
    92   45   46 2    
    93   45   47 1    
    94   47   48 1    
    95   47   49 1    
    96   47  170 1    
    97   48  171 1    
    98   48  172 1    
    99   48  173 1    
   100   49   50 am   BACKBONE|DICT|INTERRES
   101   49  174 1    
   102   50   51 2    
   103   50   52 1    
   104   52   53 1    
   105   52   54 1    
   106   52  175 1    
   107   53  176 1    
   108   53  177 1    
   109   53  178 1    
   110   54   55 am   BACKBONE|DICT|INTERRES
   111   54  179 1    
   112   55   56 2    
   113   55   57 1    
   114   57   58 1    
   115   57   59 1    
   116   57  180 1    
   117   58  181 1    
   118   58  182 1    
   119   58  183 1    
   120   59   60 am   BACKBONE|DICT|INTERRES
   121   59  184 1    
   122   60   61 2    
   123   60   62 1    
   124   62   63 1    
   125   62   64 1    
   126   62  185 1    
   127   63  186 1    
   128   63  187 1    
   129   63  188 1    
   130   64   65 am   BACKBONE|DICT|INTERRES
   131   64  189 1    
   132   65   66 2    
   133   67   68 2    
   134   67   69 am   BACKBONE|DICT|INTERRES
   135   69   70 1    
   136   69  190 1    
   137   70   71 1    
   138   70   72 1    
   139   70  191 1    
   140   71  192 1    
   141   71  193 1    
   142   71  194 1    
   143   72   73 2    
   144   72   74 am   BACKBONE|DICT|INTERRES
   145   74   75 1    
   146   74  195 1    
   147   75   76 1    
   148   75   77 1    
   149   75  196 1    
   150   76  197 1    
   151   76  198 1    
   152   76  199 1    
   153   77   78 2    
   154   77   79 am   BACKBONE|DICT|INTERRES
   155   79   80 1    
   156   79  200 1    
   157   80   81 1    
   158   80   82 1    
   159   80  201 1    
   160   81  202 1    
   161   81  203 1    
   162   81  204 1    
   163   82   83 2    
   164   82   84 am   BACKBONE|DICT|INTERRES
   165   84   85 1    
   166   84  205 1    
   167   85   86 1    
   168   85   87 1    
   169   85  206 1    
   170   86  207 1    
   171   86  208 1    
   172   86  209 1    
   173   87   88 2    
   174   87   89 am   BACKBONE|DICT|INTERRES
   175   89   90 1    
   176   89  210 1    
   177   90   91 1    
   178   90   92 1    
   179   90  211 1    
   180   91  212 1    
   181   91  213 1    
   182   91  214 1    
   183   92   93 2    
   184   92   94 am   BACKBONE|DICT|INTERRES
   185   94   95 1    
   186   94  215 1    
   187   95   96 1    
   188   95   97 1    
   189   95  216 1    
   190   96  217 1    
   191   96  218 1    
   192   96  219 1    
   193   97   98 2    
   194   97   99 am   BACKBONE|DICT|INTERRES
   195   99  100 1    
   196   99  220 1    
   197  100  101 1    
   198  100  102 1    
   199  100  221 1    
   200  101  222 1    
   201  101  223 1    
   202  101  224 1    
   203  102  103 2    
   204  102  104 am   BACKBONE|DICT|INTERRES
   205  104  105 1    
   206  104  225 1    
   207  105  106 1    
   208  105  107 1    
   209  105  226 1    
   210  106  227 1    
   211  106  228 1    
   212  106  229 1    
   213  107  108 2    
   214  107  109 am   BACKBONE|DICT|INTERRES
   215  109  110 1    
   216  109  230 1    
   217  110  111 1    
   218  110  112 1    
   219  110  231 1    
   220  111  232 1    
   221  111  233 1    
   222  111  234 1    
   223  112  113 2    
   224  112  114 am   BACKBONE|DICT|INTERRES
   225  114  115 1    
   226  114  235 1    
   227  115  116 1    
   228  115  117 1    
   229  115  236 1    
   230  116  237 1    
   231  116  238 1    
   232  116  239 1    
   233  117  118 2    
   234  117  119 am   BACKBONE|DICT|INTERRES
   235  119  120 1    
   236  119  240 1    
   237  120  121 1    
   238  120  124 1    
   239  120  241 1    
   240  121  122 am   BACKBONE|DICT|INTERRES
   241  121  123 2    
   242  122  242 1    
   243  122  243 1    
   244  124  125 1    
   245  124  244 1    
   246  124  245 1    
   247  125  126 1    
   248  126  246 1    
   249  126  247 1    
@<TRIPOS>SUBSTRUCTURE
     1 UNK         1 GROUP             0       ****    0 ROOT    
