@<TRIPOS>MOLECULE
3R540
247   249    1
SMALL
USER_CHARGES


@<TRIPOS>ATOM
      1 CA         -0.0233  -18.0800  -51.5780 C.3       0 UNK        -0.1800 
      2 C           0.1428  -17.4808  -50.1894 C.2       0 UNK         0.5000 
      3 O           1.0762  -17.8378  -49.4730 O.2       0 UNK        -0.5000 
      4 N          -0.7497  -16.5537  -49.8139 N.am      1 UNK        -0.5000 
      5 CA         -0.7860  -15.9021  -48.4960 C.3       1 UNK         0.1400 
      6 C6         -2.0823  -15.0700  -48.3207 C.3       23 UNK        -0.0398 
      7 S7         -2.5154  -14.7740  -46.5715 S.3       23 UNK        -0.2404 
      8 C8         -4.3086  -14.4864  -46.6588 C.3       23 UNK        -0.0205 
      9 C9         -5.0847  -15.7654  -46.9331 C.ar      23 UNK        -0.0193 
     10 C10        -5.6321  -15.9954  -48.1957 C.ar      23 UNK        -0.1150 
     11 C11        -6.3721  -17.1514  -48.4503 C.ar      23 UNK        -0.0193 
     12 C12        -6.5616  -18.0860  -47.4272 C.ar      23 UNK        -0.1150 
     13 C13        -6.0336  -17.8646  -46.1501 C.ar      23 UNK        -0.0193 
     14 C14        -5.2943  -16.6979  -45.9137 C.ar      23 UNK        -0.1150 
     15 C15        -6.3584  -18.8443  -45.0231 C.3       23 UNK        -0.0205 
     16 S16        -5.0233  -19.0519  -43.7949 S.3       23 UNK        -0.2404 
     17 C17        -4.2597  -20.6317  -44.2878 C.3       23 UNK        -0.0398 
     18 CA         -3.1315  -20.4802  -45.3342 C.3       11 UNK         0.1400 
     19 N          -2.0052  -19.6653  -44.8643 N.am      11 UNK        -0.5000 
     20 C          -1.0013  -19.2488  -45.6507 C.2       10 UNK         0.5000 
     21 O          -0.9483  -19.4691  -46.8612 O.2       10 UNK        -0.5000 
     22 CA          0.1677  -18.5179  -44.9648 C.3       10 UNK         0.1400 
     23 CB         -0.2013  -17.0704  -44.6221 C.3       10 UNK        -0.1800 
     24 N           0.6208  -19.1914  -43.7504 N.am      10 UNK        -0.5000 
     25 C           1.1591  -20.4161  -43.7053 C.2       9 UNK         0.5000 
     26 O           1.3555  -21.1136  -44.6973 O.2       9 UNK        -0.5000 
     27 CA          1.5051  -20.9713  -42.3139 C.3       9 UNK         0.1400 
     28 CB          2.8798  -20.4695  -41.8502 C.3       9 UNK        -0.1800 
     29 N           0.4949  -20.6257  -41.3158 N.am      9 UNK        -0.5000 
     30 C          -0.7550  -21.1093  -41.3046 C.2       8 UNK         0.5000 
     31 O          -1.1859  -21.9253  -42.1201 O.2       8 UNK        -0.5000 
     32 CA         -1.6937  -20.5381  -40.2266 C.3       8 UNK         0.1400 
     33 CB         -1.4404  -21.2100  -38.8686 C.3       8 UNK        -0.1800 
     34 N          -1.5693  -19.0853  -40.0849 N.am      8 UNK        -0.5000 
     35 C          -1.8618  -18.2116  -41.0584 C.2       7 UNK         0.5000 
     36 O          -2.2543  -18.5434  -42.1747 O.2       7 UNK        -0.5000 
     37 CA         -1.6320  -16.7220  -40.7505 C.3       7 UNK         0.1400 
     38 CB         -2.8094  -16.1466  -39.9491 C.3       7 UNK        -0.1800 
     39 N          -0.3778  -16.4491  -40.0432 N.am      7 UNK        -0.5000 
     40 C           0.8427  -16.7431  -40.5098 C.2       6 UNK         0.5000 
     41 O           1.0515  -17.3784  -41.5449 O.2       6 UNK        -0.5000 
     42 CA          2.0375  -16.2647  -39.6721 C.3       6 UNK         0.1400 
     43 CB          2.7242  -17.4504  -38.9768 C.3       6 UNK        -0.1800 
     44 N           3.0043  -15.5784  -40.5265 N.am      6 UNK        -0.5000 
     45 C           2.8689  -14.3190  -40.9653 C.2       5 UNK         0.5000 
     46 O           1.9445  -13.5760  -40.6324 O.2       5 UNK        -0.5000 
     47 CA          3.9496  -13.7960  -41.9304 C.3       5 UNK         0.1400 
     48 CB          5.0930  -13.1330  -41.1465 C.3       5 UNK        -0.1800 
     49 N           4.5010  -14.8545  -42.7790 N.am      5 UNK        -0.5000 
     50 C           3.9199  -15.2969  -43.9011 C.2       4 UNK         0.5000 
     51 O           2.8816  -14.8292  -44.3707 O.2       4 UNK        -0.5000 
     52 CA          4.6142  -16.4718  -44.5998 C.3       4 UNK         0.1400 
     53 CB          4.1785  -17.8086  -43.9766 C.3       4 UNK        -0.1800 
     54 N           4.2988  -16.4707  -46.0268 N.am      4 UNK        -0.5000 
     55 C           5.1215  -16.9276  -46.9794 C.2       3 UNK         0.5000 
     56 O           6.2385  -17.3900  -46.7408 O.2       3 UNK        -0.5000 
     57 CA          4.6390  -16.8906  -48.4436 C.3       3 UNK         0.1400 
     58 CB          4.2298  -18.2988  -48.8958 C.3       3 UNK        -0.1800 
     59 N           3.5320  -15.9696  -48.7104 N.am      3 UNK        -0.5000 
     60 C           3.6373  -14.6324  -48.7152 C.2       2 UNK         0.5000 
     61 O           4.6749  -14.0376  -48.4201 O.2       2 UNK        -0.5000 
     62 CA          2.4036  -13.8092  -49.1488 C.3       2 UNK         0.1400 
     63 CB          2.6575  -13.1359  -50.5072 C.3       2 UNK        -0.1800 
     64 N           1.1625  -14.5813  -49.2415 N.am      2 UNK        -0.5000 
     65 C           0.4806  -15.0621  -48.1931 C.2       1 UNK         0.5000 
     66 O           0.8400  -14.8893  -47.0304 O.2       1 UNK        -0.5000 
     67 C          -2.6656  -21.8732  -45.8056 C.2       11 UNK         0.5000 
     68 O          -3.1310  -22.3452  -46.8434 O.2       11 UNK        -0.5000 
     69 N          -1.7427  -22.4978  -45.0568 N.am      12 UNK        -0.5000 
     70 CA         -1.1431  -23.7872  -45.4047 C.3       12 UNK         0.1400 
     71 CB         -0.2822  -24.3020  -44.2423 C.3       12 UNK        -0.1800 
     72 C          -0.3293  -23.7273  -46.7087 C.2       12 UNK         0.5000 
     73 O          -0.4654  -24.6213  -47.5420 O.2       12 UNK        -0.5000 
     74 N           0.4613  -22.6599  -46.8855 N.am      13 UNK        -0.5000 
     75 CA          1.2207  -22.3794  -48.1028 C.3       13 UNK         0.1400 
     76 CB          2.1403  -21.1715  -47.8817 C.3       13 UNK        -0.1800 
     77 C           0.3140  -22.1583  -49.3239 C.2       13 UNK         0.5000 
     78 O           0.5835  -22.7292  -50.3793 O.2       13 UNK        -0.5000 
     79 N          -0.7673  -21.3846  -49.1492 N.am      14 UNK        -0.5000 
     80 CA         -1.7962  -21.1603  -50.1659 C.3       14 UNK         0.1400 
     81 CB         -2.8099  -20.1276  -49.6553 C.3       14 UNK        -0.1800 
     82 C          -2.5080  -22.4541  -50.6011 C.2       14 UNK         0.5000 
     83 O          -2.7234  -22.6549  -51.7982 O.2       14 UNK        -0.5000 
     84 N          -2.8278  -23.3179  -49.6279 N.am      15 UNK        -0.5000 
     85 CA         -3.4145  -24.6377  -49.8513 C.3       15 UNK         0.1400 
     86 CB         -3.8993  -25.2206  -48.5154 C.3       15 UNK        -0.1800 
     87 C          -2.4449  -25.6032  -50.5571 C.2       15 UNK         0.5000 
     88 O          -2.8500  -26.2743  -51.5059 O.2       15 UNK        -0.5000 
     89 N          -1.1822  -25.6363  -50.1068 N.am      16 UNK        -0.5000 
     90 CA         -0.1125  -26.4666  -50.6670 C.3       16 UNK         0.1400 
     91 CB          1.1180  -26.4117  -49.7492 C.3       16 UNK        -0.1800 
     92 C           0.2679  -26.0721  -52.1051 C.2       16 UNK         0.5000 
     93 O           0.4875  -26.9518  -52.9386 O.2       16 UNK        -0.5000 
     94 N           0.3097  -24.7609  -52.3779 N.am      17 UNK        -0.5000 
     95 CA          0.5320  -24.1937  -53.7091 C.3       17 UNK         0.1400 
     96 CB          0.8862  -22.7048  -53.5646 C.3       17 UNK        -0.1800 
     97 C          -0.6792  -24.3553  -54.6479 C.2       17 UNK         0.5000 
     98 O          -0.5125  -24.2333  -55.8621 O.2       17 UNK        -0.5000 
     99 N          -1.8652  -24.6005  -54.0687 N.am      18 UNK        -0.5000 
    100 CA        -3.1827  -24.6488  -54.7071 C.3       18 UNK         0.1400 
    101 CB        -3.2955  -25.8607  -55.6547 C.3       18 UNK        -0.1800 
    102 C         -3.5189  -23.3040  -55.3806 C.2       18 UNK         0.5000 
    103 O         -3.8467  -23.2633  -56.5680 O.2       18 UNK        -0.5000 
    104 N         -3.3767  -22.2215  -54.6007 N.am      19 UNK        -0.5000 
    105 CA        -3.4986  -20.8309  -55.0433 C.3       19 UNK         0.1400 
    106 CB        -3.1509  -19.9023  -53.8697 C.3       19 UNK        -0.1800 
    107 C         -4.8809  -20.4807  -55.6249 C.2       19 UNK         0.5000 
    108 O         -4.9511  -19.7463  -56.6106 O.2       19 UNK        -0.5000 
    109 N         -5.9410  -21.0270  -55.0074 N.am      20 UNK        -0.5000 
    110 CA        -7.3480  -20.9755  -55.4335 C.3       20 UNK         0.1400 
    111 CB        -7.5412  -21.8173  -56.7121 C.3       20 UNK        -0.1800 
    112 C         -7.9356  -19.5514  -55.5726 C.2       20 UNK         0.5000 
    113 O         -8.9021  -19.3550  -56.3120 O.2       20 UNK        -0.5000 
    114 N         -7.3549  -18.5875  -54.8506 N.am      21 UNK        -0.5000 
    115 CA        -7.7430  -17.1801  -54.8330 C.3       21 UNK         0.1400 
    116 CB        -7.3508  -16.4713  -56.1445 C.3       21 UNK        -0.1800 
    117 C         -7.0974  -16.5077  -53.6185 C.2       21 UNK         0.5000 
    118 O         -7.8142  -15.9234  -52.8075 O.2       21 UNK        -0.5000 
    119 N         -5.7652  -16.6472  -53.5159 N.am      22 UNK        -0.5000 
    120 CA        -4.8403  -16.2686  -52.4218 C.3       22 UNK         0.1400 
    121 C         -4.9208  -14.8428  -51.7917 C.2       22 UNK         0.5000 
    122 N         -5.9580  -14.0537  -52.0159 N.am      22 UNK        -0.7600 
    123 O         -3.9874  -14.4316  -51.1079 O.2       22 UNK        -0.5000 
    124 C124       -4.6261  -17.3841  -51.3487 C.3       23 UNK        -0.0398 
    125 S125       -6.0645  -18.4278  -50.9145 S.3       23 UNK        -0.2404 
    126 C126       -7.0257  -17.3496  -49.8090 C.3       23 UNK        -0.0205 
    127 H127        0.5552  -17.5096  -52.3044 H         1 UNK         0.0600 
    128 H128       -1.0681  -18.0814  -51.8894 H         1 UNK         0.0600 
    129 H129        0.3367  -19.1087  -51.5911 H         1 UNK         0.0600 
    130 H130       -1.4711  -16.2716  -50.4614 H         1 UNK         0.3000 
    131 H131       -0.8089  -16.7175  -47.7709 H         1 UNK         0.0600 
    132 H132       -2.0188  -14.1155  -48.8464 H         1 UNK         0.0800 
    133 H133       -2.9145  -15.6054  -48.7761 H         1 UNK         0.0800 
    134 H134       -4.5176  -13.7320  -47.4192 H         1 UNK         0.0800 
    135 H135       -4.6419  -14.0627  -45.7105 H         1 UNK         0.0800 
    136 H136       -5.4980  -15.2610  -48.9762 H         1 UNK         0.1150 
    137 H137       -7.1541  -18.9696  -47.6194 H         1 UNK         0.1150 
    138 H138       -4.8943  -16.4983  -44.9299 H         1 UNK         0.1150 
    139 H139       -7.2387  -18.4672  -44.5013 H         1 UNK         0.0800 
    140 H140       -6.6428  -19.8155  -45.4298 H         1 UNK         0.0800 
    141 H141       -5.0429  -21.2982  -44.6536 H         1 UNK         0.0800 
    142 H142       -3.8678  -21.1007  -43.3832 H         1 UNK         0.0800 
    143 H143       -3.5545  -19.9730  -46.2044 H         1 UNK         0.0600 
    144 H144       -2.0126  -19.3964  -43.8833 H         1 UNK         0.3000 
    145 H145        1.0043  -18.4964  -45.6666 H         1 UNK         0.0600 
    146 H146        0.6473  -16.5339  -44.1976 H         1 UNK         0.0600 
    147 H147       -0.5096  -16.5310  -45.5122 H         1 UNK         0.0600 
    148 H148       -1.0251  -17.0146  -43.9129 H         1 UNK         0.0600 
    149 H149        0.5481  -18.6599  -42.8874 H         1 UNK         0.3000 
    150 H150        1.5497  -22.0596  -42.3890 H         1 UNK         0.0600 
    151 H151        3.6551  -20.7369  -42.5694 H         1 UNK         0.0600 
    152 H152        3.1587  -20.9078  -40.8919 H         1 UNK         0.0600 
    153 H153        2.8945  -19.3856  -41.7413 H         1 UNK         0.0600 
    154 H154        0.7437  -19.9150  -40.6444 H         1 UNK         0.3000 
    155 H155       -2.7192  -20.7588  -40.5307 H         1 UNK         0.0600 
    156 H156       -0.4395  -20.9966  -38.4916 H         1 UNK         0.0600 
    157 H157       -1.5384  -22.2937  -38.9459 H         1 UNK         0.0600 
    158 H158       -2.1595  -20.8725  -38.1220 H         1 UNK         0.0600 
    159 H159       -1.2391  -18.7332  -39.1986 H         1 UNK         0.3000 
    160 H160       -1.5875  -16.1944  -41.7053 H         1 UNK         0.0600 
    161 H161       -2.7097  -15.0688  -39.8200 H         1 UNK         0.0600 
    162 H162       -2.8842  -16.5986  -38.9593 H         1 UNK         0.0600 
    163 H163       -3.7548  -16.3244  -40.4638 H         1 UNK         0.0600 
    164 H164       -0.4569  -15.9325  -39.1792 H         1 UNK         0.3000 
    165 H165        1.6873  -15.5731  -38.9028 H         1 UNK         0.0600 
    166 H166        3.5449  -17.1123  -38.3439 H         1 UNK         0.0600 
    167 H167        2.0228  -17.9891  -38.3383 H         1 UNK         0.0600 
    168 H168        3.1294  -18.1635  -39.6948 H         1 UNK         0.0600 
    169 H169        3.7641  -16.1357  -40.8848 H         1 UNK         0.3000 
    170 H170        3.4897  -13.0336  -42.5633 H         1 UNK         0.0600 
    171 H171        4.7176  -12.3233  -40.5193 H         1 UNK         0.0600 
    172 H172        5.6021  -13.8439  -40.4945 H         1 UNK         0.0600 
    173 H173        5.8350  -12.7034  -41.8198 H         1 UNK         0.0600 
    174 H174        5.3626  -15.2798  -42.4679 H         1 UNK         0.3000 
    175 H175        5.6909  -16.3476  -44.4651 H         1 UNK         0.0600 
    176 H176        4.4324  -17.8481  -42.9170 H         1 UNK         0.0600 
    177 H177        4.6684  -18.6542  -44.4596 H         1 UNK         0.0600 
    178 H178        3.1017  -17.9516  -44.0620 H         1 UNK         0.0600 
    179 H179        3.4148  -16.0444  -46.2775 H         1 UNK         0.3000 
    180 H180        5.4883  -16.5764  -49.0539 H         1 UNK         0.0600 
    181 H181        3.3876  -18.6648  -48.3096 H         1 UNK         0.0600 
    182 H182        5.0492  -19.0081  -48.7734 H         1 UNK         0.0600 
    183 H183        3.9402  -18.3125  -49.9467 H         1 UNK         0.0600 
    184 H184        2.6442  -16.3945  -48.9525 H         1 UNK         0.3000 
    185 H185        2.2621  -13.0251  -48.4020 H         1 UNK         0.0600 
    186 H186        3.5513  -12.5114  -50.4753 H         1 UNK         0.0600 
    187 H187        2.7997  -13.8716  -51.2998 H         1 UNK         0.0600 
    188 H188        1.8250  -12.4917  -50.7909 H         1 UNK         0.0600 
    189 H189        0.8208  -14.7827  -50.1697 H         1 UNK         0.3000 
    190 H190       -1.4263  -22.0678  -44.1944 H         1 UNK         0.3000 
    191 H191       -1.9572  -24.4986  -45.5581 H         1 UNK         0.0600 
    192 H192        0.5394  -23.6232  -44.0160 H         1 UNK         0.0600 
    193 H193        0.1517  -25.2741  -44.4797 H         1 UNK         0.0600 
    194 H194       -0.8757  -24.4241  -43.3362 H         1 UNK         0.0600 
    195 H195        0.5689  -21.9950  -46.1227 H         1 UNK         0.3000 
    196 H196        1.8489  -23.2483  -48.3082 H         1 UNK         0.0600 
    197 H197        2.7237  -20.9622  -48.7790 H         1 UNK         0.0600 
    198 H198        2.8444  -21.3524  -47.0696 H         1 UNK         0.0600 
    199 H199        1.5734  -20.2717  -47.6398 H         1 UNK         0.0600 
    200 H200       -0.8925  -20.9116  -48.2589 H         1 UNK         0.3000 
    201 H201       -1.3073  -20.7505  -51.0507 H         1 UNK         0.0600 
    202 H202       -2.3423  -19.1582  -49.4852 H         1 UNK         0.0600 
    203 H203       -3.2728  -20.4408  -48.7201 H         1 UNK         0.0600 
    204 H204       -3.6107  -19.9877  -50.3793 H         1 UNK         0.0600 
    205 H205       -2.6629  -23.0484  -48.6628 H         1 UNK         0.3000 
    206 H206       -4.2852  -24.5105  -50.4981 H         1 UNK         0.0600 
    207 H207       -4.6414  -24.5718  -48.0498 H         1 UNK         0.0600 
    208 H208       -4.3643  -26.1964  -48.6607 H         1 UNK         0.0600 
    209 H209       -3.0797  -25.3490  -47.8082 H         1 UNK         0.0600 
    210 H210       -0.9406  -25.0860  -49.2855 H         1 UNK         0.3000 
    211 H211       -0.4708  -27.4978  -50.6912 H         1 UNK         0.0600 
    212 H212        1.4996  -25.3950  -49.6498 H         1 UNK         0.0600 
    213 H213        1.9266  -27.0307  -50.1399 H         1 UNK         0.0600 
    214 H214        0.8811  -26.7791  -48.7506 H         1 UNK         0.0600 
    215 H215        0.1899  -24.0944  -51.6181 H         1 UNK         0.3000 
    216 H216        1.3798  -24.7066  -54.1679 H         1 UNK         0.0600 
    217 H217        1.0918  -22.2534  -54.5359 H         1 UNK         0.0600 
    218 H218        1.7752  -22.5684  -52.9486 H         1 UNK         0.0600 
    219 H219        0.0713  -22.1421  -53.1066 H         1 UNK         0.0600 
    220 H220       -1.8780  -24.6665  -53.0597 H         1 UNK         0.3000 
    221 H221       -3.9098  -24.7865  -53.9054 H         1 UNK         0.0600 
    222 H222       -4.3084  -25.9528  -56.0483 H         1 UNK         0.0600 
    223 H223       -3.0641  -26.7890  -55.1323 H         1 UNK         0.0600 
    224 H224       -2.6206  -25.7784  -56.5070 H         1 UNK         0.0600 
    225 H225       -3.1013  -22.3649  -53.6314 H         1 UNK         0.3000 
    226 H226       -2.7612  -20.6736  -55.8330 H         1 UNK         0.0600 
    227 H227       -3.2261  -18.8539  -54.1608 H         1 UNK         0.0600 
    228 H228       -3.8210  -20.0638  -53.0248 H         1 UNK         0.0600 
    229 H229       -2.1310  -20.0711  -53.5233 H         1 UNK         0.0600 
    230 H230       -5.7550  -21.6003  -54.1966 H         1 UNK         0.3000 
    231 H231       -7.9205  -21.4541  -54.6379 H         1 UNK         0.0600 
    232 H232       -7.1399  -22.8230  -56.5861 H         1 UNK         0.0600 
    233 H233       -7.0438  -21.3647  -57.5705 H         1 UNK         0.0600 
    234 H234       -8.5978  -21.9207  -56.9617 H         1 UNK         0.0600 
    235 H235       -6.6120  -18.8482  -54.2174 H         1 UNK         0.3000 
    236 H236       -8.8265  -17.1182  -54.7103 H         1 UNK         0.0600 
    237 H237       -7.9116  -16.8655  -56.9917 H         1 UNK         0.0600 
    238 H238       -7.5618  -15.4026  -56.0892 H         1 UNK         0.0600 
    239 H239       -6.2897  -16.5881  -56.3673 H         1 UNK         0.0600 
    240 H240       -5.3048  -17.0824  -54.3013 H         1 UNK         0.3000 
    241 H241       -3.8891  -16.2057  -52.9529 H         1 UNK         0.0600 
    242 H242       -5.9876  -13.1287  -51.6185 H         1 UNK         0.3800 
    243 H243       -6.7767  -14.4480  -52.4701 H         1 UNK         0.3800 
    244 H244       -4.1857  -16.9953  -50.4301 H         1 UNK         0.0800 
    245 H245       -3.8705  -18.0682  -51.7309 H         1 UNK         0.0800 
    246 H246       -8.0150  -17.7885  -49.6725 H         1 UNK         0.0800 
    247 H247       -7.1928  -16.3863  -50.2915 H         1 UNK         0.0800 
@<TRIPOS>BOND
     1    1    2 1    
     2    1  127 1    
     3    1  128 1    
     4    1  129 1    
     5    2    3 2    
     6    2    4 am   BACKBONE|DICT|INTERRES
     7    4    5 1    
     8    4  130 1    
     9    5    6 1    
    10    5   65 1    
    11    5  131 1    
    12    6    7 1    
    13    6  132 1    
    14    6  133 1    
    15    7    8 1    
    16    8    9 1    
    17    8  134 1    
    18    8  135 1    
    19    9   10 ar   
    20    9   14 ar   
    21   10   11 ar   
    22   10  136 1    
    23   11   12 ar   
    24   11  126 1    
    25   12   13 ar   
    26   12  137 1    
    27   13   14 ar   
    28   13   15 1    
    29   14  138 1    
    30   15   16 1    
    31   15  139 1    
    32   15  140 1    
    33   16   17 1    
    34   17   18 1    
    35   17  141 1    
    36   17  142 1    
    37   18   19 1    
    38   18   67 1    
    39   18  143 1    
    40   19   20 am   BACKBONE|DICT|INTERRES
    41   19  144 1    
    42   20   21 2    
    43   20   22 1    
    44   22   23 1    
    45   22   24 1    
    46   22  145 1    
    47   23  146 1    
    48   23  147 1    
    49   23  148 1    
    50   24   25 am   BACKBONE|DICT|INTERRES
    51   24  149 1    
    52   25   26 2    
    53   25   27 1    
    54   27   28 1    
    55   27   29 1    
    56   27  150 1    
    57   28  151 1    
    58   28  152 1    
    59   28  153 1    
    60   29   30 am   BACKBONE|DICT|INTERRES
    61   29  154 1    
    62   30   31 2    
    63   30   32 1    
    64   32   33 1    
    65   32   34 1    
    66   32  155 1    
    67   33  156 1    
    68   33  157 1    
    69   33  158 1    
    70   34   35 am   BACKBONE|DICT|INTERRES
    71   34  159 1    
    72   35   36 2    
    73   35   37 1    
    74   37   38 1    
    75   37   39 1    
    76   37  160 1    
    77   38  161 1    
    78   38  162 1    
    79   38  163 1    
    80   39   40 am   BACKBONE|DICT|INTERRES
    81   39  164 1    
    82   40   41 2    
    83   40   42 1    
    84   42   43 1    
    85   42   44 1    
    86   42  165 1    
    87   43  166 1    
    88   43  167 1    
    89   43  168 1    
    90   44   45 am   BACKBONE|DICT|INTERRES
    91   44  169 1    
    92   45   46 2    
    93   45   47 1    
    94   47   48 1    
    95   47   49 1    
    96   47  170 1    
    97   48  171 1    
    98   48  172 1    
    99   48  173 1    
   100   49   50 am   BACKBONE|DICT|INTERRES
   101   49  174 1    
   102   50   51 2    
   103   50   52 1    
   104   52   53 1    
   105   52   54 1    
   106   52  175 1    
   107   53  176 1    
   108   53  177 1    
   109   53  178 1    
   110   54   55 am   BACKBONE|DICT|INTERRES
   111   54  179 1    
   112   55   56 2    
   113   55   57 1    
   114   57   58 1    
   115   57   59 1    
   116   57  180 1    
   117   58  181 1    
   118   58  182 1    
   119   58  183 1    
   120   59   60 am   BACKBONE|DICT|INTERRES
   121   59  184 1    
   122   60   61 2    
   123   60   62 1    
   124   62   63 1    
   125   62   64 1    
   126   62  185 1    
   127   63  186 1    
   128   63  187 1    
   129   63  188 1    
   130   64   65 am   BACKBONE|DICT|INTERRES
   131   64  189 1    
   132   65   66 2    
   133   67   68 2    
   134   67   69 am   BACKBONE|DICT|INTERRES
   135   69   70 1    
   136   69  190 1    
   137   70   71 1    
   138   70   72 1    
   139   70  191 1    
   140   71  192 1    
   141   71  193 1    
   142   71  194 1    
   143   72   73 2    
   144   72   74 am   BACKBONE|DICT|INTERRES
   145   74   75 1    
   146   74  195 1    
   147   75   76 1    
   148   75   77 1    
   149   75  196 1    
   150   76  197 1    
   151   76  198 1    
   152   76  199 1    
   153   77   78 2    
   154   77   79 am   BACKBONE|DICT|INTERRES
   155   79   80 1    
   156   79  200 1    
   157   80   81 1    
   158   80   82 1    
   159   80  201 1    
   160   81  202 1    
   161   81  203 1    
   162   81  204 1    
   163   82   83 2    
   164   82   84 am   BACKBONE|DICT|INTERRES
   165   84   85 1    
   166   84  205 1    
   167   85   86 1    
   168   85   87 1    
   169   85  206 1    
   170   86  207 1    
   171   86  208 1    
   172   86  209 1    
   173   87   88 2    
   174   87   89 am   BACKBONE|DICT|INTERRES
   175   89   90 1    
   176   89  210 1    
   177   90   91 1    
   178   90   92 1    
   179   90  211 1    
   180   91  212 1    
   181   91  213 1    
   182   91  214 1    
   183   92   93 2    
   184   92   94 am   BACKBONE|DICT|INTERRES
   185   94   95 1    
   186   94  215 1    
   187   95   96 1    
   188   95   97 1    
   189   95  216 1    
   190   96  217 1    
   191   96  218 1    
   192   96  219 1    
   193   97   98 2    
   194   97   99 am   BACKBONE|DICT|INTERRES
   195   99  100 1    
   196   99  220 1    
   197  100  101 1    
   198  100  102 1    
   199  100  221 1    
   200  101  222 1    
   201  101  223 1    
   202  101  224 1    
   203  102  103 2    
   204  102  104 am   BACKBONE|DICT|INTERRES
   205  104  105 1    
   206  104  225 1    
   207  105  106 1    
   208  105  107 1    
   209  105  226 1    
   210  106  227 1    
   211  106  228 1    
   212  106  229 1    
   213  107  108 2    
   214  107  109 am   BACKBONE|DICT|INTERRES
   215  109  110 1    
   216  109  230 1    
   217  110  111 1    
   218  110  112 1    
   219  110  231 1    
   220  111  232 1    
   221  111  233 1    
   222  111  234 1    
   223  112  113 2    
   224  112  114 am   BACKBONE|DICT|INTERRES
   225  114  115 1    
   226  114  235 1    
   227  115  116 1    
   228  115  117 1    
   229  115  236 1    
   230  116  237 1    
   231  116  238 1    
   232  116  239 1    
   233  117  118 2    
   234  117  119 am   BACKBONE|DICT|INTERRES
   235  119  120 1    
   236  119  240 1    
   237  120  121 1    
   238  120  124 1    
   239  120  241 1    
   240  121  122 am   BACKBONE|DICT|INTERRES
   241  121  123 2    
   242  122  242 1    
   243  122  243 1    
   244  124  125 1    
   245  124  244 1    
   246  124  245 1    
   247  125  126 1    
   248  126  246 1    
   249  126  247 1    
@<TRIPOS>SUBSTRUCTURE
     1 UNK         1 GROUP             0       ****    0 ROOT    
