@<TRIPOS>MOLECULE
3R540
247   249    1
SMALL
USER_CHARGES


@<TRIPOS>ATOM
      1 CA          4.4732  -11.6624  -52.0077 C.3       0 UNK        -0.1800 
      2 C           4.0988  -11.6234  -50.5326 C.2       0 UNK         0.5000 
      3 O           4.4297  -10.6598  -49.8408 O.2       0 UNK        -0.5000 
      4 N           3.4186  -12.6689  -50.0492 N.am      1 UNK        -0.5000 
      5 CA          2.9247  -12.7817  -48.6746 C.3       1 UNK         0.1400 
      6 C6          2.4763  -14.2256  -48.3366 C.3       23 UNK        -0.0398 
      7 S7          3.8394  -15.4344  -48.3080 S.3       23 UNK        -0.2404 
      8 C8          3.6062  -16.3240  -49.8806 C.3       23 UNK        -0.0205 
      9 C9          2.3254  -17.1486  -49.9188 C.ar      23 UNK        -0.0193 
     10 C10         1.2391  -16.7280  -50.6931 C.ar      23 UNK        -0.1150 
     11 C11         0.0816  -17.5062  -50.7731 C.ar      23 UNK        -0.0193 
     12 C12         0.0233  -18.7202  -50.0869 C.ar      23 UNK        -0.1150 
     13 C13         1.0974  -19.1584  -49.3077 C.ar      23 UNK        -0.0193 
     14 C14         2.2414  -18.3551  -49.2159 C.ar      23 UNK        -0.1150 
     15 C15         0.9913  -20.4898  -48.5683 C.3       23 UNK        -0.0205 
     16 S16         2.5157  -21.4842  -48.6460 S.3       23 UNK        -0.2404 
     17 C17         1.8886  -23.1579  -49.0304 C.3       23 UNK        -0.0398 
     18 CA          1.4993  -24.0237  -47.8010 C.3       11 UNK         0.1400 
     19 N           2.4361  -23.8715  -46.6856 N.am      11 UNK        -0.5000 
     20 C           2.5928  -24.7247  -45.6664 C.2       10 UNK         0.5000 
     21 O           2.0172  -25.8105  -45.5920 O.2       10 UNK        -0.5000 
     22 CA          3.5292  -24.2795  -44.5238 C.3       10 UNK         0.1400 
     23 CB          4.8963  -24.9682  -44.6543 C.3       10 UNK        -0.1800 
     24 N           3.7369  -22.8281  -44.4254 N.am      10 UNK        -0.5000 
     25 C           2.7801  -21.9181  -44.1936 C.2       9 UNK         0.5000 
     26 O           1.5809  -22.1942  -44.1303 O.2       9 UNK        -0.5000 
     27 CA          3.2535  -20.4575  -44.0560 C.3       9 UNK         0.1400 
     28 CB          3.3522  -19.7879  -45.4352 C.3       9 UNK        -0.1800 
     29 N           2.3842  -19.6483  -43.2022 N.am      9 UNK        -0.5000 
     30 C           2.1766  -19.8450  -41.8934 C.2       8 UNK         0.5000 
     31 O           2.7222  -20.7360  -41.2400 O.2       8 UNK        -0.5000 
     32 CA          1.2230  -18.8676  -41.1802 C.3       8 UNK         0.1400 
     33 CB          2.0118  -17.6975  -40.5725 C.3       8 UNK        -0.1800 
     34 N           0.1761  -18.3398  -42.0571 N.am      8 UNK        -0.5000 
     35 C          -0.9252  -19.0163  -42.4111 C.2       7 UNK         0.5000 
     36 O          -1.1890  -20.1463  -42.0007 O.2       7 UNK        -0.5000 
     37 CA         -1.9114  -18.3127  -43.3654 C.3       7 UNK         0.1400 
     38 CB         -2.9673  -17.5314  -42.5694 C.3       7 UNK        -0.1800 
     39 N          -1.2557  -17.4077  -44.3096 N.am      7 UNK        -0.5000 
     40 C          -0.4993  -17.8118  -45.3398 C.2       6 UNK         0.5000 
     41 O          -0.3287  -18.9919  -45.6361 O.2       6 UNK        -0.5000 
     42 CA          0.2159  -16.7157  -46.1509 C.3       6 UNK         0.1400 
     43 CB         -0.7202  -16.1160  -47.2117 C.3       6 UNK        -0.1800 
     44 N           0.7245  -15.6412  -45.3008 N.am      6 UNK        -0.5000 
     45 C           1.6677  -15.7828  -44.3609 C.2       5 UNK         0.5000 
     46 O           2.2403  -16.8432  -44.1179 O.2       5 UNK        -0.5000 
     47 CA          1.9814  -14.5399  -43.5120 C.3       5 UNK         0.1400 
     48 CB          2.9581  -13.6053  -44.2420 C.3       5 UNK        -0.1800 
     49 N           0.7684  -13.8051  -43.1501 N.am      5 UNK        -0.5000 
     50 C          -0.1540  -14.2491  -42.2848 C.2       4 UNK         0.5000 
     51 O          -0.0657  -15.3184  -41.6833 O.2       4 UNK        -0.5000 
     52 CA         -1.3975  -13.3643  -42.0805 C.3       4 UNK         0.1400 
     53 CB         -1.1113  -12.2567  -41.0556 C.3       4 UNK        -0.1800 
     54 N          -1.8726  -12.7611  -43.3265 N.am      4 UNK        -0.5000 
     55 C          -2.4232  -13.4498  -44.3359 C.2       3 UNK         0.5000 
     56 O          -2.6110  -14.6663  -44.3118 O.2       3 UNK        -0.5000 
     57 CA         -2.7698  -12.6487  -45.6078 C.3       3 UNK         0.1400 
     58 CB         -4.1424  -11.9745  -45.4649 C.3       3 UNK        -0.1800 
     59 N          -1.7655  -11.6404  -45.9747 N.am      3 UNK        -0.5000 
     60 C          -0.4745  -11.9126  -46.2036 C.2       2 UNK         0.5000 
     61 O           0.0127  -13.0348  -46.0528 O.2       2 UNK        -0.5000 
     62 CA          0.4386  -10.7449  -46.6276 C.3       2 UNK         0.1400 
     63 CB          0.8058   -9.8852  -45.4080 C.3       2 UNK        -0.1800 
     64 N           1.6713  -11.2714  -47.2166 N.am      2 UNK        -0.5000 
     65 C           1.7396  -11.8247  -48.4334 C.2       1 UNK         0.5000 
     66 O           0.8787  -11.6769  -49.3052 O.2       1 UNK        -0.5000 
     67 C           0.0164  -23.8456  -47.3984 C.2       11 UNK         0.5000 
     68 O          -0.8577  -24.1639  -48.2060 O.2       11 UNK        -0.5000 
     69 N          -0.2796  -23.3841  -46.1745 N.am      12 UNK        -0.5000 
     70 CA         -1.6268  -23.3802  -45.5998 C.3       12 UNK         0.1400 
     71 CB         -1.7231  -22.2921  -44.5196 C.3       12 UNK        -0.1800 
     72 C          -2.0236  -24.7788  -45.0872 C.2       12 UNK         0.5000 
     73 O          -2.1885  -24.9814  -43.8833 O.2       12 UNK        -0.5000 
     74 N          -2.1623  -25.7274  -46.0235 N.am      13 UNK        -0.5000 
     75 CA         -2.6231  -27.0963  -45.7723 C.3       13 UNK         0.1400 
     76 CB         -2.3330  -27.9559  -47.0118 C.3       13 UNK        -0.1800 
     77 C          -4.1199  -27.1548  -45.4067 C.2       13 UNK         0.5000 
     78 O          -4.5335  -28.0291  -44.6442 O.2       13 UNK        -0.5000 
     79 N          -4.8885  -26.2014  -45.9407 N.am      14 UNK        -0.5000 
     80 CA         -6.2719  -25.9123  -45.5944 C.3       14 UNK         0.1400 
     81 CB         -7.2216  -26.6446  -46.5642 C.3       14 UNK        -0.1800 
     82 C          -6.3713  -24.3832  -45.6329 C.2       14 UNK         0.5000 
     83 O          -5.9710  -23.7270  -44.6704 O.2       14 UNK        -0.5000 
     84 N          -6.7958  -23.8386  -46.7786 N.am      15 UNK        -0.5000 
     85 CA         -6.5321  -22.4527  -47.1605 C.3       15 UNK         0.1400 
     86 CB         -7.5081  -22.0461  -48.2750 C.3       15 UNK        -0.1800 
     87 C          -5.0720  -22.3100  -47.6339 C.2       15 UNK         0.5000 
     88 O          -4.4561  -23.3057  -48.0300 O.2       15 UNK        -0.5000 
     89 N          -4.5534  -21.0764  -47.6035 N.am      16 UNK        -0.5000 
     90 CA         -3.2106  -20.7004  -48.0516 C.3       16 UNK         0.1400 
     91 CB         -3.0107  -19.1989  -47.8043 C.3       16 UNK        -0.1800 
     92 C          -2.9818  -21.0647  -49.5299 C.2       16 UNK         0.5000 
     93 O          -3.5531  -20.4151  -50.4059 O.2       16 UNK        -0.5000 
     94 N          -2.2088  -22.1346  -49.7721 N.am      17 UNK        -0.5000 
     95 CA         -1.9297  -22.7469  -51.0777 C.3       17 UNK         0.1400 
     96 CB         -1.0642  -21.8111  -51.9459 C.3       17 UNK        -0.1800 
     97 C          -3.2096  -23.2301  -51.7948 C.2       17 UNK         0.5000 
     98 O          -3.2889  -23.1821  -53.0229 O.2       17 UNK        -0.5000 
     99 N          -4.2103  -23.6413  -50.9980 N.am      18 UNK        -0.5000 
    100 CA        -5.5778  -23.9935  -51.3968 C.3       18 UNK         0.1400 
    101 CB        -5.5875  -25.2564  -52.2827 C.3       18 UNK        -0.1800 
    102 C         -6.3594  -22.8181  -52.0297 C.2       18 UNK         0.5000 
    103 O         -7.3442  -23.0530  -52.7317 O.2       18 UNK        -0.5000 
    104 N         -5.9071  -21.5783  -51.7790 N.am      19 UNK        -0.5000 
    105 CA        -6.3872  -20.2840  -52.2769 C.3       19 UNK         0.1400 
    106 CB        -7.8429  -20.0154  -51.8513 C.3       19 UNK        -0.1800 
    107 C         -6.2001  -20.0758  -53.7921 C.2       19 UNK         0.5000 
    108 O         -5.6829  -19.0351  -54.1984 O.2       19 UNK        -0.5000 
    109 N         -6.6172  -21.0615  -54.5963 N.am      20 UNK        -0.5000 
    110 CA        -6.6648  -21.0351  -56.0593 C.3       20 UNK         0.1400 
    111 CB        -7.2677  -22.3552  -56.5623 C.3       20 UNK        -0.1800 
    112 C         -5.3107  -20.7678  -56.7401 C.2       20 UNK         0.5000 
    113 O         -5.2750  -20.0733  -57.7571 O.2       20 UNK        -0.5000 
    114 N         -4.2192  -21.2809  -56.1542 N.am      21 UNK        -0.5000 
    115 CA        -2.8495  -21.0881  -56.6420 C.3       21 UNK         0.1400 
    116 CB        -1.9038  -22.0094  -55.8605 C.3       21 UNK        -0.1800 
    117 C         -2.3607  -19.6275  -56.5584 C.2       21 UNK         0.5000 
    118 O         -1.4581  -19.2512  -57.3073 O.2       21 UNK        -0.5000 
    119 N         -2.9715  -18.8376  -55.6680 N.am      22 UNK        -0.5000 
    120 CA        -2.7223  -17.4006  -55.4874 C.3       22 UNK         0.1400 
    121 C         -3.7772  -16.5075  -56.2069 C.2       22 UNK         0.5000 
    122 N         -4.6943  -17.0522  -56.9998 N.am      22 UNK        -0.7600 
    123 O         -3.7520  -15.2878  -56.0655 O.2       22 UNK        -0.5000 
    124 C124       -2.5809  -17.0419  -53.9849 C.3       23 UNK        -0.0398 
    125 S125       -1.1435  -17.8657  -53.2187 S.3       23 UNK        -0.2404 
    126 C126       -1.1088  -17.0437  -51.5985 C.3       23 UNK        -0.0205 
    127 H127        5.5556  -11.6040  -52.1219 H         1 UNK         0.0600 
    128 H128        4.0278  -10.8158  -52.5301 H         1 UNK         0.0600 
    129 H129        4.1298  -12.5782  -52.4895 H         1 UNK         0.0600 
    130 H130        3.1507  -13.4144  -50.6732 H         1 UNK         0.3000 
    131 H131        3.7369  -12.5052  -47.9984 H         1 UNK         0.0600 
    132 H132        2.0283  -14.2580  -47.3437 H         1 UNK         0.0800 
    133 H133        1.6950  -14.5536  -49.0219 H         1 UNK         0.0800 
    134 H134        3.6338  -15.6133  -50.7073 H         1 UNK         0.0800 
    135 H135        4.4577  -16.9892  -50.0306 H         1 UNK         0.0800 
    136 H136        1.2957  -15.7980  -51.2409 H         1 UNK         0.1150 
    137 H137       -0.8665  -19.3244  -50.1720 H         1 UNK         0.1150 
    138 H138        3.0786  -18.6757  -48.6121 H         1 UNK         0.1150 
    139 H139        0.7479  -20.3036  -47.5242 H         1 UNK         0.0800 
    140 H140        0.1639  -21.0706  -48.9709 H         1 UNK         0.0800 
    141 H141        1.0810  -23.0965  -49.7619 H         1 UNK         0.0800 
    142 H142        2.6978  -23.6648  -49.5576 H         1 UNK         0.0800 
    143 H143        1.5690  -25.0643  -48.1257 H         1 UNK         0.0600 
    144 H144        2.9480  -23.0010  -46.6651 H         1 UNK         0.3000 
    145 H145        3.0696  -24.6074  -43.5891 H         1 UNK         0.0600 
    146 H146        5.5352  -24.7446  -43.7997 H         1 UNK         0.0600 
    147 H147        4.7862  -26.0526  -44.6993 H         1 UNK         0.0600 
    148 H148        5.4197  -24.6538  -45.5581 H         1 UNK         0.0600 
    149 H149        4.6955  -22.5161  -44.4875 H         1 UNK         0.3000 
    150 H150        4.2466  -20.4620  -43.6024 H         1 UNK         0.0600 
    151 H151        3.9895  -20.3599  -46.1103 H         1 UNK         0.0600 
    152 H152        3.7795  -18.7879  -45.3594 H         1 UNK         0.0600 
    153 H153        2.3728  -19.6945  -45.9038 H         1 UNK         0.0600 
    154 H154        1.9360  -18.8538  -43.6431 H         1 UNK         0.3000 
    155 H155        0.7481  -19.4109  -40.3605 H         1 UNK         0.0600 
    156 H156        2.7879  -18.0579  -39.8962 H         1 UNK         0.0600 
    157 H157        1.3604  -17.0395  -39.9972 H         1 UNK         0.0600 
    158 H158        2.4991  -17.0981  -41.3419 H         1 UNK         0.0600 
    159 H159        0.2923  -17.3889  -42.3843 H         1 UNK         0.3000 
    160 H160       -2.4253  -19.0876  -43.9382 H         1 UNK         0.0600 
    161 H161       -2.5184  -16.7202  -41.9951 H         1 UNK         0.0600 
    162 H162       -3.4897  -18.1826  -41.8674 H         1 UNK         0.0600 
    163 H163       -3.7174  -17.0973  -43.2307 H         1 UNK         0.0600 
    164 H164       -1.3988  -16.4145  -44.1656 H         1 UNK         0.3000 
    165 H165        1.0682  -17.1707  -46.6600 H         1 UNK         0.0600 
    166 H166       -1.6270  -15.7068  -46.7653 H         1 UNK         0.0600 
    167 H167       -0.2340  -15.3149  -47.7663 H         1 UNK         0.0600 
    168 H168       -1.0189  -16.8681  -47.9395 H         1 UNK         0.0600 
    169 H169        0.3327  -14.7145  -45.4574 H         1 UNK         0.3000 
    170 H170        2.4628  -14.8776  -42.5919 H         1 UNK         0.0600 
    171 H171        3.8764  -14.1319  -44.5056 H         1 UNK         0.0600 
    172 H172        2.5316  -13.2132  -45.1638 H         1 UNK         0.0600 
    173 H173        3.2368  -12.7588  -43.6144 H         1 UNK         0.0600 
    174 H174        0.5866  -12.9508  -43.6548 H         1 UNK         0.3000 
    175 H175       -2.1937  -13.9979  -41.6836 H         1 UNK         0.0600 
    176 H176       -0.3389  -11.5710  -41.4060 H         1 UNK         0.0600 
    177 H177       -2.0080  -11.6736  -40.8449 H         1 UNK         0.0600 
    178 H178       -0.7704  -12.6798  -40.1096 H         1 UNK         0.0600 
    179 H179       -1.7487  -11.7651  -43.4325 H         1 UNK         0.3000 
    180 H180       -2.8282  -13.3629  -46.4318 H         1 UNK         0.0600 
    181 H181       -4.1386  -11.2134  -44.6836 H         1 UNK         0.0600 
    182 H182       -4.9115  -12.7045  -45.2086 H         1 UNK         0.0600 
    183 H183       -4.4472  -11.4982  -46.3969 H         1 UNK         0.0600 
    184 H184       -2.0994  -10.6957  -46.0999 H         1 UNK         0.3000 
    185 H185       -0.0853  -10.1290  -47.3614 H         1 UNK         0.0600 
    186 H186        1.3123  -10.4695  -44.6384 H         1 UNK         0.0600 
    187 H187        1.4639   -9.0633  -45.6907 H         1 UNK         0.0600 
    188 H188       -0.0828   -9.4447  -44.9543 H         1 UNK         0.0600 
    189 H189        2.4209  -11.4496  -46.5653 H         1 UNK         0.3000 
    190 H190        0.4715  -23.1199  -45.5436 H         1 UNK         0.3000 
    191 H191       -2.3487  -23.1298  -46.3749 H         1 UNK         0.0600 
    192 H192       -1.0524  -22.4912  -43.6834 H         1 UNK         0.0600 
    193 H193       -2.7357  -22.2256  -44.1200 H         1 UNK         0.0600 
    194 H194       -1.4682  -21.3131  -44.9238 H         1 UNK         0.0600 
    195 H195       -1.9623  -25.4767  -46.9854 H         1 UNK         0.3000 
    196 H196       -2.0567  -27.5017  -44.9313 H         1 UNK         0.0600 
    197 H197       -2.6443  -28.9890  -46.8518 H         1 UNK         0.0600 
    198 H198       -1.2672  -27.9696  -47.2407 H         1 UNK         0.0600 
    199 H199       -2.8609  -27.5856  -47.8916 H         1 UNK         0.0600 
    200 H200       -4.4437  -25.5135  -46.5344 H         1 UNK         0.3000 
    201 H201       -6.4855  -26.2317  -44.5721 H         1 UNK         0.0600 
    202 H202       -7.1597  -27.7235  -46.4213 H         1 UNK         0.0600 
    203 H203       -6.9845  -26.4411  -47.6091 H         1 UNK         0.0600 
    204 H204       -8.2590  -26.3557  -46.3906 H         1 UNK         0.0600 
    205 H205       -7.0684  -24.4610  -47.5246 H         1 UNK         0.3000 
    206 H206       -6.6897  -21.8001  -46.2990 H         1 UNK         0.0600 
    207 H207       -8.5416  -22.1139  -47.9348 H         1 UNK         0.0600 
    208 H208       -7.3382  -21.0155  -48.5881 H         1 UNK         0.0600 
    209 H209       -7.4064  -22.6784  -49.1562 H         1 UNK         0.0600 
    210 H210       -5.1383  -20.3155  -47.2904 H         1 UNK         0.3000 
    211 H211       -2.4759  -21.2256  -47.4434 H         1 UNK         0.0600 
    212 H212       -1.9986  -18.9045  -48.0745 H         1 UNK         0.0600 
    213 H213       -3.1464  -18.9487  -46.7518 H         1 UNK         0.0600 
    214 H214       -3.7020  -18.5901  -48.3885 H         1 UNK         0.0600 
    215 H215       -1.8576  -22.6750  -48.9872 H         1 UNK         0.3000 
    216 H216       -1.3427  -23.6437  -50.8762 H         1 UNK         0.0600 
    217 H217       -0.7156  -22.3257  -52.8412 H         1 UNK         0.0600 
    218 H218       -0.1780  -21.4759  -51.4082 H         1 UNK         0.0600 
    219 H219       -1.6168  -20.9272  -52.2666 H         1 UNK         0.0600 
    220 H220       -4.0508  -23.6199  -49.9949 H         1 UNK         0.3000 
    221 H221       -6.1018  -24.2413  -50.4732 H         1 UNK         0.0600 
    222 H222       -6.6047  -25.6173  -52.4385 H         1 UNK         0.0600 
    223 H223       -5.0252  -26.0672  -51.8195 H         1 UNK         0.0600 
    224 H224       -5.1562  -25.0670  -53.2660 H         1 UNK         0.0600 
    225 H225       -5.0557  -21.4984  -51.2327 H         1 UNK         0.3000 
    226 H226       -5.7648  -19.5351  -51.7846 H         1 UNK         0.0600 
    227 H227       -7.9563  -20.0820  -50.7699 H         1 UNK         0.0600 
    228 H228       -8.1539  -19.0131  -52.1483 H         1 UNK         0.0600 
    229 H229       -8.5413  -20.7184  -52.3056 H         1 UNK         0.0600 
    230 H230       -7.0082  -21.8829  -54.1415 H         1 UNK         0.3000 
    231 H231       -7.3364  -20.2231  -56.3448 H         1 UNK         0.0600 
    232 H232       -7.3391  -22.3645  -57.6507 H         1 UNK         0.0600 
    233 H233       -8.2739  -22.5039  -56.1700 H         1 UNK         0.0600 
    234 H234       -6.6621  -23.2120  -56.2640 H         1 UNK         0.0600 
    235 H235       -4.3289  -21.8224  -55.3077 H         1 UNK         0.3000 
    236 H236       -2.8238  -21.3841  -57.6927 H         1 UNK         0.0600 
    237 H237       -2.2185  -23.0513  -55.9222 H         1 UNK         0.0600 
    238 H238       -0.8872  -21.9506  -56.2513 H         1 UNK         0.0600 
    239 H239       -1.8666  -21.7298  -54.8084 H         1 UNK         0.0600 
    240 H240       -3.7391  -19.2132  -55.1244 H         1 UNK         0.3000 
    241 H241       -1.7750  -17.1421  -55.9638 H         1 UNK         0.0600 
    242 H242       -5.3625  -16.4562  -57.4621 H         1 UNK         0.3800 
    243 H243       -4.7287  -18.0520  -57.1498 H         1 UNK         0.3800 
    244 H244       -2.4549  -15.9655  -53.8568 H         1 UNK         0.0800 
    245 H245       -3.4839  -17.3173  -53.4373 H         1 UNK         0.0800 
    246 H246       -1.0749  -15.9620  -51.7371 H         1 UNK         0.0800 
    247 H247       -2.0347  -17.2608  -51.0631 H         1 UNK         0.0800 
@<TRIPOS>BOND
     1    1    2 1    
     2    1  127 1    
     3    1  128 1    
     4    1  129 1    
     5    2    3 2    
     6    2    4 am   BACKBONE|DICT|INTERRES
     7    4    5 1    
     8    4  130 1    
     9    5    6 1    
    10    5   65 1    
    11    5  131 1    
    12    6    7 1    
    13    6  132 1    
    14    6  133 1    
    15    7    8 1    
    16    8    9 1    
    17    8  134 1    
    18    8  135 1    
    19    9   10 ar   
    20    9   14 ar   
    21   10   11 ar   
    22   10  136 1    
    23   11   12 ar   
    24   11  126 1    
    25   12   13 ar   
    26   12  137 1    
    27   13   14 ar   
    28   13   15 1    
    29   14  138 1    
    30   15   16 1    
    31   15  139 1    
    32   15  140 1    
    33   16   17 1    
    34   17   18 1    
    35   17  141 1    
    36   17  142 1    
    37   18   19 1    
    38   18   67 1    
    39   18  143 1    
    40   19   20 am   BACKBONE|DICT|INTERRES
    41   19  144 1    
    42   20   21 2    
    43   20   22 1    
    44   22   23 1    
    45   22   24 1    
    46   22  145 1    
    47   23  146 1    
    48   23  147 1    
    49   23  148 1    
    50   24   25 am   BACKBONE|DICT|INTERRES
    51   24  149 1    
    52   25   26 2    
    53   25   27 1    
    54   27   28 1    
    55   27   29 1    
    56   27  150 1    
    57   28  151 1    
    58   28  152 1    
    59   28  153 1    
    60   29   30 am   BACKBONE|DICT|INTERRES
    61   29  154 1    
    62   30   31 2    
    63   30   32 1    
    64   32   33 1    
    65   32   34 1    
    66   32  155 1    
    67   33  156 1    
    68   33  157 1    
    69   33  158 1    
    70   34   35 am   BACKBONE|DICT|INTERRES
    71   34  159 1    
    72   35   36 2    
    73   35   37 1    
    74   37   38 1    
    75   37   39 1    
    76   37  160 1    
    77   38  161 1    
    78   38  162 1    
    79   38  163 1    
    80   39   40 am   BACKBONE|DICT|INTERRES
    81   39  164 1    
    82   40   41 2    
    83   40   42 1    
    84   42   43 1    
    85   42   44 1    
    86   42  165 1    
    87   43  166 1    
    88   43  167 1    
    89   43  168 1    
    90   44   45 am   BACKBONE|DICT|INTERRES
    91   44  169 1    
    92   45   46 2    
    93   45   47 1    
    94   47   48 1    
    95   47   49 1    
    96   47  170 1    
    97   48  171 1    
    98   48  172 1    
    99   48  173 1    
   100   49   50 am   BACKBONE|DICT|INTERRES
   101   49  174 1    
   102   50   51 2    
   103   50   52 1    
   104   52   53 1    
   105   52   54 1    
   106   52  175 1    
   107   53  176 1    
   108   53  177 1    
   109   53  178 1    
   110   54   55 am   BACKBONE|DICT|INTERRES
   111   54  179 1    
   112   55   56 2    
   113   55   57 1    
   114   57   58 1    
   115   57   59 1    
   116   57  180 1    
   117   58  181 1    
   118   58  182 1    
   119   58  183 1    
   120   59   60 am   BACKBONE|DICT|INTERRES
   121   59  184 1    
   122   60   61 2    
   123   60   62 1    
   124   62   63 1    
   125   62   64 1    
   126   62  185 1    
   127   63  186 1    
   128   63  187 1    
   129   63  188 1    
   130   64   65 am   BACKBONE|DICT|INTERRES
   131   64  189 1    
   132   65   66 2    
   133   67   68 2    
   134   67   69 am   BACKBONE|DICT|INTERRES
   135   69   70 1    
   136   69  190 1    
   137   70   71 1    
   138   70   72 1    
   139   70  191 1    
   140   71  192 1    
   141   71  193 1    
   142   71  194 1    
   143   72   73 2    
   144   72   74 am   BACKBONE|DICT|INTERRES
   145   74   75 1    
   146   74  195 1    
   147   75   76 1    
   148   75   77 1    
   149   75  196 1    
   150   76  197 1    
   151   76  198 1    
   152   76  199 1    
   153   77   78 2    
   154   77   79 am   BACKBONE|DICT|INTERRES
   155   79   80 1    
   156   79  200 1    
   157   80   81 1    
   158   80   82 1    
   159   80  201 1    
   160   81  202 1    
   161   81  203 1    
   162   81  204 1    
   163   82   83 2    
   164   82   84 am   BACKBONE|DICT|INTERRES
   165   84   85 1    
   166   84  205 1    
   167   85   86 1    
   168   85   87 1    
   169   85  206 1    
   170   86  207 1    
   171   86  208 1    
   172   86  209 1    
   173   87   88 2    
   174   87   89 am   BACKBONE|DICT|INTERRES
   175   89   90 1    
   176   89  210 1    
   177   90   91 1    
   178   90   92 1    
   179   90  211 1    
   180   91  212 1    
   181   91  213 1    
   182   91  214 1    
   183   92   93 2    
   184   92   94 am   BACKBONE|DICT|INTERRES
   185   94   95 1    
   186   94  215 1    
   187   95   96 1    
   188   95   97 1    
   189   95  216 1    
   190   96  217 1    
   191   96  218 1    
   192   96  219 1    
   193   97   98 2    
   194   97   99 am   BACKBONE|DICT|INTERRES
   195   99  100 1    
   196   99  220 1    
   197  100  101 1    
   198  100  102 1    
   199  100  221 1    
   200  101  222 1    
   201  101  223 1    
   202  101  224 1    
   203  102  103 2    
   204  102  104 am   BACKBONE|DICT|INTERRES
   205  104  105 1    
   206  104  225 1    
   207  105  106 1    
   208  105  107 1    
   209  105  226 1    
   210  106  227 1    
   211  106  228 1    
   212  106  229 1    
   213  107  108 2    
   214  107  109 am   BACKBONE|DICT|INTERRES
   215  109  110 1    
   216  109  230 1    
   217  110  111 1    
   218  110  112 1    
   219  110  231 1    
   220  111  232 1    
   221  111  233 1    
   222  111  234 1    
   223  112  113 2    
   224  112  114 am   BACKBONE|DICT|INTERRES
   225  114  115 1    
   226  114  235 1    
   227  115  116 1    
   228  115  117 1    
   229  115  236 1    
   230  116  237 1    
   231  116  238 1    
   232  116  239 1    
   233  117  118 2    
   234  117  119 am   BACKBONE|DICT|INTERRES
   235  119  120 1    
   236  119  240 1    
   237  120  121 1    
   238  120  124 1    
   239  120  241 1    
   240  121  122 am   BACKBONE|DICT|INTERRES
   241  121  123 2    
   242  122  242 1    
   243  122  243 1    
   244  124  125 1    
   245  124  244 1    
   246  124  245 1    
   247  125  126 1    
   248  126  246 1    
   249  126  247 1    
@<TRIPOS>SUBSTRUCTURE
     1 UNK         1 GROUP             0       ****    0 ROOT    
