@<TRIPOS>MOLECULE
3R540
247   249    1
SMALL
USER_CHARGES


@<TRIPOS>ATOM
      1 CA          4.5429   -9.8429  -50.2624 C.3       0 UNK        -0.1800 
      2 C           4.8514  -11.1728  -49.5897 C.2       0 UNK         0.5000 
      3 O           5.7636  -11.2457  -48.7662 O.2       0 UNK        -0.5000 
      4 N           4.0951  -12.2223  -49.9366 N.am      1 UNK        -0.5000 
      5 CA          4.2408  -13.5840  -49.4009 C.3       1 UNK         0.1400 
      6 C6          3.4118  -14.6205  -50.1973 C.3       23 UNK        -0.0398 
      7 S7          3.6648  -14.5556  -52.0051 S.3       23 UNK        -0.2404 
      8 C8          3.5180  -16.3167  -52.4726 C.3       23 UNK        -0.0205 
      9 C9          2.2961  -17.0397  -51.9036 C.ar      23 UNK        -0.0193 
     10 C10         1.0658  -16.3936  -51.7257 C.ar      23 UNK        -0.1150 
     11 C11        -0.0269  -17.0700  -51.1732 C.ar      23 UNK        -0.0193 
     12 C12         0.1168  -18.4111  -50.8066 C.ar      23 UNK        -0.1150 
     13 C13         1.3237  -19.0813  -51.0132 C.ar      23 UNK        -0.0193 
     14 C14         2.4079  -18.3899  -51.5588 C.ar      23 UNK        -0.1150 
     15 C15         1.4532  -20.5571  -50.6696 C.3       23 UNK        -0.0205 
     16 S16         2.4201  -20.8266  -49.1527 S.3       23 UNK        -0.2404 
     17 C17         1.2364  -20.3572  -47.8464 C.3       23 UNK        -0.0398 
     18 CA          0.5415  -21.5944  -47.2225 C.3       11 UNK         0.1400 
     19 N           0.3348  -21.4534  -45.7786 N.am      11 UNK        -0.5000 
     20 C          -0.0169  -22.4616  -44.9679 C.2       10 UNK         0.5000 
     21 O          -0.1620  -23.6219  -45.3493 O.2       10 UNK        -0.5000 
     22 CA         -0.3035  -22.1139  -43.4969 C.3       10 UNK         0.1400 
     23 CB          0.9986  -22.0648  -42.6846 C.3       10 UNK        -0.1800 
     24 N          -1.0374  -20.8566  -43.3478 N.am      10 UNK        -0.5000 
     25 C          -2.2756  -20.6452  -43.8172 C.2       9 UNK         0.5000 
     26 O          -2.9461  -21.5095  -44.3797 O.2       9 UNK        -0.5000 
     27 CA         -2.8451  -19.2222  -43.6844 C.3       9 UNK         0.1400 
     28 CB         -3.4090  -18.9905  -42.2751 C.3       9 UNK        -0.1800 
     29 N          -1.8640  -18.1845  -44.0037 N.am      9 UNK        -0.5000 
     30 C          -1.2781  -18.0280  -45.2004 C.2       8 UNK         0.5000 
     31 O          -1.5232  -18.7297  -46.1830 O.2       8 UNK        -0.5000 
     32 CA         -0.1895  -16.9425  -45.2954 C.3       8 UNK         0.1400 
     33 CB         -0.8109  -15.5415  -45.3903 C.3       8 UNK        -0.1800 
     34 N           0.7412  -16.9921  -44.1667 N.am      8 UNK        -0.5000 
     35 C           1.5417  -18.0332  -43.8946 C.2       7 UNK         0.5000 
     36 O           1.6225  -19.0380  -44.6011 O.2       7 UNK        -0.5000 
     37 CA          2.3404  -17.9646  -42.5824 C.3       7 UNK         0.1400 
     38 CB          3.6088  -17.1127  -42.7483 C.3       7 UNK        -0.1800 
     39 N           1.5287  -17.4487  -41.4788 N.am      7 UNK        -0.5000 
     40 C           0.5057  -18.1148  -40.9226 C.2       6 UNK         0.5000 
     41 O           0.1618  -19.2447  -41.2644 O.2       6 UNK        -0.5000 
     42 CA         -0.2919  -17.3854  -39.8266 C.3       6 UNK         0.1400 
     43 CB          0.3798  -17.5698  -38.4579 C.3       6 UNK        -0.1800 
     44 N          -0.4497  -15.9576  -40.0991 N.am      6 UNK        -0.5000 
     45 C          -1.1457  -15.4467  -41.1251 C.2       5 UNK         0.5000 
     46 O          -1.7741  -16.1275  -41.9347 O.2       5 UNK        -0.5000 
     47 CA         -1.0647  -13.9197  -41.3092 C.3       5 UNK         0.1400 
     48 CB         -2.1294  -13.2116  -40.4584 C.3       5 UNK        -0.1800 
     49 N           0.2621  -13.3888  -40.9785 N.am      5 UNK        -0.5000 
     50 C           1.3758  -13.6998  -41.6524 C.2       4 UNK         0.5000 
     51 O           1.3887  -14.4322  -42.6486 O.2       4 UNK        -0.5000 
     52 CA          2.6971  -13.1505  -41.0984 C.3       4 UNK         0.1400 
     53 CB          3.2399  -14.0441  -39.9704 C.3       4 UNK        -0.1800 
     54 N           3.6377  -13.1262  -42.2048 N.am      4 UNK        -0.5000 
     55 C           4.6521  -12.2755  -42.3828 C.2       3 UNK         0.5000 
     56 O           5.0498  -11.4853  -41.5260 O.2       3 UNK        -0.5000 
     57 CA          5.2998  -12.2889  -43.7837 C.3       3 UNK         0.1400 
     58 CB          6.5218  -13.2192  -43.8055 C.3       3 UNK        -0.1800 
     59 N           4.3618  -12.7077  -44.8319 N.am      3 UNK        -0.5000 
     60 C           3.2564  -12.0392  -45.1863 C.2       2 UNK         0.5000 
     61 O           2.9742  -10.9158  -44.7656 O.2       2 UNK        -0.5000 
     62 CA          2.3129  -12.7646  -46.1632 C.3       2 UNK         0.1400 
     63 CB          0.9243  -12.1054  -46.2445 C.3       2 UNK        -0.1800 
     64 N           2.8794  -12.8316  -47.5060 N.am      2 UNK        -0.5000 
     65 C           3.8419  -13.6708  -47.9120 C.2       1 UNK         0.5000 
     66 O           4.3866  -14.4944  -47.1749 O.2       1 UNK        -0.5000 
     67 C          -0.7686  -21.9534  -47.9567 C.2       11 UNK         0.5000 
     68 O          -0.7635  -22.8365  -48.8146 O.2       11 UNK        -0.5000 
     69 N          -1.8788  -21.3050  -47.5748 N.am      12 UNK        -0.5000 
     70 CA         -3.2205  -21.6090  -48.0763 C.3       12 UNK         0.1400 
     71 CB         -4.2088  -20.5316  -47.6089 C.3       12 UNK        -0.1800 
     72 C          -3.7009  -23.0194  -47.6854 C.2       12 UNK         0.5000 
     73 O          -4.2818  -23.7124  -48.5206 O.2       12 UNK        -0.5000 
     74 N          -3.4115  -23.4397  -46.4464 N.am      13 UNK        -0.5000 
     75 CA         -3.6824  -24.7868  -45.9418 C.3       13 UNK         0.1400 
     76 CB         -3.4516  -24.8288  -44.4241 C.3       13 UNK        -0.1800 
     77 C          -2.8500  -25.8699  -46.6534 C.2       13 UNK         0.5000 
     78 O          -3.3775  -26.9471  -46.9294 O.2       13 UNK        -0.5000 
     79 N          -1.5834  -25.5594  -46.9664 N.am      14 UNK        -0.5000 
     80 CA         -0.6826  -26.4150  -47.7414 C.3       14 UNK         0.1400 
     81 CB          0.7524  -25.8734  -47.6547 C.3       14 UNK        -0.1800 
     82 C          -1.1256  -26.5651  -49.2088 C.2       14 UNK         0.5000 
     83 O          -1.0379  -27.6648  -49.7564 O.2       14 UNK        -0.5000 
     84 N          -1.6220  -25.4718  -49.8079 N.am      15 UNK        -0.5000 
     85 CA         -2.2405  -25.4610  -51.1370 C.3       15 UNK         0.1400 
     86 CB         -2.4270  -24.0087  -51.5990 C.3       15 UNK        -0.1800 
     87 C          -3.5816  -26.2219  -51.1742 C.2       15 UNK         0.5000 
     88 O          -3.9327  -26.7833  -52.2123 O.2       15 UNK        -0.5000 
     89 N          -4.2943  -26.2281  -50.0381 N.am      16 UNK        -0.5000 
     90 CA         -5.5094  -26.9728  -49.6834 C.3       16 UNK         0.1400 
     91 CB         -5.2871  -28.4918  -49.8038 C.3       16 UNK        -0.1800 
     92 C          -6.7839  -26.5355  -50.4273 C.2       16 UNK         0.5000 
     93 O          -7.8419  -26.4369  -49.8051 O.2       16 UNK        -0.5000 
     94 N          -6.6678  -26.2619  -51.7310 N.am      17 UNK        -0.5000 
     95 CA         -7.7501  -25.7871  -52.5944 C.3       17 UNK         0.1400 
     96 CB         -7.3561  -26.0392  -54.0582 C.3       17 UNK        -0.1800 
     97 C          -8.0924  -24.2993  -52.3813 C.2       17 UNK         0.5000 
     98 O          -9.1322  -23.8498  -52.8648 O.2       17 UNK        -0.5000 
     99 N          -7.1999  -23.5568  -51.7061 N.am      18 UNK        -0.5000 
    100 CA        -7.2254  -22.1202  -51.3919 C.3       18 UNK         0.1400 
    101 CB        -8.4587  -21.7378  -50.5540 C.3       18 UNK        -0.1800 
    102 C         -7.0784  -21.2079  -52.6243 C.2       18 UNK         0.5000 
    103 O         -6.2624  -20.2866  -52.5997 O.2       18 UNK        -0.5000 
    104 N         -7.8099  -21.5061  -53.7044 N.am      19 UNK        -0.5000 
    105 CA        -7.7111  -20.8496  -55.0114 C.3       19 UNK         0.1400 
    106 CB        -8.8647  -21.3360  -55.9011 C.3       19 UNK        -0.1800 
    107 C         -6.3542  -21.0894  -55.7048 C.2       19 UNK         0.5000 
    108 O         -5.9219  -20.2579  -56.5026 O.2       19 UNK        -0.5000 
    109 N         -5.6957  -22.2061  -55.3606 N.am      20 UNK        -0.5000 
    110 CA        -4.3299  -22.5425  -55.7684 C.3       20 UNK         0.1400 
    111 CB        -4.0949  -24.0404  -55.5159 C.3       20 UNK        -0.1800 
    112 C         -3.2563  -21.6926  -55.0547 C.2       20 UNK         0.5000 
    113 O         -2.1273  -21.6204  -55.5412 O.2       20 UNK        -0.5000 
    114 N         -3.6245  -21.0708  -53.9264 N.am      21 UNK        -0.5000 
    115 CA        -2.8292  -20.0881  -53.2022 C.3       21 UNK         0.1400 
    116 CB        -2.9795  -20.3321  -51.6858 C.3       21 UNK        -0.1800 
    117 C         -3.2603  -18.6843  -53.6638 C.2       21 UNK         0.5000 
    118 O         -2.8534  -18.2617  -54.7473 O.2       21 UNK        -0.5000 
    119 N         -4.0699  -17.9955  -52.8504 N.am      22 UNK        -0.5000 
    120 CA        -4.5381  -16.6175  -53.0817 C.3       22 UNK         0.1400 
    121 C         -6.0824  -16.4625  -52.9617 C.2       22 UNK         0.5000 
    122 N         -6.8587  -17.5257  -52.7902 N.am      22 UNK        -0.7600 
    123 O         -6.5980  -15.3506  -53.0433 O.2       22 UNK        -0.5000 
    124 C124       -3.7881  -15.5900  -52.1873 C.3       23 UNK        -0.0398 
    125 S125       -1.9841  -15.5765  -52.4760 S.3       23 UNK        -0.2404 
    126 C126       -1.3559  -16.3569  -50.9524 C.3       23 UNK        -0.0205 
    127 H127        5.4191   -9.4831  -50.8018 H         1 UNK         0.0600 
    128 H128        3.7187   -9.9282  -50.9711 H         1 UNK         0.0600 
    129 H129        4.2723   -9.0980  -49.5140 H         1 UNK         0.0600 
    130 H130        3.3831  -12.1083  -50.6445 H         1 UNK         0.3000 
    131 H131        5.2947  -13.8602  -49.4766 H         1 UNK         0.0600 
    132 H132        2.3450  -14.4782  -50.0139 H         1 UNK         0.0800 
    133 H133        3.6490  -15.6264  -49.8449 H         1 UNK         0.0800 
    134 H134        3.4886  -16.3878  -53.5603 H         1 UNK         0.0800 
    135 H135        4.4309  -16.8232  -52.1555 H         1 UNK         0.0800 
    136 H136        0.9552  -15.3564  -52.0078 H         1 UNK         0.1150 
    137 H137       -0.7089  -18.9403  -50.3575 H         1 UNK         0.1150 
    138 H138        3.3450  -18.9082  -51.7084 H         1 UNK         0.1150 
    139 H139        0.4722  -21.0245  -50.5738 H         1 UNK         0.0800 
    140 H140        1.9498  -21.0706  -51.4940 H         1 UNK         0.0800 
    141 H141        0.5213  -19.6165  -48.2077 H         1 UNK         0.0800 
    142 H142        1.8266  -19.8389  -47.0906 H         1 UNK         0.0800 
    143 H143        1.2087  -22.4517  -47.3371 H         1 UNK         0.0600 
    144 H144        0.4796  -20.5313  -45.3798 H         1 UNK         0.3000 
    145 H145       -0.9258  -22.9106  -43.0847 H         1 UNK         0.0600 
    146 H146        0.7953  -21.9161  -41.6241 H         1 UNK         0.0600 
    147 H147        1.5540  -22.9986  -42.7803 H         1 UNK         0.0600 
    148 H148        1.6522  -21.2584  -43.0168 H         1 UNK         0.0600 
    149 H149       -0.5687  -20.1154  -42.8352 H         1 UNK         0.3000 
    150 H150       -3.6670  -19.1280  -44.3970 H         1 UNK         0.0600 
    151 H151       -4.1613  -19.7403  -42.0273 H         1 UNK         0.0600 
    152 H152       -3.8856  -18.0132  -42.1972 H         1 UNK         0.0600 
    153 H153       -2.6290  -19.0438  -41.5156 H         1 UNK         0.0600 
    154 H154       -1.6362  -17.5334  -43.2575 H         1 UNK         0.3000 
    155 H155        0.3828  -17.1230  -46.2080 H         1 UNK         0.0600 
    156 H156       -1.4048  -15.3000  -44.5087 H         1 UNK         0.0600 
    157 H157       -1.4649  -15.4629  -46.2597 H         1 UNK         0.0600 
    158 H158       -0.0415  -14.7778  -45.4904 H         1 UNK         0.0600 
    159 H159        0.7571  -16.1901  -43.5461 H         1 UNK         0.3000 
    160 H160        2.6505  -18.9804  -42.3277 H         1 UNK         0.0600 
    161 H161        4.1912  -17.0872  -41.8272 H         1 UNK         0.0600 
    162 H162        3.3795  -16.0856  -43.0293 H         1 UNK         0.0600 
    163 H163        4.2519  -17.5251  -43.5268 H         1 UNK         0.0600 
    164 H164        1.7154  -16.5051  -41.1774 H         1 UNK         0.3000 
    165 H165       -1.2866  -17.8335  -39.7830 H         1 UNK         0.0600 
    166 H166       -0.2166  -17.1223  -37.6625 H         1 UNK         0.0600 
    167 H167        0.4950  -18.6281  -38.2196 H         1 UNK         0.0600 
    168 H168        1.3717  -17.1169  -38.4300 H         1 UNK         0.0600 
    169 H169        0.0323  -15.3208  -39.4825 H         1 UNK         0.3000 
    170 H170       -1.2654  -13.7015  -42.3605 H         1 UNK         0.0600 
    171 H171       -3.1280  -13.5792  -40.6989 H         1 UNK         0.0600 
    172 H172       -1.9680  -13.3729  -39.3918 H         1 UNK         0.0600 
    173 H173       -2.1280  -12.1367  -40.6401 H         1 UNK         0.0600 
    174 H174        0.3212  -12.7812  -40.1737 H         1 UNK         0.3000 
    175 H175        2.5324  -12.1358  -40.7300 H         1 UNK         0.0600 
    176 H176        3.4143  -15.0647  -40.3122 H         1 UNK         0.0600 
    177 H177        4.1833  -13.6582  -39.5838 H         1 UNK         0.0600 
    178 H178        2.5421  -14.0898  -39.1336 H         1 UNK         0.0600 
    179 H179        3.3547  -13.7110  -42.9807 H         1 UNK         0.3000 
    180 H180        5.6317  -11.2734  -44.0088 H         1 UNK         0.0600 
    181 H181        6.2434  -14.2540  -43.6016 H         1 UNK         0.0600 
    182 H182        7.2531  -12.9209  -43.0532 H         1 UNK         0.0600 
    183 H183        7.0218  -13.1905  -44.7739 H         1 UNK         0.0600 
    184 H184        4.5527  -13.5876  -45.2989 H         1 UNK         0.3000 
    185 H185        2.1742  -13.7813  -45.7889 H         1 UNK         0.0600 
    186 H186        0.4554  -12.0643  -45.2603 H         1 UNK         0.0600 
    187 H187        0.9813  -11.0852  -46.6263 H         1 UNK         0.0600 
    188 H188        0.2574  -12.6692  -46.8969 H         1 UNK         0.0600 
    189 H189        2.5243  -12.1633  -48.1741 H         1 UNK         0.3000 
    190 H190       -1.8022  -20.5587  -46.8896 H         1 UNK         0.3000 
    191 H191       -3.1810  -21.5750  -49.1649 H         1 UNK         0.0600 
    192 H192       -4.2892  -20.5012  -46.5223 H         1 UNK         0.0600 
    193 H193       -5.2066  -20.7185  -48.0079 H         1 UNK         0.0600 
    194 H194       -3.9015  -19.5424  -47.9488 H         1 UNK         0.0600 
    195 H195       -2.9968  -22.7819  -45.7914 H         1 UNK         0.3000 
    196 H196       -4.7361  -25.0051  -46.1283 H         1 UNK         0.0600 
    197 H197       -2.4158  -24.6083  -44.1674 H         1 UNK         0.0600 
    198 H198       -3.6869  -25.8145  -44.0209 H         1 UNK         0.0600 
    199 H199       -4.0849  -24.1065  -43.9088 H         1 UNK         0.0600 
    200 H200       -1.1987  -24.6820  -46.6293 H         1 UNK         0.3000 
    201 H201       -0.6946  -27.4087  -47.2888 H         1 UNK         0.0600 
    202 H202        0.8336  -24.8723  -48.0778 H         1 UNK         0.0600 
    203 H203        1.4453  -26.5162  -48.1988 H         1 UNK         0.0600 
    204 H204        1.0945  -25.8281  -46.6207 H         1 UNK         0.0600 
    205 H205       -1.5772  -24.5846  -49.3157 H         1 UNK         0.3000 
    206 H206       -1.5586  -25.9552  -51.8320 H         1 UNK         0.0600 
    207 H207       -1.4785  -23.4711  -51.5961 H         1 UNK         0.0600 
    208 H208       -2.8180  -23.9670  -52.6150 H         1 UNK         0.0600 
    209 H209       -3.1217  -23.4674  -50.9571 H         1 UNK         0.0600 
    210 H210       -3.9533  -25.6253  -49.2975 H         1 UNK         0.3000 
    211 H211       -5.6799  -26.7532  -48.6281 H         1 UNK         0.0600 
    212 H212       -5.1177  -28.7998  -50.8360 H         1 UNK         0.0600 
    213 H213       -6.1547  -29.0421  -49.4377 H         1 UNK         0.0600 
    214 H214       -4.4275  -28.8092  -49.2129 H         1 UNK         0.0600 
    215 H215       -5.7552  -26.4055  -52.1573 H         1 UNK         0.3000 
    216 H216       -8.6509  -26.3648  -52.3769 H         1 UNK         0.0600 
    217 H217       -8.1446  -25.7176  -54.7401 H         1 UNK         0.0600 
    218 H218       -7.1829  -27.0998  -54.2417 H         1 UNK         0.0600 
    219 H219       -6.4476  -25.5011  -54.3281 H         1 UNK         0.0600 
    220 H220       -6.3831  -24.0465  -51.3693 H         1 UNK         0.3000 
    221 H221       -6.3460  -21.9431  -50.7699 H         1 UNK         0.0600 
    222 H222       -9.3881  -21.8585  -51.1111 H         1 UNK         0.0600 
    223 H223       -8.5257  -22.3480  -49.6532 H         1 UNK         0.0600 
    224 H224       -8.4036  -20.6954  -50.2374 H         1 UNK         0.0600 
    225 H225       -8.4591  -22.2851  -53.6233 H         1 UNK         0.3000 
    226 H226       -7.8197  -19.7736  -54.8598 H         1 UNK         0.0600 
    227 H227       -9.8315  -21.1056  -55.4530 H         1 UNK         0.0600 
    228 H228       -8.8363  -20.8524  -56.8785 H         1 UNK         0.0600 
    229 H229       -8.8190  -22.4136  -56.0648 H         1 UNK         0.0600 
    230 H230       -6.1435  -22.8373  -54.7141 H         1 UNK         0.3000 
    231 H231       -4.2328  -22.3571  -56.8403 H         1 UNK         0.0600 
    232 H232       -4.7750  -24.6500  -56.1110 H         1 UNK         0.0600 
    233 H233       -4.2410  -24.3022  -54.4678 H         1 UNK         0.0600 
    234 H234       -3.0795  -24.3308  -55.7888 H         1 UNK         0.0600 
    235 H235       -4.5940  -21.1282  -53.6440 H         1 UNK         0.3000 
    236 H236       -1.7699  -20.1891  -53.4485 H         1 UNK         0.0600 
    237 H237       -4.0014  -20.5760  -51.3989 H         1 UNK         0.0600 
    238 H238       -2.3431  -21.1580  -51.3722 H         1 UNK         0.0600 
    239 H239       -2.6793  -19.4651  -51.1009 H         1 UNK         0.0600 
    240 H240       -4.4062  -18.4394  -52.0083 H         1 UNK         0.3000 
    241 H241       -4.3342  -16.3469  -54.1191 H         1 UNK         0.0600 
    242 H242       -7.8540  -17.3901  -52.7184 H         1 UNK         0.3800 
    243 H243       -6.4818  -18.4693  -52.7504 H         1 UNK         0.3800 
    244 H244       -4.1457  -14.5790  -52.3896 H         1 UNK         0.0800 
    245 H245       -3.9982  -15.7747  -51.1329 H         1 UNK         0.0800 
    246 H246       -1.2327  -15.5944  -50.1823 H         1 UNK         0.0800 
    247 H247       -2.0983  -17.0618  -50.5758 H         1 UNK         0.0800 
@<TRIPOS>BOND
     1    1    2 1    
     2    1  127 1    
     3    1  128 1    
     4    1  129 1    
     5    2    3 2    
     6    2    4 am   BACKBONE|DICT|INTERRES
     7    4    5 1    
     8    4  130 1    
     9    5    6 1    
    10    5   65 1    
    11    5  131 1    
    12    6    7 1    
    13    6  132 1    
    14    6  133 1    
    15    7    8 1    
    16    8    9 1    
    17    8  134 1    
    18    8  135 1    
    19    9   10 ar   
    20    9   14 ar   
    21   10   11 ar   
    22   10  136 1    
    23   11   12 ar   
    24   11  126 1    
    25   12   13 ar   
    26   12  137 1    
    27   13   14 ar   
    28   13   15 1    
    29   14  138 1    
    30   15   16 1    
    31   15  139 1    
    32   15  140 1    
    33   16   17 1    
    34   17   18 1    
    35   17  141 1    
    36   17  142 1    
    37   18   19 1    
    38   18   67 1    
    39   18  143 1    
    40   19   20 am   BACKBONE|DICT|INTERRES
    41   19  144 1    
    42   20   21 2    
    43   20   22 1    
    44   22   23 1    
    45   22   24 1    
    46   22  145 1    
    47   23  146 1    
    48   23  147 1    
    49   23  148 1    
    50   24   25 am   BACKBONE|DICT|INTERRES
    51   24  149 1    
    52   25   26 2    
    53   25   27 1    
    54   27   28 1    
    55   27   29 1    
    56   27  150 1    
    57   28  151 1    
    58   28  152 1    
    59   28  153 1    
    60   29   30 am   BACKBONE|DICT|INTERRES
    61   29  154 1    
    62   30   31 2    
    63   30   32 1    
    64   32   33 1    
    65   32   34 1    
    66   32  155 1    
    67   33  156 1    
    68   33  157 1    
    69   33  158 1    
    70   34   35 am   BACKBONE|DICT|INTERRES
    71   34  159 1    
    72   35   36 2    
    73   35   37 1    
    74   37   38 1    
    75   37   39 1    
    76   37  160 1    
    77   38  161 1    
    78   38  162 1    
    79   38  163 1    
    80   39   40 am   BACKBONE|DICT|INTERRES
    81   39  164 1    
    82   40   41 2    
    83   40   42 1    
    84   42   43 1    
    85   42   44 1    
    86   42  165 1    
    87   43  166 1    
    88   43  167 1    
    89   43  168 1    
    90   44   45 am   BACKBONE|DICT|INTERRES
    91   44  169 1    
    92   45   46 2    
    93   45   47 1    
    94   47   48 1    
    95   47   49 1    
    96   47  170 1    
    97   48  171 1    
    98   48  172 1    
    99   48  173 1    
   100   49   50 am   BACKBONE|DICT|INTERRES
   101   49  174 1    
   102   50   51 2    
   103   50   52 1    
   104   52   53 1    
   105   52   54 1    
   106   52  175 1    
   107   53  176 1    
   108   53  177 1    
   109   53  178 1    
   110   54   55 am   BACKBONE|DICT|INTERRES
   111   54  179 1    
   112   55   56 2    
   113   55   57 1    
   114   57   58 1    
   115   57   59 1    
   116   57  180 1    
   117   58  181 1    
   118   58  182 1    
   119   58  183 1    
   120   59   60 am   BACKBONE|DICT|INTERRES
   121   59  184 1    
   122   60   61 2    
   123   60   62 1    
   124   62   63 1    
   125   62   64 1    
   126   62  185 1    
   127   63  186 1    
   128   63  187 1    
   129   63  188 1    
   130   64   65 am   BACKBONE|DICT|INTERRES
   131   64  189 1    
   132   65   66 2    
   133   67   68 2    
   134   67   69 am   BACKBONE|DICT|INTERRES
   135   69   70 1    
   136   69  190 1    
   137   70   71 1    
   138   70   72 1    
   139   70  191 1    
   140   71  192 1    
   141   71  193 1    
   142   71  194 1    
   143   72   73 2    
   144   72   74 am   BACKBONE|DICT|INTERRES
   145   74   75 1    
   146   74  195 1    
   147   75   76 1    
   148   75   77 1    
   149   75  196 1    
   150   76  197 1    
   151   76  198 1    
   152   76  199 1    
   153   77   78 2    
   154   77   79 am   BACKBONE|DICT|INTERRES
   155   79   80 1    
   156   79  200 1    
   157   80   81 1    
   158   80   82 1    
   159   80  201 1    
   160   81  202 1    
   161   81  203 1    
   162   81  204 1    
   163   82   83 2    
   164   82   84 am   BACKBONE|DICT|INTERRES
   165   84   85 1    
   166   84  205 1    
   167   85   86 1    
   168   85   87 1    
   169   85  206 1    
   170   86  207 1    
   171   86  208 1    
   172   86  209 1    
   173   87   88 2    
   174   87   89 am   BACKBONE|DICT|INTERRES
   175   89   90 1    
   176   89  210 1    
   177   90   91 1    
   178   90   92 1    
   179   90  211 1    
   180   91  212 1    
   181   91  213 1    
   182   91  214 1    
   183   92   93 2    
   184   92   94 am   BACKBONE|DICT|INTERRES
   185   94   95 1    
   186   94  215 1    
   187   95   96 1    
   188   95   97 1    
   189   95  216 1    
   190   96  217 1    
   191   96  218 1    
   192   96  219 1    
   193   97   98 2    
   194   97   99 am   BACKBONE|DICT|INTERRES
   195   99  100 1    
   196   99  220 1    
   197  100  101 1    
   198  100  102 1    
   199  100  221 1    
   200  101  222 1    
   201  101  223 1    
   202  101  224 1    
   203  102  103 2    
   204  102  104 am   BACKBONE|DICT|INTERRES
   205  104  105 1    
   206  104  225 1    
   207  105  106 1    
   208  105  107 1    
   209  105  226 1    
   210  106  227 1    
   211  106  228 1    
   212  106  229 1    
   213  107  108 2    
   214  107  109 am   BACKBONE|DICT|INTERRES
   215  109  110 1    
   216  109  230 1    
   217  110  111 1    
   218  110  112 1    
   219  110  231 1    
   220  111  232 1    
   221  111  233 1    
   222  111  234 1    
   223  112  113 2    
   224  112  114 am   BACKBONE|DICT|INTERRES
   225  114  115 1    
   226  114  235 1    
   227  115  116 1    
   228  115  117 1    
   229  115  236 1    
   230  116  237 1    
   231  116  238 1    
   232  116  239 1    
   233  117  118 2    
   234  117  119 am   BACKBONE|DICT|INTERRES
   235  119  120 1    
   236  119  240 1    
   237  120  121 1    
   238  120  124 1    
   239  120  241 1    
   240  121  122 am   BACKBONE|DICT|INTERRES
   241  121  123 2    
   242  122  242 1    
   243  122  243 1    
   244  124  125 1    
   245  124  244 1    
   246  124  245 1    
   247  125  126 1    
   248  126  246 1    
   249  126  247 1    
@<TRIPOS>SUBSTRUCTURE
     1 UNK         1 GROUP             0       ****    0 ROOT    
