@<TRIPOS>MOLECULE
3R540
247   249    1
SMALL
USER_CHARGES


@<TRIPOS>ATOM
      1 CA         -2.5792  -12.4955  -45.4138 C.3       0 UNK        -0.1800 
      2 C          -1.7600  -12.8425  -46.6492 C.2       0 UNK         0.5000 
      3 O          -0.8132  -12.1284  -46.9787 O.2       0 UNK        -0.5000 
      4 N          -2.1437  -13.9176  -47.3463 N.am      1 UNK        -0.5000 
      5 CA         -1.4958  -14.4039  -48.5688 C.3       1 UNK         0.1400 
      6 C6         -2.3931  -15.4052  -49.3370 C.3       23 UNK        -0.0398 
      7 S7         -4.0006  -14.6833  -49.8088 S.3       23 UNK        -0.2404 
      8 C8         -5.1730  -15.7614  -48.9295 C.3       23 UNK        -0.0205 
      9 C9         -5.3340  -17.1153  -49.6067 C.ar      23 UNK        -0.0193 
     10 C10        -6.0560  -17.2204  -50.7979 C.ar      23 UNK        -0.1150 
     11 C11        -6.2701  -18.4610  -51.4079 C.ar      23 UNK        -0.0193 
     12 C12        -5.7469  -19.6121  -50.8016 C.ar      23 UNK        -0.1150 
     13 C13        -5.0144  -19.5190  -49.6134 C.ar      23 UNK        -0.0193 
     14 C14        -4.8061  -18.2690  -49.0246 C.ar      23 UNK        -0.1150 
     15 C15        -4.4660  -20.7673  -48.9443 C.3       23 UNK        -0.0205 
     16 S16        -5.5934  -21.3478  -47.6408 S.3       23 UNK        -0.2404 
     17 C17        -4.6362  -22.7215  -46.9120 C.3       23 UNK        -0.0398 
     18 CA         -3.5186  -22.2452  -45.9440 C.3       11 UNK         0.1400 
     19 N          -3.9632  -21.2827  -44.9347 N.am      11 UNK        -0.5000 
     20 C          -4.8735  -21.4556  -43.9669 C.2       10 UNK         0.5000 
     21 O          -5.4766  -22.5118  -43.7759 O.2       10 UNK        -0.5000 
     22 CA         -5.1400  -20.2461  -43.0439 C.3       10 UNK         0.1400 
     23 CB         -4.7967  -20.5863  -41.5839 C.3       10 UNK        -0.1800 
     24 N          -4.3657  -19.0672  -43.4436 N.am      10 UNK        -0.5000 
     25 C          -4.7549  -18.1573  -44.3484 C.2       9 UNK         0.5000 
     26 O          -5.8754  -18.1316  -44.8559 O.2       9 UNK        -0.5000 
     27 CA         -3.6979  -17.1227  -44.7863 C.3       9 UNK         0.1400 
     28 CB         -3.8444  -15.8340  -43.9679 C.3       9 UNK        -0.1800 
     29 N          -2.3235  -17.6308  -44.6793 N.am      9 UNK        -0.5000 
     30 C          -1.8314  -18.5949  -45.4736 C.2       8 UNK         0.5000 
     31 O          -2.4621  -19.0732  -46.4136 O.2       8 UNK        -0.5000 
     32 CA         -0.4646  -19.2109  -45.1260 C.3       8 UNK         0.1400 
     33 CB          0.6563  -18.6460  -46.0022 C.3       8 UNK        -0.1800 
     34 N          -0.1059  -19.0830  -43.7150 N.am      8 UNK        -0.5000 
     35 C          -0.6638  -19.7967  -42.7296 C.2       7 UNK         0.5000 
     36 O          -1.5372  -20.6402  -42.9340 O.2       7 UNK        -0.5000 
     37 CA         -0.1819  -19.5379  -41.2933 C.3       7 UNK         0.1400 
     38 CB          0.9898  -20.4625  -40.9356 C.3       7 UNK        -0.1800 
     39 N           0.2406  -18.1506  -41.1033 N.am      7 UNK        -0.5000 
     40 C          -0.3269  -17.2863  -40.2522 C.2       6 UNK         0.5000 
     41 O          -1.2626  -17.5741  -39.5047 O.2       6 UNK        -0.5000 
     42 CA          0.2381  -15.8500  -40.2238 C.3       6 UNK         0.1400 
     43 CB          1.2526  -15.6978  -39.0801 C.3       6 UNK        -0.1800 
     44 N           0.8683  -15.4194  -41.4746 N.am      6 UNK        -0.5000 
     45 C           0.2433  -15.3190  -42.6552 C.2       5 UNK         0.5000 
     46 O          -0.9407  -15.6017  -42.8277 O.2       5 UNK        -0.5000 
     47 CA          1.0909  -14.8736  -43.8588 C.3       5 UNK         0.1400 
     48 CB          1.1406  -13.3404  -43.9354 C.3       5 UNK        -0.1800 
     49 N           2.4621  -15.3915  -43.9098 N.am      5 UNK        -0.5000 
     50 C           2.8744  -16.6535  -43.7246 C.2       4 UNK         0.5000 
     51 O           2.1569  -17.5493  -43.2758 O.2       4 UNK        -0.5000 
     52 CA          4.3240  -16.9691  -44.1489 C.3       4 UNK         0.1400 
     53 CB          4.5822  -18.4830  -44.2619 C.3       4 UNK        -0.1800 
     54 N           4.6575  -16.3404  -45.4308 N.am      4 UNK        -0.5000 
     55 C           5.1232  -15.0943  -45.5889 C.2       3 UNK         0.5000 
     56 O           5.3249  -14.3211  -44.6525 O.2       3 UNK        -0.5000 
     57 CA          5.3631  -14.6213  -47.0342 C.3       3 UNK         0.1400 
     58 CB          6.7660  -15.0302  -47.5086 C.3       3 UNK        -0.1800 
     59 N           4.3650  -15.1336  -47.9777 N.am      3 UNK        -0.5000 
     60 C           3.0890  -14.7250  -48.0311 C.2       2 UNK         0.5000 
     61 O           2.6283  -13.8568  -47.2878 O.2       2 UNK        -0.5000 
     62 CA          2.2188  -15.3687  -49.1348 C.3       2 UNK         0.1400 
     63 CB          2.2527  -16.9113  -49.0695 C.3       2 UNK        -0.1800 
     64 N           0.8352  -14.8708  -49.1724 N.am      2 UNK        -0.5000 
     65 C          -0.1289  -15.0474  -48.2556 C.2       1 UNK         0.5000 
     66 O          -0.0012  -15.7176  -47.2313 O.2       1 UNK        -0.5000 
     67 C          -2.6910  -23.4088  -45.3545 C.2       11 UNK         0.5000 
     68 O          -2.5301  -24.4327  -46.0179 O.2       11 UNK        -0.5000 
     69 N          -2.1471  -23.2289  -44.1420 N.am      12 UNK        -0.5000 
     70 CA         -1.3344  -24.2267  -43.4462 C.3       12 UNK         0.1400 
     71 CB         -1.4201  -23.9835  -41.9316 C.3       12 UNK        -0.1800 
     72 C           0.1281  -24.2144  -43.9234 C.2       12 UNK         0.5000 
     73 O           0.7276  -25.2802  -44.0650 O.2       12 UNK        -0.5000 
     74 N           0.6649  -23.0126  -44.1766 N.am      13 UNK        -0.5000 
     75 CA          2.0314  -22.7915  -44.6675 C.3       13 UNK         0.1400 
     76 CB          2.7033  -21.7108  -43.8058 C.3       13 UNK        -0.1800 
     77 C           2.0688  -22.4014  -46.1577 C.2       13 UNK         0.5000 
     78 O           3.1486  -22.1353  -46.6867 O.2       13 UNK        -0.5000 
     79 N           0.8996  -22.3542  -46.8083 N.am      14 UNK        -0.5000 
     80 CA          0.7533  -22.0543  -48.2301 C.3       14 UNK         0.1400 
     81 CB         -0.7094  -21.6809  -48.4960 C.3       14 UNK        -0.1800 
     82 C           1.1941  -23.2513  -49.0937 C.2       14 UNK         0.5000 
     83 O           0.9482  -24.3989  -48.7123 O.2       14 UNK        -0.5000 
     84 N           1.8263  -22.9628  -50.2384 N.am      15 UNK        -0.5000 
     85 CA          2.3907  -23.9346  -51.1785 C.3       15 UNK         0.1400 
     86 CB          3.1327  -23.1776  -52.2921 C.3       15 UNK        -0.1800 
     87 C           1.3154  -24.8708  -51.7593 C.2       15 UNK         0.5000 
     88 O           0.5101  -24.4382  -52.5833 O.2       15 UNK        -0.5000 
     89 N           1.2898  -26.1197  -51.2717 N.am      16 UNK        -0.5000 
     90 CA          0.2738  -27.1449  -51.5485 C.3       16 UNK         0.1400 
     91 CB          0.3582  -27.6198  -53.0147 C.3       16 UNK        -0.1800 
     92 C          -1.1506  -26.7040  -51.1373 C.2       16 UNK         0.5000 
     93 O          -2.1270  -27.0899  -51.7820 O.2       16 UNK        -0.5000 
     94 N          -1.2291  -25.8913  -50.0714 N.am      17 UNK        -0.5000 
     95 CA         -2.4295  -25.2602  -49.5184 C.3       17 UNK         0.1400 
     96 CB         -3.4078  -26.3145  -48.9590 C.3       17 UNK        -0.1800 
     97 C          -3.0997  -24.2573  -50.4845 C.2       17 UNK         0.5000 
     98 O          -4.3220  -24.1096  -50.4573 O.2       17 UNK        -0.5000 
     99 N          -2.2961  -23.5691  -51.3058 N.am      18 UNK        -0.5000 
    100 CA        -2.7334  -22.5392  -52.2436 C.3       18 UNK         0.1400 
    101 CB        -2.8194  -23.1485  -53.6500 C.3       18 UNK        -0.1800 
    102 C         -1.7413  -21.3680  -52.2142 C.2       18 UNK         0.5000 
    103 O         -0.5357  -21.5900  -52.0907 O.2       18 UNK        -0.5000 
    104 N         -2.2548  -20.1408  -52.3291 N.am      19 UNK        -0.5000 
    105 CA        -1.4761  -18.9086  -52.3651 C.3       19 UNK         0.1400 
    106 CB        -1.1129  -18.4768  -50.9326 C.3       19 UNK        -0.1800 
    107 C         -2.2933  -17.8255  -53.0815 C.2       19 UNK         0.5000 
    108 O         -3.5199  -17.9344  -53.1533 O.2       19 UNK        -0.5000 
    109 N         -1.5981  -16.7989  -53.5910 N.am      20 UNK        -0.5000 
    110 CA        -2.1456  -15.6266  -54.2834 C.3       20 UNK         0.1400 
    111 CB        -2.8029  -14.6740  -53.2606 C.3       20 UNK        -0.1800 
    112 C         -3.0690  -16.0226  -55.4570 C.2       20 UNK         0.5000 
    113 O         -2.6077  -16.6888  -56.3860 O.2       20 UNK        -0.5000 
    114 N         -4.3536  -15.6481  -55.3796 N.am      21 UNK        -0.5000 
    115 CA        -5.3995  -15.9470  -56.3615 C.3       21 UNK         0.1400 
    116 CB        -6.6876  -15.2206  -55.9442 C.3       21 UNK        -0.1800 
    117 C         -5.6753  -17.4511  -56.5659 C.2       21 UNK         0.5000 
    118 O         -6.1788  -17.8284  -57.6250 O.2       21 UNK        -0.5000 
    119 N         -5.3341  -18.2784  -55.5699 N.am      22 UNK        -0.5000 
    120 CA        -5.3929  -19.7445  -55.6483 C.3       22 UNK         0.1400 
    121 C         -4.1655  -20.3714  -56.3751 C.2       22 UNK         0.5000 
    122 N         -3.1143  -19.6265  -56.7016 N.am      22 UNK        -0.7600 
    123 O         -4.1759  -21.5627  -56.6698 O.2       22 UNK        -0.5000 
    124 C124       -5.6090  -20.3827  -54.2500 C.3       23 UNK        -0.0398 
    125 S125       -7.2733  -20.0818  -53.5624 S.3       23 UNK        -0.2404 
    126 C126       -7.0980  -18.4803  -52.6950 C.3       23 UNK        -0.0205 
    127 H127       -3.5815  -12.9213  -45.4672 H         1 UNK         0.0600 
    128 H128       -2.6807  -11.4145  -45.3176 H         1 UNK         0.0600 
    129 H129       -2.0932  -12.8742  -44.5156 H         1 UNK         0.0600 
    130 H130       -2.9198  -14.4702  -47.0176 H         1 UNK         0.3000 
    131 H131       -1.3243  -13.5405  -49.2157 H         1 UNK         0.0600 
    132 H132       -2.5478  -16.3132  -48.7511 H         1 UNK         0.0800 
    133 H133       -1.9050  -15.7167  -50.2607 H         1 UNK         0.0800 
    134 H134       -6.1442  -15.2656  -48.8986 H         1 UNK         0.0800 
    135 H135       -4.8616  -15.8771  -47.8908 H         1 UNK         0.0800 
    136 H136       -6.4649  -16.3262  -51.2472 H         1 UNK         0.1150 
    137 H137       -5.9166  -20.5864  -51.2348 H         1 UNK         0.1150 
    138 H138       -4.2556  -18.2023  -48.0971 H         1 UNK         0.1150 
    139 H139       -4.3193  -21.5584  -49.6778 H         1 UNK         0.0800 
    140 H140       -3.4866  -20.5477  -48.5192 H         1 UNK         0.0800 
    141 H141       -4.2179  -23.3146  -47.7256 H         1 UNK         0.0800 
    142 H142       -5.3343  -23.3772  -46.3896 H         1 UNK         0.0800 
    143 H143       -2.8029  -21.6897  -46.5452 H         1 UNK         0.0600 
    144 H144       -3.5606  -20.3609  -45.0320 H         1 UNK         0.3000 
    145 H145       -6.2065  -20.0193  -43.0999 H         1 UNK         0.0600 
    146 H146       -4.9937  -19.7405  -40.9250 H         1 UNK         0.0600 
    147 H147       -5.3986  -21.4222  -41.2253 H         1 UNK         0.0600 
    148 H148       -3.7494  -20.8654  -41.4671 H         1 UNK         0.0600 
    149 H149       -3.4213  -19.0186  -43.0883 H         1 UNK         0.3000 
    150 H150       -3.8877  -16.8803  -45.8337 H         1 UNK         0.0600 
    151 H151       -4.8425  -15.4087  -44.0797 H         1 UNK         0.0600 
    152 H152       -3.1307  -15.0811  -44.2970 H         1 UNK         0.0600 
    153 H153       -3.6781  -16.0113  -42.9046 H         1 UNK         0.0600 
    154 H154       -1.7472  -17.2394  -43.9425 H         1 UNK         0.3000 
    155 H155       -0.5416  -20.2751  -45.3560 H         1 UNK         0.0600 
    156 H156        0.8697  -17.6078  -45.7541 H         1 UNK         0.0600 
    157 H157        0.3843  -18.6884  -47.0576 H         1 UNK         0.0600 
    158 H158        1.5778  -19.2144  -45.8798 H         1 UNK         0.0600 
    159 H159        0.6557  -18.4419  -43.5015 H         1 UNK         0.3000 
    160 H160       -1.0187  -19.7849  -40.6369 H         1 UNK         0.0600 
    161 H161        1.8981  -20.1783  -41.4671 H         1 UNK         0.0600 
    162 H162        0.7699  -21.5024  -41.1784 H         1 UNK         0.0600 
    163 H163        1.2068  -20.4176  -39.8684 H         1 UNK         0.0600 
    164 H164        0.9950  -17.8204  -41.6969 H         1 UNK         0.3000 
    165 H165       -0.5998  -15.1773  -40.0296 H         1 UNK         0.0600 
    166 H166        1.5903  -14.6656  -38.9859 H         1 UNK         0.0600 
    167 H167        0.8104  -15.9817  -38.1241 H         1 UNK         0.0600 
    168 H168        2.1299  -16.3269  -39.2358 H         1 UNK         0.0600 
    169 H169        1.8512  -15.1937  -41.4344 H         1 UNK         0.3000 
    170 H170        0.5826  -15.2392  -44.7513 H         1 UNK         0.0600 
    171 H171        0.1438  -12.9064  -43.8629 H         1 UNK         0.0600 
    172 H172        1.7404  -12.9171  -43.1290 H         1 UNK         0.0600 
    173 H173        1.5666  -13.0079  -44.8821 H         1 UNK         0.0600 
    174 H174        3.1547  -14.7421  -44.2590 H         1 UNK         0.3000 
    175 H175        4.9795  -16.5768  -43.3689 H         1 UNK         0.0600 
    176 H176        3.9379  -18.9474  -45.0093 H         1 UNK         0.0600 
    177 H177        5.6166  -18.6868  -44.5387 H         1 UNK         0.0600 
    178 H178        4.3987  -18.9858  -43.3114 H         1 UNK         0.0600 
    179 H179        4.4771  -16.8890  -46.2583 H         1 UNK         0.3000 
    180 H180        5.3098  -13.5304  -47.0385 H         1 UNK         0.0600 
    181 H181        6.8796  -16.1142  -47.5486 H         1 UNK         0.0600 
    182 H182        7.5331  -14.6446  -46.8356 H         1 UNK         0.0600 
    183 H183        6.9780  -14.6329  -48.5014 H         1 UNK         0.0600 
    184 H184        4.6854  -15.8285  -48.6364 H         1 UNK         0.3000 
    185 H185        2.6606  -15.0689  -50.0862 H         1 UNK         0.0600 
    186 H186        3.2427  -17.2977  -49.3119 H         1 UNK         0.0600 
    187 H187        1.9991  -17.2761  -48.0756 H         1 UNK         0.0600 
    188 H188        1.5565  -17.3564  -49.7791 H         1 UNK         0.0600 
    189 H189        0.6292  -14.2742  -49.9610 H         1 UNK         0.3000 
    190 H190       -2.2776  -22.3393  -43.6699 H         1 UNK         0.3000 
    191 H191       -1.7429  -25.2196  -43.6473 H         1 UNK         0.0600 
    192 H192       -2.4492  -24.0606  -41.5802 H         1 UNK         0.0600 
    193 H193       -1.0485  -22.9971  -41.6559 H         1 UNK         0.0600 
    194 H194       -0.8328  -24.7212  -41.3834 H         1 UNK         0.0600 
    195 H195        0.0990  -22.1926  -44.0125 H         1 UNK         0.3000 
    196 H196        2.6216  -23.7048  -44.5705 H         1 UNK         0.0600 
    197 H197        3.7331  -21.5389  -44.1211 H         1 UNK         0.0600 
    198 H198        2.7391  -22.0149  -42.7603 H         1 UNK         0.0600 
    199 H199        2.1802  -20.7569  -43.8692 H         1 UNK         0.0600 
    200 H200        0.0808  -22.6897  -46.3268 H         1 UNK         0.3000 
    201 H201        1.3786  -21.1916  -48.4712 H         1 UNK         0.0600 
    202 H202       -1.0041  -20.8111  -47.9104 H         1 UNK         0.0600 
    203 H203       -1.3863  -22.4999  -48.2595 H         1 UNK         0.0600 
    204 H204       -0.8616  -21.4222  -49.5393 H         1 UNK         0.0600 
    205 H205        1.9137  -21.9948  -50.5113 H         1 UNK         0.3000 
    206 H206        3.1238  -24.5361  -50.6373 H         1 UNK         0.0600 
    207 H207        3.9508  -22.5815  -51.8875 H         1 UNK         0.0600 
    208 H208        3.5628  -23.8712  -53.0158 H         1 UNK         0.0600 
    209 H209        2.4655  -22.5071  -52.8359 H         1 UNK         0.0600 
    210 H210        1.9708  -26.3676  -50.5670 H         1 UNK         0.3000 
    211 H211        0.5189  -27.9971  -50.9132 H         1 UNK         0.0600 
    212 H212        0.0535  -26.8394  -53.7125 H         1 UNK         0.0600 
    213 H213       -0.2900  -28.4801  -53.1849 H         1 UNK         0.0600 
    214 H214        1.3725  -27.9238  -53.2730 H         1 UNK         0.0600 
    215 H215       -0.3598  -25.6129  -49.6248 H         1 UNK         0.3000 
    216 H216       -2.0816  -24.6705  -48.6714 H         1 UNK         0.0600 
    217 H217       -4.2165  -25.8396  -48.4023 H         1 UNK         0.0600 
    218 H218       -2.9030  -26.9940  -48.2724 H         1 UNK         0.0600 
    219 H219       -3.8626  -26.9099  -49.7508 H         1 UNK         0.0600 
    220 H220       -1.2974  -23.7422  -51.3083 H         1 UNK         0.3000 
    221 H221       -3.7179  -22.1598  -51.9629 H         1 UNK         0.0600 
    222 H222       -1.8682  -23.5867  -53.9552 H         1 UNK         0.0600 
    223 H223       -3.5783  -23.9296  -53.6959 H         1 UNK         0.0600 
    224 H224       -3.0816  -22.3917  -54.3875 H         1 UNK         0.0600 
    225 H225       -3.2484  -19.9928  -52.4455 H         1 UNK         0.3000 
    226 H226       -0.5622  -19.0767  -52.9390 H         1 UNK         0.0600 
    227 H227       -0.4766  -19.2139  -50.4440 H         1 UNK         0.0600 
    228 H228       -0.5638  -17.5356  -50.9354 H         1 UNK         0.0600 
    229 H229       -2.0034  -18.3432  -50.3171 H         1 UNK         0.0600 
    230 H230       -0.5909  -16.8213  -53.5192 H         1 UNK         0.3000 
    231 H231       -1.2990  -15.1015  -54.7279 H         1 UNK         0.0600 
    232 H232       -3.6519  -15.1383  -52.7575 H         1 UNK         0.0600 
    233 H233       -3.1535  -13.7581  -53.7378 H         1 UNK         0.0600 
    234 H234       -2.0894  -14.3772  -52.4920 H         1 UNK         0.0600 
    235 H235       -4.6452  -15.1336  -54.5615 H         1 UNK         0.3000 
    236 H236       -5.0737  -15.5443  -57.3226 H         1 UNK         0.0600 
    237 H237       -7.4861  -15.3927  -56.6673 H         1 UNK         0.0600 
    238 H238       -7.0454  -15.5640  -54.9726 H         1 UNK         0.0600 
    239 H239       -6.5328  -14.1432  -55.8847 H         1 UNK         0.0600 
    240 H240       -4.8818  -17.8993  -54.7449 H         1 UNK         0.3000 
    241 H241       -6.2552  -20.0164  -56.2601 H         1 UNK         0.0600 
    242 H242       -2.3422  -20.0565  -57.1849 H         1 UNK         0.3800 
    243 H243       -3.0881  -18.6305  -56.5115 H         1 UNK         0.3800 
    244 H244       -5.5000  -21.4671  -54.3066 H         1 UNK         0.0800 
    245 H245       -4.8538  -20.0467  -53.5442 H         1 UNK         0.0800 
    246 H246       -6.6971  -17.7389  -53.3847 H         1 UNK         0.0800 
    247 H247       -8.1031  -18.1384  -52.4449 H         1 UNK         0.0800 
@<TRIPOS>BOND
     1    1    2 1    
     2    1  127 1    
     3    1  128 1    
     4    1  129 1    
     5    2    3 2    
     6    2    4 am   BACKBONE|DICT|INTERRES
     7    4    5 1    
     8    4  130 1    
     9    5    6 1    
    10    5   65 1    
    11    5  131 1    
    12    6    7 1    
    13    6  132 1    
    14    6  133 1    
    15    7    8 1    
    16    8    9 1    
    17    8  134 1    
    18    8  135 1    
    19    9   10 ar   
    20    9   14 ar   
    21   10   11 ar   
    22   10  136 1    
    23   11   12 ar   
    24   11  126 1    
    25   12   13 ar   
    26   12  137 1    
    27   13   14 ar   
    28   13   15 1    
    29   14  138 1    
    30   15   16 1    
    31   15  139 1    
    32   15  140 1    
    33   16   17 1    
    34   17   18 1    
    35   17  141 1    
    36   17  142 1    
    37   18   19 1    
    38   18   67 1    
    39   18  143 1    
    40   19   20 am   BACKBONE|DICT|INTERRES
    41   19  144 1    
    42   20   21 2    
    43   20   22 1    
    44   22   23 1    
    45   22   24 1    
    46   22  145 1    
    47   23  146 1    
    48   23  147 1    
    49   23  148 1    
    50   24   25 am   BACKBONE|DICT|INTERRES
    51   24  149 1    
    52   25   26 2    
    53   25   27 1    
    54   27   28 1    
    55   27   29 1    
    56   27  150 1    
    57   28  151 1    
    58   28  152 1    
    59   28  153 1    
    60   29   30 am   BACKBONE|DICT|INTERRES
    61   29  154 1    
    62   30   31 2    
    63   30   32 1    
    64   32   33 1    
    65   32   34 1    
    66   32  155 1    
    67   33  156 1    
    68   33  157 1    
    69   33  158 1    
    70   34   35 am   BACKBONE|DICT|INTERRES
    71   34  159 1    
    72   35   36 2    
    73   35   37 1    
    74   37   38 1    
    75   37   39 1    
    76   37  160 1    
    77   38  161 1    
    78   38  162 1    
    79   38  163 1    
    80   39   40 am   BACKBONE|DICT|INTERRES
    81   39  164 1    
    82   40   41 2    
    83   40   42 1    
    84   42   43 1    
    85   42   44 1    
    86   42  165 1    
    87   43  166 1    
    88   43  167 1    
    89   43  168 1    
    90   44   45 am   BACKBONE|DICT|INTERRES
    91   44  169 1    
    92   45   46 2    
    93   45   47 1    
    94   47   48 1    
    95   47   49 1    
    96   47  170 1    
    97   48  171 1    
    98   48  172 1    
    99   48  173 1    
   100   49   50 am   BACKBONE|DICT|INTERRES
   101   49  174 1    
   102   50   51 2    
   103   50   52 1    
   104   52   53 1    
   105   52   54 1    
   106   52  175 1    
   107   53  176 1    
   108   53  177 1    
   109   53  178 1    
   110   54   55 am   BACKBONE|DICT|INTERRES
   111   54  179 1    
   112   55   56 2    
   113   55   57 1    
   114   57   58 1    
   115   57   59 1    
   116   57  180 1    
   117   58  181 1    
   118   58  182 1    
   119   58  183 1    
   120   59   60 am   BACKBONE|DICT|INTERRES
   121   59  184 1    
   122   60   61 2    
   123   60   62 1    
   124   62   63 1    
   125   62   64 1    
   126   62  185 1    
   127   63  186 1    
   128   63  187 1    
   129   63  188 1    
   130   64   65 am   BACKBONE|DICT|INTERRES
   131   64  189 1    
   132   65   66 2    
   133   67   68 2    
   134   67   69 am   BACKBONE|DICT|INTERRES
   135   69   70 1    
   136   69  190 1    
   137   70   71 1    
   138   70   72 1    
   139   70  191 1    
   140   71  192 1    
   141   71  193 1    
   142   71  194 1    
   143   72   73 2    
   144   72   74 am   BACKBONE|DICT|INTERRES
   145   74   75 1    
   146   74  195 1    
   147   75   76 1    
   148   75   77 1    
   149   75  196 1    
   150   76  197 1    
   151   76  198 1    
   152   76  199 1    
   153   77   78 2    
   154   77   79 am   BACKBONE|DICT|INTERRES
   155   79   80 1    
   156   79  200 1    
   157   80   81 1    
   158   80   82 1    
   159   80  201 1    
   160   81  202 1    
   161   81  203 1    
   162   81  204 1    
   163   82   83 2    
   164   82   84 am   BACKBONE|DICT|INTERRES
   165   84   85 1    
   166   84  205 1    
   167   85   86 1    
   168   85   87 1    
   169   85  206 1    
   170   86  207 1    
   171   86  208 1    
   172   86  209 1    
   173   87   88 2    
   174   87   89 am   BACKBONE|DICT|INTERRES
   175   89   90 1    
   176   89  210 1    
   177   90   91 1    
   178   90   92 1    
   179   90  211 1    
   180   91  212 1    
   181   91  213 1    
   182   91  214 1    
   183   92   93 2    
   184   92   94 am   BACKBONE|DICT|INTERRES
   185   94   95 1    
   186   94  215 1    
   187   95   96 1    
   188   95   97 1    
   189   95  216 1    
   190   96  217 1    
   191   96  218 1    
   192   96  219 1    
   193   97   98 2    
   194   97   99 am   BACKBONE|DICT|INTERRES
   195   99  100 1    
   196   99  220 1    
   197  100  101 1    
   198  100  102 1    
   199  100  221 1    
   200  101  222 1    
   201  101  223 1    
   202  101  224 1    
   203  102  103 2    
   204  102  104 am   BACKBONE|DICT|INTERRES
   205  104  105 1    
   206  104  225 1    
   207  105  106 1    
   208  105  107 1    
   209  105  226 1    
   210  106  227 1    
   211  106  228 1    
   212  106  229 1    
   213  107  108 2    
   214  107  109 am   BACKBONE|DICT|INTERRES
   215  109  110 1    
   216  109  230 1    
   217  110  111 1    
   218  110  112 1    
   219  110  231 1    
   220  111  232 1    
   221  111  233 1    
   222  111  234 1    
   223  112  113 2    
   224  112  114 am   BACKBONE|DICT|INTERRES
   225  114  115 1    
   226  114  235 1    
   227  115  116 1    
   228  115  117 1    
   229  115  236 1    
   230  116  237 1    
   231  116  238 1    
   232  116  239 1    
   233  117  118 2    
   234  117  119 am   BACKBONE|DICT|INTERRES
   235  119  120 1    
   236  119  240 1    
   237  120  121 1    
   238  120  124 1    
   239  120  241 1    
   240  121  122 am   BACKBONE|DICT|INTERRES
   241  121  123 2    
   242  122  242 1    
   243  122  243 1    
   244  124  125 1    
   245  124  244 1    
   246  124  245 1    
   247  125  126 1    
   248  126  246 1    
   249  126  247 1    
@<TRIPOS>SUBSTRUCTURE
     1 UNK         1 GROUP             0       ****    0 ROOT    
