@<TRIPOS>MOLECULE
3R540
247   249    1
SMALL
USER_CHARGES


@<TRIPOS>ATOM
      1 CA          7.8308  -15.2979  -50.0558 C.3       0 UNK        -0.1800 
      2 C           6.9626  -15.6204  -48.8476 C.2       0 UNK         0.5000 
      3 O           7.2047  -16.6183  -48.1680 O.2       0 UNK        -0.5000 
      4 N           5.9497  -14.7862  -48.5842 N.am      1 UNK        -0.5000 
      5 CA          5.0321  -14.9028  -47.4466 C.3       1 UNK         0.1400 
      6 C6          3.8070  -13.9670  -47.5950 C.3       23 UNK        -0.0398 
      7 S7          2.8130  -14.3646  -49.0721 S.3       23 UNK        -0.2404 
      8 C8          1.4777  -15.3622  -48.3451 C.3       23 UNK        -0.0205 
      9 C9          0.6053  -15.9739  -49.4289 C.ar      23 UNK        -0.0193 
     10 C10        -0.4144  -15.2231  -50.0191 C.ar      23 UNK        -0.1150 
     11 C11        -1.2085  -15.7766  -51.0264 C.ar      23 UNK        -0.0193 
     12 C12        -0.9840  -17.0961  -51.4282 C.ar      23 UNK        -0.1150 
     13 C13         0.0086  -17.8760  -50.8266 C.ar      23 UNK        -0.0193 
     14 C14         0.8177  -17.2926  -49.8417 C.ar      23 UNK        -0.1150 
     15 C15         0.1680  -19.3294  -51.2870 C.3       23 UNK        -0.0205 
     16 S16         1.0821  -20.4410  -50.1592 S.3       23 UNK        -0.2404 
     17 C17         0.0952  -20.3078  -48.6333 C.3       23 UNK        -0.0398 
     18 CA          0.0018  -21.6349  -47.8428 C.3       11 UNK         0.1400 
     19 N          -0.1030  -21.3879  -46.4029 N.am      11 UNK        -0.5000 
     20 C          -0.0857  -22.3244  -45.4448 C.2       10 UNK         0.5000 
     21 O           0.0754  -23.5247  -45.6589 O.2       10 UNK        -0.5000 
     22 CA         -0.3505  -21.8385  -44.0095 C.3       10 UNK         0.1400 
     23 CB          0.9330  -21.2976  -43.3617 C.3       10 UNK        -0.1800 
     24 N          -1.3941  -20.8132  -43.9743 N.am      10 UNK        -0.5000 
     25 C          -2.6894  -21.0530  -44.2242 C.2       9 UNK         0.5000 
     26 O          -3.1466  -22.1771  -44.4344 O.2       9 UNK        -0.5000 
     27 CA         -3.6150  -19.8235  -44.2989 C.3       9 UNK         0.1400 
     28 CB         -4.0576  -19.3886  -42.8942 C.3       9 UNK        -0.1800 
     29 N          -2.9887  -18.6903  -44.9843 N.am      9 UNK        -0.5000 
     30 C          -2.6694  -18.6819  -46.2875 C.2       8 UNK         0.5000 
     31 O          -2.9087  -19.6162  -47.0477 O.2       8 UNK        -0.5000 
     32 CA         -1.8999  -17.4605  -46.8242 C.3       8 UNK         0.1400 
     33 CB         -2.8730  -16.4179  -47.3885 C.3       8 UNK        -0.1800 
     34 N          -1.0273  -16.8507  -45.8168 N.am      8 UNK        -0.5000 
     35 C           0.0181  -17.4827  -45.2586 C.2       7 UNK         0.5000 
     36 O           0.3595  -18.6210  -45.5794 O.2       7 UNK        -0.5000 
     37 CA          0.7989  -16.7682  -44.1387 C.3       7 UNK         0.1400 
     38 CB          2.1973  -16.3655  -44.6204 C.3       7 UNK        -0.1800 
     39 N           0.1154  -15.5976  -43.5858 N.am      7 UNK        -0.5000 
     40 C          -0.9779  -15.6654  -42.8124 C.2       6 UNK         0.5000 
     41 O          -1.5058  -16.7261  -42.4750 O.2       6 UNK        -0.5000 
     42 CA         -1.6170  -14.3319  -42.3803 C.3       6 UNK         0.1400 
     43 CB         -1.0506  -13.8723  -41.0293 C.3       6 UNK        -0.1800 
     44 N          -1.4670  -13.2475  -43.3538 N.am      6 UNK        -0.5000 
     45 C          -1.9150  -13.2546  -44.6149 C.2       5 UNK         0.5000 
     46 O          -2.4542  -14.2319  -45.1304 O.2       5 UNK        -0.5000 
     47 CA         -1.7158  -11.9777  -45.4569 C.3       5 UNK         0.1400 
     48 CB         -2.8643  -10.9779  -45.2253 C.3       5 UNK        -0.1800 
     49 N          -0.4027  -11.3355  -45.3033 N.am      5 UNK        -0.5000 
     50 C           0.1272  -10.7406  -44.2263 C.2       4 UNK         0.5000 
     51 O          -0.4465  -10.6227  -43.1413 O.2       4 UNK        -0.5000 
     52 CA          1.5746  -10.2408  -44.3742 C.3       4 UNK         0.1400 
     53 CB          1.6750   -8.7368  -44.0740 C.3       4 UNK        -0.1800 
     54 N           2.4838  -10.9714  -43.4912 N.am      4 UNK        -0.5000 
     55 C           2.7256  -12.2861  -43.5575 C.2       3 UNK         0.5000 
     56 O           2.2014  -13.0482  -44.3761 O.2       3 UNK        -0.5000 
     57 CA          3.7211  -12.8524  -42.5400 C.3       3 UNK         0.1400 
     58 CB          2.9958  -13.4046  -41.3020 C.3       3 UNK        -0.1800 
     59 N           4.4497  -13.9225  -43.2027 N.am      3 UNK        -0.5000 
     60 C           5.6910  -14.3315  -42.9276 C.2       2 UNK         0.5000 
     61 O           6.3773  -13.8718  -42.0141 O.2       2 UNK        -0.5000 
     62 CA          6.2657  -15.4441  -43.8279 C.3       2 UNK         0.1400 
     63 CB          6.1409  -16.8092  -43.1333 C.3       2 UNK        -0.1800 
     64 N           5.6286  -15.5271  -45.1475 N.am      2 UNK        -0.5000 
     65 C           5.7756  -14.6216  -46.1245 C.2       1 UNK         0.5000 
     66 O           6.4524  -13.5968  -46.0136 O.2       1 UNK        -0.5000 
     67 C          -1.1403  -22.5370  -48.3566 C.2       11 UNK         0.5000 
     68 O          -0.8725  -23.5110  -49.0595 O.2       11 UNK        -0.5000 
     69 N          -2.3807  -22.2355  -47.9406 N.am      12 UNK        -0.5000 
     70 CA         -3.5830  -23.0224  -48.2190 C.3       12 UNK         0.1400 
     71 CB         -4.8144  -22.3391  -47.6001 C.3       12 UNK        -0.1800 
     72 C          -3.4761  -24.4618  -47.6926 C.2       12 UNK         0.5000 
     73 O          -3.7903  -25.3984  -48.4263 O.2       12 UNK        -0.5000 
     74 N          -3.0147  -24.6077  -46.4425 N.am      13 UNK        -0.5000 
     75 CA         -2.8011  -25.8951  -45.7840 C.3       13 UNK         0.1400 
     76 CB         -2.4894  -25.6674  -44.2971 C.3       13 UNK        -0.1800 
     77 C          -1.6993  -26.7304  -46.4601 C.2       13 UNK         0.5000 
     78 O          -1.9047  -27.9208  -46.6981 O.2       13 UNK        -0.5000 
     79 N          -0.5692  -26.0877  -46.7863 N.am      14 UNK        -0.5000 
     80 CA          0.5759  -26.6983  -47.4638 C.3       14 UNK         0.1400 
     81 CB          1.7539  -25.7121  -47.4660 C.3       14 UNK        -0.1800 
     82 C           0.2539  -27.1599  -48.8965 C.2       14 UNK         0.5000 
     83 O           0.6778  -28.2453  -49.2952 O.2       14 UNK        -0.5000 
     84 N          -0.5033  -26.3392  -49.6358 N.am      15 UNK        -0.5000 
     85 CA         -0.9425  -26.6236  -51.0022 C.3       15 UNK         0.1400 
     86 CB         -1.2826  -25.2960  -51.6948 C.3       15 UNK        -0.1800 
     87 C          -2.1472  -27.5806  -51.0770 C.2       15 UNK         0.5000 
     88 O          -2.4783  -28.0290  -52.1733 O.2       15 UNK        -0.5000 
     89 N          -2.8072  -27.8420  -49.9390 N.am      16 UNK        -0.5000 
     90 CA         -4.0586  -28.5955  -49.7966 C.3       16 UNK         0.1400 
     91 CB         -3.8487  -30.0867  -50.1318 C.3       16 UNK        -0.1800 
     92 C          -5.2121  -27.9430  -50.5899 C.2       16 UNK         0.5000 
     93 O          -5.9239  -28.6175  -51.3357 O.2       16 UNK        -0.5000 
     94 N          -5.3378  -26.6185  -50.4233 N.am      17 UNK        -0.5000 
     95 CA         -6.3047  -25.7063  -51.0448 C.3       17 UNK         0.1400 
     96 CB         -7.7517  -26.0934  -50.6758 C.3       17 UNK        -0.1800 
     97 C          -6.1185  -25.4952  -52.5644 C.2       17 UNK         0.5000 
     98 O          -6.9845  -24.8884  -53.1963 O.2       17 UNK        -0.5000 
     99 N          -4.9893  -25.9482  -53.1300 N.am      18 UNK        -0.5000 
    100 CA        -4.6162  -25.7209  -54.5321 C.3       18 UNK         0.1400 
    101 CB        -3.6494  -26.8262  -54.9838 C.3       18 UNK        -0.1800 
    102 C         -3.9986  -24.3266  -54.7774 C.2       18 UNK         0.5000 
    103 O         -3.7879  -23.9540  -55.9325 O.2       18 UNK        -0.5000 
    104 N         -3.7169  -23.5877  -53.6992 N.am      19 UNK        -0.5000 
    105 CA        -3.2161  -22.2174  -53.6908 C.3       19 UNK         0.1400 
    106 CB        -1.7049  -22.2315  -53.3921 C.3       19 UNK        -0.1800 
    107 C         -3.9947  -21.4128  -52.6355 C.2       19 UNK         0.5000 
    108 O         -4.8982  -21.9560  -51.9937 O.2       19 UNK        -0.5000 
    109 N         -3.6126  -20.1379  -52.4726 N.am      20 UNK        -0.5000 
    110 CA        -4.1940  -19.1563  -51.5478 C.3       20 UNK         0.1400 
    111 CB        -4.1352  -19.6363  -50.0876 C.3       20 UNK        -0.1800 
    112 C         -5.5925  -18.6827  -51.9827 C.2       20 UNK         0.5000 
    113 O         -6.4805  -18.4891  -51.1498 O.2       20 UNK        -0.5000 
    114 N         -5.7375  -18.4299  -53.2925 N.am      21 UNK        -0.5000 
    115 CA        -6.9192  -17.8213  -53.9176 C.3       21 UNK         0.1400 
    116 CB        -6.7376  -17.8400  -55.4432 C.3       21 UNK        -0.1800 
    117 C         -7.2188  -16.3879  -53.4225 C.2       21 UNK         0.5000 
    118 O         -8.3416  -15.9096  -53.5870 O.2       21 UNK        -0.5000 
    119 N         -6.2199  -15.7476  -52.8012 N.am      22 UNK        -0.5000 
    120 CA        -6.3392  -14.5101  -52.0193 C.3       22 UNK         0.1400 
    121 C         -7.2228  -14.6213  -50.7375 C.2       22 UNK         0.5000 
    122 N         -7.5279  -15.8118  -50.2309 N.am      22 UNK        -0.7600 
    123 O         -7.6491  -13.6027  -50.2001 O.2       22 UNK        -0.5000 
    124 C124       -4.9410  -13.9205  -51.6915 C.3       23 UNK        -0.0398 
    125 S125       -3.8597  -15.0635  -50.7526 S.3       23 UNK        -0.2404 
    126 C126       -2.3023  -14.9478  -51.6834 C.3       23 UNK        -0.0205 
    127 H127        7.4948  -14.3957  -50.5675 H         1 UNK         0.0600 
    128 H128        8.8647  -15.1475  -49.7452 H         1 UNK         0.0600 
    129 H129        7.8039  -16.1225  -50.7681 H         1 UNK         0.0600 
    130 H130        5.8056  -13.9810  -49.1762 H         1 UNK         0.3000 
    131 H131        4.6669  -15.9322  -47.4226 H         1 UNK         0.0600 
    132 H132        3.1671  -14.0113  -46.7139 H         1 UNK         0.0800 
    133 H133        4.1292  -12.9270  -47.6736 H         1 UNK         0.0800 
    134 H134        1.9084  -16.1508  -47.7266 H         1 UNK         0.0800 
    135 H135        0.8709  -14.7418  -47.6833 H         1 UNK         0.0800 
    136 H136       -0.5826  -14.2036  -49.7015 H         1 UNK         0.1150 
    137 H137       -1.5845  -17.5184  -52.2196 H         1 UNK         0.1150 
    138 H138        1.6168  -17.8582  -49.3861 H         1 UNK         0.1150 
    139 H139       -0.8185  -19.7646  -51.4520 H         1 UNK         0.0800 
    140 H140        0.6725  -19.3313  -52.2538 H         1 UNK         0.0800 
    141 H141       -0.8930  -19.9041  -48.8572 H         1 UNK         0.0800 
    142 H142        0.5910  -19.5513  -48.0254 H         1 UNK         0.0800 
    143 H143        0.9352  -22.1848  -47.9817 H         1 UNK         0.0600 
    144 H144       -0.1799  -20.4170  -46.1163 H         1 UNK         0.3000 
    145 H145       -0.6910  -22.6948  -43.4234 H         1 UNK         0.0600 
    146 H146        0.7550  -20.9904  -42.3311 H         1 UNK         0.0600 
    147 H147        1.7094  -22.0635  -43.3428 H         1 UNK         0.0600 
    148 H148        1.3341  -20.4405  -43.9026 H         1 UNK         0.0600 
    149 H149       -1.0926  -19.8584  -43.8480 H         1 UNK         0.3000 
    150 H150       -4.5043  -20.1118  -44.8636 H         1 UNK         0.0600 
    151 H151       -4.5437  -20.2100  -42.3663 H         1 UNK         0.0600 
    152 H152       -4.7714  -18.5661  -42.9432 H         1 UNK         0.0600 
    153 H153       -3.2119  -19.0620  -42.2876 H         1 UNK         0.0600 
    154 H154       -2.7369  -17.8931  -44.4161 H         1 UNK         0.3000 
    155 H155       -1.2668  -17.7993  -47.6458 H         1 UNK         0.0600 
    156 H156       -2.3443  -15.5411  -47.7623 H         1 UNK         0.0600 
    157 H157       -3.5906  -16.0859  -46.6379 H         1 UNK         0.0600 
    158 H158       -3.4415  -16.8321  -48.2216 H         1 UNK         0.0600 
    159 H159       -1.2904  -15.9271  -45.4909 H         1 UNK         0.3000 
    160 H160        0.9254  -17.4968  -43.3349 H         1 UNK         0.0600 
    161 H161        2.1471  -15.5690  -45.3601 H         1 UNK         0.0600 
    162 H162        2.7194  -17.2094  -45.0734 H         1 UNK         0.0600 
    163 H163        2.8037  -16.0211  -43.7846 H         1 UNK         0.0600 
    164 H164        0.4847  -14.6890  -43.8348 H         1 UNK         0.3000 
    165 H165       -2.6865  -14.5131  -42.2571 H         1 UNK         0.0600 
    166 H166        0.0041  -13.6092  -41.1054 H         1 UNK         0.0600 
    167 H167       -1.5855  -12.9991  -40.6553 H         1 UNK         0.0600 
    168 H168       -1.1425  -14.6564  -40.2765 H         1 UNK         0.0600 
    169 H169       -1.0456  -12.3835  -43.0225 H         1 UNK         0.3000 
    170 H170       -1.7654  -12.2899  -46.5014 H         1 UNK         0.0600 
    171 H171       -3.8281  -11.4365  -45.4499 H         1 UNK         0.0600 
    172 H172       -2.9039  -10.6309  -44.1924 H         1 UNK         0.0600 
    173 H173       -2.7624  -10.1044  -45.8693 H         1 UNK         0.0600 
    174 H174        0.1933  -11.4201  -46.1149 H         1 UNK         0.3000 
    175 H175        1.9046  -10.4023  -45.4027 H         1 UNK         0.0600 
    176 H176        2.6875   -8.3679  -44.2390 H         1 UNK         0.0600 
    177 H177        1.0114   -8.1647  -44.7237 H         1 UNK         0.0600 
    178 H178        1.3992   -8.5111  -43.0430 H         1 UNK         0.0600 
    179 H179        2.9315  -10.4278  -42.7678 H         1 UNK         0.3000 
    180 H180        4.4150  -12.0632  -42.2429 H         1 UNK         0.0600 
    181 H181        2.3240  -14.2228  -41.5645 H         1 UNK         0.0600 
    182 H182        2.4022  -12.6291  -40.8165 H         1 UNK         0.0600 
    183 H183        3.7055  -13.7804  -40.5649 H         1 UNK         0.0600 
    184 H184        3.9662  -14.3131  -43.9997 H         1 UNK         0.3000 
    185 H185        7.3267  -15.2310  -43.9747 H         1 UNK         0.0600 
    186 H186        6.6122  -17.5965  -43.7219 H         1 UNK         0.0600 
    187 H187        6.6304  -16.7979  -42.1585 H         1 UNK         0.0600 
    188 H188        5.0982  -17.0865  -42.9730 H         1 UNK         0.0600 
    189 H189        5.0857  -16.3590  -45.3262 H         1 UNK         0.3000 
    190 H190       -2.5219  -21.3773  -47.4120 H         1 UNK         0.3000 
    191 H191       -3.7104  -23.0577  -49.3031 H         1 UNK         0.0600 
    192 H192       -4.8767  -21.2867  -47.8668 H         1 UNK         0.0600 
    193 H193       -5.7332  -22.8177  -47.9406 H         1 UNK         0.0600 
    194 H194       -4.8048  -22.3908  -46.5115 H         1 UNK         0.0600 
    195 H195       -2.8035  -23.7771  -45.9017 H         1 UNK         0.3000 
    196 H196       -3.7332  -26.4603  -45.8504 H         1 UNK         0.0600 
    197 H197       -2.3591  -26.6166  -43.7759 H         1 UNK         0.0600 
    198 H198       -3.3006  -25.1326  -43.8025 H         1 UNK         0.0600 
    199 H199       -1.5762  -25.0886  -44.1583 H         1 UNK         0.0600 
    200 H200       -0.4672  -25.1113  -46.5188 H         1 UNK         0.3000 
    201 H201        0.8715  -27.5792  -46.8902 H         1 UNK         0.0600 
    202 H202        2.0487  -25.4491  -46.4500 H         1 UNK         0.0600 
    203 H203        1.5041  -24.7890  -47.9904 H         1 UNK         0.0600 
    204 H204        2.6267  -26.1446  -47.9566 H         1 UNK         0.0600 
    205 H205       -0.7652  -25.4324  -49.2565 H         1 UNK         0.3000 
    206 H206       -0.1191  -27.0893  -51.5476 H         1 UNK         0.0600 
    207 H207       -0.4302  -24.6167  -51.6770 H         1 UNK         0.0600 
    208 H208       -1.5479  -25.4519  -52.7405 H         1 UNK         0.0600 
    209 H209       -2.1218  -24.7942  -51.2110 H         1 UNK         0.0600 
    210 H210       -2.4729  -27.3951  -49.0953 H         1 UNK         0.3000 
    211 H211       -4.3352  -28.5306  -48.7431 H         1 UNK         0.0600 
    212 H212       -3.6144  -30.2399  -51.1855 H         1 UNK         0.0600 
    213 H213       -4.7465  -30.6648  -49.9103 H         1 UNK         0.0600 
    214 H214       -3.0359  -30.5108  -49.5423 H         1 UNK         0.0600 
    215 H215       -4.6988  -26.1771  -49.7619 H         1 UNK         0.3000 
    216 H216       -6.1088  -24.7322  -50.5937 H         1 UNK         0.0600 
    217 H217       -7.8648  -26.2160  -49.5986 H         1 UNK         0.0600 
    218 H218       -8.0586  -27.0234  -51.1548 H         1 UNK         0.0600 
    219 H219       -8.4555  -25.3208  -50.9874 H         1 UNK         0.0600 
    220 H220       -4.3382  -26.4786  -52.5670 H         1 UNK         0.3000 
    221 H221       -5.5140  -25.7926  -55.1496 H         1 UNK         0.0600 
    222 H222       -2.6843  -26.7476  -54.4838 H         1 UNK         0.0600 
    223 H223       -4.0551  -27.8174  -54.7797 H         1 UNK         0.0600 
    224 H224       -3.4637  -26.7658  -56.0568 H         1 UNK         0.0600 
    225 H225       -4.0175  -23.9294  -52.7976 H         1 UNK         0.3000 
    226 H226       -3.3909  -21.7494  -54.6617 H         1 UNK         0.0600 
    227 H227       -1.1801  -22.9411  -54.0321 H         1 UNK         0.0600 
    228 H228       -1.2578  -21.2530  -53.5680 H         1 UNK         0.0600 
    229 H229       -1.5015  -22.5008  -52.3550 H         1 UNK         0.0600 
    230 H230       -2.8656  -19.7925  -53.0577 H         1 UNK         0.3000 
    231 H231       -3.5667  -18.2693  -51.6061 H         1 UNK         0.0600 
    232 H232       -3.1416  -19.9982  -49.8263 H         1 UNK         0.0600 
    233 H233       -4.8480  -20.4393  -49.9101 H         1 UNK         0.0600 
    234 H234       -4.3808  -18.8273  -49.3992 H         1 UNK         0.0600 
    235 H235       -4.9610  -18.6248  -53.9070 H         1 UNK         0.3000 
    236 H236       -7.7841  -18.4382  -53.6658 H         1 UNK         0.0600 
    237 H237       -7.6123  -17.4256  -55.9463 H         1 UNK         0.0600 
    238 H238       -5.8723  -17.2525  -55.7524 H         1 UNK         0.0600 
    239 H239       -6.6045  -18.8569  -55.8129 H         1 UNK         0.0600 
    240 H240       -5.3352  -16.2236  -52.7186 H         1 UNK         0.3000 
    241 H241       -6.8481  -13.7880  -52.6605 H         1 UNK         0.0600 
    242 H242       -7.1696  -16.6678  -50.6406 H         1 UNK         0.3800 
    243 H243       -8.1042  -15.8617  -49.4064 H         1 UNK         0.3800 
    244 H244       -4.4458  -13.6432  -52.6229 H         1 UNK         0.0800 
    245 H245       -5.0368  -12.9915  -51.1268 H         1 UNK         0.0800 
    246 H246       -2.4640  -15.2808  -52.7098 H         1 UNK         0.0800 
    247 H247       -1.9907  -13.9036  -51.7412 H         1 UNK         0.0800 
@<TRIPOS>BOND
     1    1    2 1    
     2    1  127 1    
     3    1  128 1    
     4    1  129 1    
     5    2    3 2    
     6    2    4 am   BACKBONE|DICT|INTERRES
     7    4    5 1    
     8    4  130 1    
     9    5    6 1    
    10    5   65 1    
    11    5  131 1    
    12    6    7 1    
    13    6  132 1    
    14    6  133 1    
    15    7    8 1    
    16    8    9 1    
    17    8  134 1    
    18    8  135 1    
    19    9   10 ar   
    20    9   14 ar   
    21   10   11 ar   
    22   10  136 1    
    23   11   12 ar   
    24   11  126 1    
    25   12   13 ar   
    26   12  137 1    
    27   13   14 ar   
    28   13   15 1    
    29   14  138 1    
    30   15   16 1    
    31   15  139 1    
    32   15  140 1    
    33   16   17 1    
    34   17   18 1    
    35   17  141 1    
    36   17  142 1    
    37   18   19 1    
    38   18   67 1    
    39   18  143 1    
    40   19   20 am   BACKBONE|DICT|INTERRES
    41   19  144 1    
    42   20   21 2    
    43   20   22 1    
    44   22   23 1    
    45   22   24 1    
    46   22  145 1    
    47   23  146 1    
    48   23  147 1    
    49   23  148 1    
    50   24   25 am   BACKBONE|DICT|INTERRES
    51   24  149 1    
    52   25   26 2    
    53   25   27 1    
    54   27   28 1    
    55   27   29 1    
    56   27  150 1    
    57   28  151 1    
    58   28  152 1    
    59   28  153 1    
    60   29   30 am   BACKBONE|DICT|INTERRES
    61   29  154 1    
    62   30   31 2    
    63   30   32 1    
    64   32   33 1    
    65   32   34 1    
    66   32  155 1    
    67   33  156 1    
    68   33  157 1    
    69   33  158 1    
    70   34   35 am   BACKBONE|DICT|INTERRES
    71   34  159 1    
    72   35   36 2    
    73   35   37 1    
    74   37   38 1    
    75   37   39 1    
    76   37  160 1    
    77   38  161 1    
    78   38  162 1    
    79   38  163 1    
    80   39   40 am   BACKBONE|DICT|INTERRES
    81   39  164 1    
    82   40   41 2    
    83   40   42 1    
    84   42   43 1    
    85   42   44 1    
    86   42  165 1    
    87   43  166 1    
    88   43  167 1    
    89   43  168 1    
    90   44   45 am   BACKBONE|DICT|INTERRES
    91   44  169 1    
    92   45   46 2    
    93   45   47 1    
    94   47   48 1    
    95   47   49 1    
    96   47  170 1    
    97   48  171 1    
    98   48  172 1    
    99   48  173 1    
   100   49   50 am   BACKBONE|DICT|INTERRES
   101   49  174 1    
   102   50   51 2    
   103   50   52 1    
   104   52   53 1    
   105   52   54 1    
   106   52  175 1    
   107   53  176 1    
   108   53  177 1    
   109   53  178 1    
   110   54   55 am   BACKBONE|DICT|INTERRES
   111   54  179 1    
   112   55   56 2    
   113   55   57 1    
   114   57   58 1    
   115   57   59 1    
   116   57  180 1    
   117   58  181 1    
   118   58  182 1    
   119   58  183 1    
   120   59   60 am   BACKBONE|DICT|INTERRES
   121   59  184 1    
   122   60   61 2    
   123   60   62 1    
   124   62   63 1    
   125   62   64 1    
   126   62  185 1    
   127   63  186 1    
   128   63  187 1    
   129   63  188 1    
   130   64   65 am   BACKBONE|DICT|INTERRES
   131   64  189 1    
   132   65   66 2    
   133   67   68 2    
   134   67   69 am   BACKBONE|DICT|INTERRES
   135   69   70 1    
   136   69  190 1    
   137   70   71 1    
   138   70   72 1    
   139   70  191 1    
   140   71  192 1    
   141   71  193 1    
   142   71  194 1    
   143   72   73 2    
   144   72   74 am   BACKBONE|DICT|INTERRES
   145   74   75 1    
   146   74  195 1    
   147   75   76 1    
   148   75   77 1    
   149   75  196 1    
   150   76  197 1    
   151   76  198 1    
   152   76  199 1    
   153   77   78 2    
   154   77   79 am   BACKBONE|DICT|INTERRES
   155   79   80 1    
   156   79  200 1    
   157   80   81 1    
   158   80   82 1    
   159   80  201 1    
   160   81  202 1    
   161   81  203 1    
   162   81  204 1    
   163   82   83 2    
   164   82   84 am   BACKBONE|DICT|INTERRES
   165   84   85 1    
   166   84  205 1    
   167   85   86 1    
   168   85   87 1    
   169   85  206 1    
   170   86  207 1    
   171   86  208 1    
   172   86  209 1    
   173   87   88 2    
   174   87   89 am   BACKBONE|DICT|INTERRES
   175   89   90 1    
   176   89  210 1    
   177   90   91 1    
   178   90   92 1    
   179   90  211 1    
   180   91  212 1    
   181   91  213 1    
   182   91  214 1    
   183   92   93 2    
   184   92   94 am   BACKBONE|DICT|INTERRES
   185   94   95 1    
   186   94  215 1    
   187   95   96 1    
   188   95   97 1    
   189   95  216 1    
   190   96  217 1    
   191   96  218 1    
   192   96  219 1    
   193   97   98 2    
   194   97   99 am   BACKBONE|DICT|INTERRES
   195   99  100 1    
   196   99  220 1    
   197  100  101 1    
   198  100  102 1    
   199  100  221 1    
   200  101  222 1    
   201  101  223 1    
   202  101  224 1    
   203  102  103 2    
   204  102  104 am   BACKBONE|DICT|INTERRES
   205  104  105 1    
   206  104  225 1    
   207  105  106 1    
   208  105  107 1    
   209  105  226 1    
   210  106  227 1    
   211  106  228 1    
   212  106  229 1    
   213  107  108 2    
   214  107  109 am   BACKBONE|DICT|INTERRES
   215  109  110 1    
   216  109  230 1    
   217  110  111 1    
   218  110  112 1    
   219  110  231 1    
   220  111  232 1    
   221  111  233 1    
   222  111  234 1    
   223  112  113 2    
   224  112  114 am   BACKBONE|DICT|INTERRES
   225  114  115 1    
   226  114  235 1    
   227  115  116 1    
   228  115  117 1    
   229  115  236 1    
   230  116  237 1    
   231  116  238 1    
   232  116  239 1    
   233  117  118 2    
   234  117  119 am   BACKBONE|DICT|INTERRES
   235  119  120 1    
   236  119  240 1    
   237  120  121 1    
   238  120  124 1    
   239  120  241 1    
   240  121  122 am   BACKBONE|DICT|INTERRES
   241  121  123 2    
   242  122  242 1    
   243  122  243 1    
   244  124  125 1    
   245  124  244 1    
   246  124  245 1    
   247  125  126 1    
   248  126  246 1    
   249  126  247 1    
@<TRIPOS>SUBSTRUCTURE
     1 UNK         1 GROUP             0       ****    0 ROOT    
