@<TRIPOS>MOLECULE
3R540
247   249    1
SMALL
USER_CHARGES


@<TRIPOS>ATOM
      1 CA          0.0288  -12.3604  -44.3649 C.3       0 UNK        -0.1800 
      2 C          -0.1639  -13.8658  -44.4652 C.2       0 UNK         0.5000 
      3 O          -0.5664  -14.4968  -43.4880 O.2       0 UNK        -0.5000 
      4 N           0.0959  -14.4391  -45.6484 N.am      1 UNK        -0.5000 
      5 CA          0.0905  -15.8794  -45.9651 C.3       1 UNK         0.1400 
      6 C6          0.5748  -16.1451  -47.4130 C.3       23 UNK        -0.0398 
      7 S7          2.2547  -15.5161  -47.7275 S.3       23 UNK        -0.2404 
      8 C8          2.2985  -15.5452  -49.5541 C.3       23 UNK        -0.0205 
      9 C9          2.2104  -16.9365  -50.1847 C.ar      23 UNK        -0.0193 
     10 C10         1.6049  -17.0827  -51.4372 C.ar      23 UNK        -0.1150 
     11 C11         1.5652  -18.3276  -52.0748 C.ar      23 UNK        -0.0193 
     12 C12         2.1161  -19.4423  -51.4369 C.ar      23 UNK        -0.1150 
     13 C13         2.7118  -19.3177  -50.1797 C.ar      23 UNK        -0.0193 
     14 C14         2.7717  -18.0617  -49.5703 C.ar      23 UNK        -0.1150 
     15 C15         3.3189  -20.5339  -49.4958 C.3       23 UNK        -0.0205 
     16 S16         2.0525  -21.6590  -48.8272 S.3       23 UNK        -0.2404 
     17 C17         1.3360  -20.6710  -47.4690 C.3       23 UNK        -0.0398 
     18 CA         -0.0718  -21.1622  -47.0536 C.3       11 UNK         0.1400 
     19 N          -0.4163  -20.7303  -45.6944 N.am      11 UNK        -0.5000 
     20 C          -1.4953  -21.1227  -45.0048 C.2       10 UNK         0.5000 
     21 O          -2.3573  -21.8648  -45.4773 O.2       10 UNK        -0.5000 
     22 CA         -1.6309  -20.6134  -43.5532 C.3       10 UNK         0.1400 
     23 CB         -2.5961  -21.4662  -42.7112 C.3       10 UNK        -0.1800 
     24 N          -0.3467  -20.5575  -42.8520 N.am      10 UNK        -0.5000 
     25 C           0.4529  -19.4878  -42.7996 C.2       9 UNK         0.5000 
     26 O           0.2136  -18.4371  -43.3927 O.2       9 UNK        -0.5000 
     27 CA          1.7309  -19.5790  -41.9431 C.3       9 UNK         0.1400 
     28 CB          2.0918  -20.9986  -41.4497 C.3       9 UNK        -0.1800 
     29 N           2.8473  -18.9328  -42.6396 N.am      9 UNK        -0.5000 
     30 C           3.4049  -19.3420  -43.7882 C.2       8 UNK         0.5000 
     31 O           3.1733  -20.4403  -44.2947 O.2       8 UNK        -0.5000 
     32 CA          4.3389  -18.3650  -44.5277 C.3       8 UNK         0.1400 
     33 CB          4.0547  -18.3911  -46.0434 C.3       8 UNK        -0.1800 
     34 N           4.2467  -16.9899  -44.0258 N.am      8 UNK        -0.5000 
     35 C           5.1497  -16.0323  -44.2780 C.2       7 UNK         0.5000 
     36 O           6.1928  -16.2184  -44.9061 O.2       7 UNK        -0.5000 
     37 CA          4.8494  -14.6346  -43.7168 C.3       7 UNK         0.1400 
     38 CB          3.4444  -14.1373  -44.1016 C.3       7 UNK        -0.1800 
     39 N           4.9942  -14.6509  -42.2649 N.am      7 UNK        -0.5000 
     40 C           6.1460  -14.4224  -41.6164 C.2       6 UNK         0.5000 
     41 O           7.1914  -14.0898  -42.1763 O.2       6 UNK        -0.5000 
     42 CA          6.1407  -14.5834  -40.0824 C.3       6 UNK         0.1400 
     43 CB          5.9834  -13.2152  -39.4010 C.3       6 UNK        -0.1800 
     44 N           5.0871  -15.4746  -39.5979 N.am      6 UNK        -0.5000 
     45 C           5.0651  -16.8038  -39.7673 C.2       5 UNK         0.5000 
     46 O           5.9769  -17.4450  -40.2891 O.2       5 UNK        -0.5000 
     47 CA          3.7869  -17.5326  -39.3085 C.3       5 UNK         0.1400 
     48 CB          3.9556  -18.0726  -37.8810 C.3       5 UNK        -0.1800 
     49 N           2.5809  -16.6972  -39.3667 N.am      5 UNK        -0.5000 
     50 C           2.0681  -16.1545  -40.4789 C.2       4 UNK         0.5000 
     51 O           2.5623  -16.3040  -41.5996 O.2       4 UNK        -0.5000 
     52 CA          0.8301  -15.2624  -40.3008 C.3       4 UNK         0.1400 
     53 CB          1.1275  -13.8298  -40.7704 C.3       4 UNK        -0.1800 
     54 N          -0.3384  -15.7871  -41.0100 N.am      4 UNK        -0.5000 
     55 C          -1.0235  -16.8686  -40.6108 C.2       3 UNK         0.5000 
     56 O          -0.6555  -17.5817  -39.6758 O.2       3 UNK        -0.5000 
     57 CA         -2.3604  -17.2104  -41.2955 C.3       3 UNK         0.1400 
     58 CB         -3.5258  -16.7569  -40.3905 C.3       3 UNK        -0.1800 
     59 N          -2.5312  -16.6682  -42.6483 N.am      3 UNK        -0.5000 
     60 C          -3.4711  -17.1086  -43.5031 C.2       2 UNK         0.5000 
     61 O          -4.2512  -18.0254  -43.2431 O.2       2 UNK        -0.5000 
     62 CA         -3.5760  -16.4348  -44.8853 C.3       2 UNK         0.1400 
     63 CB         -4.6314  -15.3195  -44.8629 C.3       2 UNK        -0.1800 
     64 N          -2.3085  -15.8785  -45.3435 N.am      2 UNK        -0.5000 
     65 C          -1.2545  -16.6063  -45.7281 C.2       1 UNK         0.5000 
     66 O          -1.3200  -17.8205  -45.9158 O.2       1 UNK        -0.5000 
     67 C          -1.1423  -20.7943  -48.1065 C.2       11 UNK         0.5000 
     68 O          -1.4803  -21.6326  -48.9412 O.2       11 UNK        -0.5000 
     69 N          -1.6988  -19.5770  -48.0307 N.am      12 UNK        -0.5000 
     70 CA         -2.7412  -19.1091  -48.9484 C.3       12 UNK         0.1400 
     71 CB         -2.8547  -17.5799  -48.8885 C.3       12 UNK        -0.1800 
     72 C          -4.1050  -19.7672  -48.6742 C.2       12 UNK         0.5000 
     73 O          -4.8884  -19.9478  -49.6071 O.2       12 UNK        -0.5000 
     74 N          -4.3557  -20.1440  -47.4123 N.am      13 UNK        -0.5000 
     75 CA         -5.5373  -20.9042  -47.0067 C.3       13 UNK         0.1400 
     76 CB         -5.7234  -20.8128  -45.4866 C.3       13 UNK        -0.1800 
     77 C          -5.4462  -22.3672  -47.4741 C.2       13 UNK         0.5000 
     78 O          -6.4307  -22.8987  -47.9864 O.2       13 UNK        -0.5000 
     79 N          -4.2525  -22.9697  -47.3608 N.am      14 UNK        -0.5000 
     80 CA         -3.9261  -24.2913  -47.9065 C.3       14 UNK         0.1400 
     81 CB         -2.5328  -24.7174  -47.4206 C.3       14 UNK        -0.1800 
     82 C          -4.0123  -24.3363  -49.4460 C.2       14 UNK         0.5000 
     83 O          -4.4440  -25.3449  -50.0040 O.2       14 UNK        -0.5000 
     84 N          -3.6631  -23.2181  -50.0971 N.am      15 UNK        -0.5000 
     85 CA         -3.8461  -22.9712  -51.5279 C.3       15 UNK         0.1400 
     86 CB         -2.9282  -21.8168  -51.9606 C.3       15 UNK        -0.1800 
     87 C          -5.3043  -22.6638  -51.9268 C.2       15 UNK         0.5000 
     88 O          -5.5495  -22.4210  -53.1089 O.2       15 UNK        -0.5000 
     89 N          -6.2416  -22.6569  -50.9673 N.am      16 UNK        -0.5000 
     90 CA         -7.6786  -22.4145  -51.1314 C.3       16 UNK         0.1400 
     91 CB         -8.3308  -23.5611  -51.9325 C.3       16 UNK        -0.1800 
     92 C          -7.9887  -21.0180  -51.7079 C.2       16 UNK         0.5000 
     93 O          -8.8550  -20.8873  -52.5731 O.2       16 UNK        -0.5000 
     94 N          -7.2523  -20.0057  -51.2244 N.am      17 UNK        -0.5000 
     95 CA         -7.2527  -18.6145  -51.6873 C.3       17 UNK         0.1400 
     96 CB         -8.6223  -17.9396  -51.4602 C.3       17 UNK        -0.1800 
     97 C          -6.7336  -18.4956  -53.1349 C.2       17 UNK         0.5000 
     98 O          -7.3237  -17.7886  -53.9537 O.2       17 UNK        -0.5000 
     99 N          -5.6246  -19.2018  -53.4021 N.am      18 UNK        -0.5000 
    100 CA        -4.9102  -19.2973  -54.6783 C.3       18 UNK         0.1400 
    101 CB        -4.3121  -17.9308  -55.0786 C.3       18 UNK        -0.1800 
    102 C         -5.7612  -19.9450  -55.7912 C.2       18 UNK         0.5000 
    103 O         -5.8783  -19.3912  -56.8868 O.2       18 UNK        -0.5000 
    104 N         -6.3484  -21.1059  -55.4768 N.am      19 UNK        -0.5000 
    105 CA        -7.1642  -21.9092  -56.3887 C.3       19 UNK         0.1400 
    106 CB        -8.6284  -21.8766  -55.9250 C.3       19 UNK        -0.1800 
    107 C         -6.6583  -23.3587  -56.4840 C.2       19 UNK         0.5000 
    108 O         -6.6844  -23.9327  -57.5734 O.2       19 UNK        -0.5000 
    109 N         -6.2016  -23.9271  -55.3598 N.am      20 UNK        -0.5000 
    110 CA        -5.6462  -25.2808  -55.2716 C.3       20 UNK         0.1400 
    111 CB        -6.0507  -25.8984  -53.9231 C.3       20 UNK        -0.1800 
    112 C         -4.1137  -25.2935  -55.4311 C.2       20 UNK         0.5000 
    113 O         -3.5408  -26.3529  -55.6882 O.2       20 UNK        -0.5000 
    114 N         -3.4802  -24.1256  -55.2856 N.am      21 UNK        -0.5000 
    115 CA        -2.0581  -23.8747  -55.4898 C.3       21 UNK         0.1400 
    116 CB        -1.2477  -24.3109  -54.2525 C.3       21 UNK        -0.1800 
    117 C         -1.8828  -22.3855  -55.8361 C.2       21 UNK         0.5000 
    118 O         -2.8795  -21.6998  -56.0777 O.2       21 UNK        -0.5000 
    119 N         -0.6291  -21.9156  -55.8705 N.am      22 UNK        -0.5000 
    120 CA        -0.2247  -20.5448  -56.2471 C.3       22 UNK         0.1400 
    121 C         -0.3873  -20.2175  -57.7657 C.2       22 UNK         0.5000 
    122 N         -0.5889  -21.1962  -58.6398 N.am      22 UNK        -0.7600 
    123 O         -0.2938  -19.0617  -58.1703 O.2       22 UNK        -0.5000 
    124 C124       -0.8355  -19.4346  -55.3410 C.3       23 UNK        -0.0398 
    125 S125       -0.4150  -19.6067  -53.5732 S.3       23 UNK        -0.2404 
    126 C126        0.9898  -18.4520  -53.4787 C.3       23 UNK        -0.0205 
    127 H127       -0.9112  -11.8797  -44.0945 H         1 UNK         0.0600 
    128 H128        0.3739  -11.9320  -45.3061 H         1 UNK         0.0600 
    129 H129        0.7649  -12.1278  -43.5957 H         1 UNK         0.0600 
    130 H130        0.4108  -13.8497  -46.4059 H         1 UNK         0.3000 
    131 H131        0.8015  -16.3501  -45.2826 H         1 UNK         0.0600 
    132 H132       -0.1108  -15.6897  -48.1296 H         1 UNK         0.0800 
    133 H133        0.5844  -17.2141  -47.6329 H         1 UNK         0.0800 
    134 H134        3.2307  -15.0834  -49.8812 H         1 UNK         0.0800 
    135 H135        1.4943  -14.9099  -49.9283 H         1 UNK         0.0800 
    136 H136        1.1910  -16.2156  -51.9327 H         1 UNK         0.1150 
    137 H137        2.0877  -20.4073  -51.9235 H         1 UNK         0.1150 
    138 H138        3.2661  -17.9608  -48.6175 H         1 UNK         0.1150 
    139 H139        3.9266  -21.0814  -50.2176 H         1 UNK         0.0800 
    140 H140        3.9972  -20.2345  -48.6962 H         1 UNK         0.0800 
    141 H141        1.3141  -19.6135  -47.7329 H         1 UNK         0.0800 
    142 H142        2.0226  -20.7581  -46.6274 H         1 UNK         0.0800 
    143 H143       -0.0395  -22.2531  -47.0107 H         1 UNK         0.0600 
    144 H144        0.2083  -20.0712  -45.2506 H         1 UNK         0.3000 
    145 H145       -2.0507  -19.6100  -43.6193 H         1 UNK         0.0600 
    146 H146       -2.6633  -21.0911  -41.6898 H         1 UNK         0.0600 
    147 H147       -2.2788  -22.5087  -42.6671 H         1 UNK         0.0600 
    148 H148       -3.6046  -21.4450  -43.1209 H         1 UNK         0.0600 
    149 H149       -0.0586  -21.4018  -42.3789 H         1 UNK         0.3000 
    150 H150        1.5303  -18.9768  -41.0577 H         1 UNK         0.0600 
    151 H151        2.1918  -21.7126  -42.2674 H         1 UNK         0.0600 
    152 H152        1.3310  -21.3812  -40.7685 H         1 UNK         0.0600 
    153 H153        3.0336  -20.9909  -40.9009 H         1 UNK         0.0600 
    154 H154        3.0418  -17.9929  -42.3129 H         1 UNK         0.3000 
    155 H155        5.3553  -18.7247  -44.3563 H         1 UNK         0.0600 
    156 H156        4.2047  -19.3895  -46.4541 H         1 UNK         0.0600 
    157 H157        4.7132  -17.7220  -46.5965 H         1 UNK         0.0600 
    158 H158        3.0254  -18.0983  -46.2521 H         1 UNK         0.0600 
    159 H159        3.4263  -16.7517  -43.4809 H         1 UNK         0.3000 
    160 H160        5.5688  -13.9367  -44.1508 H         1 UNK         0.0600 
    161 H161        2.6530  -14.7806  -43.7191 H         1 UNK         0.0600 
    162 H162        3.3327  -14.0957  -45.1854 H         1 UNK         0.0600 
    163 H163        3.2673  -13.1319  -43.7199 H         1 UNK         0.0600 
    164 H164        4.1965  -14.9892  -41.7425 H         1 UNK         0.3000 
    165 H165        7.1060  -15.0030  -39.7910 H         1 UNK         0.0600 
    166 H166        6.0467  -13.3045  -38.3163 H         1 UNK         0.0600 
    167 H167        6.7712  -12.5293  -39.7154 H         1 UNK         0.0600 
    168 H168        5.0272  -12.7510  -39.6459 H         1 UNK         0.0600 
    169 H169        4.2987  -15.0383  -39.1437 H         1 UNK         0.3000 
    170 H170        3.6430  -18.3841  -39.9744 H         1 UNK         0.0600 
    171 H171        4.0803  -17.2663  -37.1572 H         1 UNK         0.0600 
    172 H172        3.0920  -18.6657  -37.5793 H         1 UNK         0.0600 
    173 H173        4.8321  -18.7180  -37.8082 H         1 UNK         0.0600 
    174 H174        2.1071  -16.5400  -38.4885 H         1 UNK         0.3000 
    175 H175        0.5810  -15.2113  -39.2386 H         1 UNK         0.0600 
    176 H176        1.4324  -13.8016  -41.8157 H         1 UNK         0.0600 
    177 H177        0.2542  -13.1869  -40.6596 H         1 UNK         0.0600 
    178 H178        1.9349  -13.3872  -40.1857 H         1 UNK         0.0600 
    179 H179       -0.6070  -15.2771  -41.8468 H         1 UNK         0.3000 
    180 H180       -2.3857  -18.3000  -41.3676 H         1 UNK         0.0600 
    181 H181       -4.4843  -17.1408  -40.7386 H         1 UNK         0.0600 
    182 H182       -3.5961  -15.6694  -40.3494 H         1 UNK         0.0600 
    183 H183       -3.3962  -17.1159  -39.3685 H         1 UNK         0.0600 
    184 H184       -1.8798  -15.9533  -42.9537 H         1 UNK         0.3000 
    185 H185       -3.9001  -17.1962  -45.5978 H         1 UNK         0.0600 
    186 H186       -4.3563  -14.5191  -44.1748 H         1 UNK         0.0600 
    187 H187       -4.7640  -14.8823  -45.8527 H         1 UNK         0.0600 
    188 H188       -5.6011  -15.7062  -44.5466 H         1 UNK         0.0600 
    189 H189       -2.1651  -14.8903  -45.1952 H         1 UNK         0.3000 
    190 H190       -1.4421  -18.9553  -47.2645 H         1 UNK         0.3000 
    191 H191       -2.4395  -19.3730  -49.9634 H         1 UNK         0.0600 
    192 H192       -1.8965  -17.1053  -49.0977 H         1 UNK         0.0600 
    193 H193       -3.2007  -17.2366  -47.9146 H         1 UNK         0.0600 
    194 H194       -3.5652  -17.2159  -49.6317 H         1 UNK         0.0600 
    195 H195       -3.6409  -20.0000  -46.7142 H         1 UNK         0.3000 
    196 H196       -6.4134  -20.4539  -47.4786 H         1 UNK         0.0600 
    197 H197       -5.7701  -19.7760  -45.1526 H         1 UNK         0.0600 
    198 H198       -4.9103  -21.3014  -44.9540 H         1 UNK         0.0600 
    199 H199       -6.6510  -21.2974  -45.1798 H         1 UNK         0.0600 
    200 H200       -3.5063  -22.4861  -46.8677 H         1 UNK         0.3000 
    201 H201       -4.6556  -25.0023  -47.5134 H         1 UNK         0.0600 
    202 H202       -2.4832  -24.7342  -46.3316 H         1 UNK         0.0600 
    203 H203       -1.7557  -24.0426  -47.7792 H         1 UNK         0.0600 
    204 H204       -2.2860  -25.7192  -47.7742 H         1 UNK         0.0600 
    205 H205       -3.2218  -22.4746  -49.5663 H         1 UNK         0.3000 
    206 H206       -3.5465  -23.8691  -52.0715 H         1 UNK         0.0600 
    207 H207       -1.8940  -21.9940  -51.6650 H         1 UNK         0.0600 
    208 H208       -3.2414  -20.8686  -51.5279 H         1 UNK         0.0600 
    209 H209       -2.9368  -21.6926  -53.0435 H         1 UNK         0.0600 
    210 H210       -5.9518  -22.8399  -50.0140 H         1 UNK         0.3000 
    211 H211       -8.1092  -22.4292  -50.1295 H         1 UNK         0.0600 
    212 H212       -7.9914  -23.5793  -52.9677 H         1 UNK         0.0600 
    213 H213       -9.4164  -23.4596  -51.9474 H         1 UNK         0.0600 
    214 H214       -8.1022  -24.5302  -51.4891 H         1 UNK         0.0600 
    215 H215       -6.5304  -20.2192  -50.5399 H         1 UNK         0.3000 
    216 H216       -6.5278  -18.0896  -51.0633 H         1 UNK         0.0600 
    217 H217       -8.5667  -16.8708  -51.6694 H         1 UNK         0.0600 
    218 H218       -8.9497  -18.0509  -50.4266 H         1 UNK         0.0600 
    219 H219       -9.3968  -18.3554  -52.1049 H         1 UNK         0.0600 
    220 H220       -5.2593  -19.7794  -52.6591 H         1 UNK         0.3000 
    221 H221       -4.0773  -19.9769  -54.4999 H         1 UNK         0.0600 
    222 H222       -5.0842  -17.1827  -55.2584 H         1 UNK         0.0600 
    223 H223       -3.6484  -17.5500  -54.3023 H         1 UNK         0.0600 
    224 H224       -3.7267  -18.0125  -55.9949 H         1 UNK         0.0600 
    225 H225       -6.1776  -21.4922  -54.5520 H         1 UNK         0.3000 
    226 H226       -7.1222  -21.4947  -57.3980 H         1 UNK         0.0600 
    227 H227       -9.0071  -20.8549  -55.8903 H         1 UNK         0.0600 
    228 H228       -9.2674  -22.4398  -56.6061 H         1 UNK         0.0600 
    229 H229       -8.7460  -22.3083  -54.9310 H         1 UNK         0.0600 
    230 H230       -6.1679  -23.3807  -54.5035 H         1 UNK         0.3000 
    231 H231       -6.0649  -25.9041  -56.0644 H         1 UNK         0.0600 
    232 H232       -5.7013  -26.9288  -53.8464 H         1 UNK         0.0600 
    233 H233       -5.6302  -25.3496  -53.0807 H         1 UNK         0.0600 
    234 H234       -7.1343  -25.9149  -53.8061 H         1 UNK         0.0600 
    235 H235       -4.0300  -23.2845  -55.1615 H         1 UNK         0.3000 
    236 H236       -1.7235  -24.4488  -56.3560 H         1 UNK         0.0600 
    237 H237       -1.4555  -23.6830  -53.3885 H         1 UNK         0.0600 
    238 H238       -1.4685  -25.3415  -53.9746 H         1 UNK         0.0600 
    239 H239       -0.1757  -24.2583  -54.4432 H         1 UNK         0.0600 
    240 H240        0.1308  -22.5453  -55.6575 H         1 UNK         0.3000 
    241 H241        0.8539  -20.5167  -56.0891 H         1 UNK         0.0600 
    242 H242       -0.6801  -20.9741  -59.6189 H         1 UNK         0.3800 
    243 H243       -0.6513  -22.1541  -58.3360 H         1 UNK         0.3800 
    244 H244       -1.9188  -19.4273  -55.4319 H         1 UNK         0.0800 
    245 H245       -0.5150  -18.4459  -55.6725 H         1 UNK         0.0800 
    246 H246        0.6699  -17.4746  -53.8433 H         1 UNK         0.0800 
    247 H247        1.7778  -18.7910  -54.1524 H         1 UNK         0.0800 
@<TRIPOS>BOND
     1    1    2 1    
     2    1  127 1    
     3    1  128 1    
     4    1  129 1    
     5    2    3 2    
     6    2    4 am   BACKBONE|DICT|INTERRES
     7    4    5 1    
     8    4  130 1    
     9    5    6 1    
    10    5   65 1    
    11    5  131 1    
    12    6    7 1    
    13    6  132 1    
    14    6  133 1    
    15    7    8 1    
    16    8    9 1    
    17    8  134 1    
    18    8  135 1    
    19    9   10 ar   
    20    9   14 ar   
    21   10   11 ar   
    22   10  136 1    
    23   11   12 ar   
    24   11  126 1    
    25   12   13 ar   
    26   12  137 1    
    27   13   14 ar   
    28   13   15 1    
    29   14  138 1    
    30   15   16 1    
    31   15  139 1    
    32   15  140 1    
    33   16   17 1    
    34   17   18 1    
    35   17  141 1    
    36   17  142 1    
    37   18   19 1    
    38   18   67 1    
    39   18  143 1    
    40   19   20 am   BACKBONE|DICT|INTERRES
    41   19  144 1    
    42   20   21 2    
    43   20   22 1    
    44   22   23 1    
    45   22   24 1    
    46   22  145 1    
    47   23  146 1    
    48   23  147 1    
    49   23  148 1    
    50   24   25 am   BACKBONE|DICT|INTERRES
    51   24  149 1    
    52   25   26 2    
    53   25   27 1    
    54   27   28 1    
    55   27   29 1    
    56   27  150 1    
    57   28  151 1    
    58   28  152 1    
    59   28  153 1    
    60   29   30 am   BACKBONE|DICT|INTERRES
    61   29  154 1    
    62   30   31 2    
    63   30   32 1    
    64   32   33 1    
    65   32   34 1    
    66   32  155 1    
    67   33  156 1    
    68   33  157 1    
    69   33  158 1    
    70   34   35 am   BACKBONE|DICT|INTERRES
    71   34  159 1    
    72   35   36 2    
    73   35   37 1    
    74   37   38 1    
    75   37   39 1    
    76   37  160 1    
    77   38  161 1    
    78   38  162 1    
    79   38  163 1    
    80   39   40 am   BACKBONE|DICT|INTERRES
    81   39  164 1    
    82   40   41 2    
    83   40   42 1    
    84   42   43 1    
    85   42   44 1    
    86   42  165 1    
    87   43  166 1    
    88   43  167 1    
    89   43  168 1    
    90   44   45 am   BACKBONE|DICT|INTERRES
    91   44  169 1    
    92   45   46 2    
    93   45   47 1    
    94   47   48 1    
    95   47   49 1    
    96   47  170 1    
    97   48  171 1    
    98   48  172 1    
    99   48  173 1    
   100   49   50 am   BACKBONE|DICT|INTERRES
   101   49  174 1    
   102   50   51 2    
   103   50   52 1    
   104   52   53 1    
   105   52   54 1    
   106   52  175 1    
   107   53  176 1    
   108   53  177 1    
   109   53  178 1    
   110   54   55 am   BACKBONE|DICT|INTERRES
   111   54  179 1    
   112   55   56 2    
   113   55   57 1    
   114   57   58 1    
   115   57   59 1    
   116   57  180 1    
   117   58  181 1    
   118   58  182 1    
   119   58  183 1    
   120   59   60 am   BACKBONE|DICT|INTERRES
   121   59  184 1    
   122   60   61 2    
   123   60   62 1    
   124   62   63 1    
   125   62   64 1    
   126   62  185 1    
   127   63  186 1    
   128   63  187 1    
   129   63  188 1    
   130   64   65 am   BACKBONE|DICT|INTERRES
   131   64  189 1    
   132   65   66 2    
   133   67   68 2    
   134   67   69 am   BACKBONE|DICT|INTERRES
   135   69   70 1    
   136   69  190 1    
   137   70   71 1    
   138   70   72 1    
   139   70  191 1    
   140   71  192 1    
   141   71  193 1    
   142   71  194 1    
   143   72   73 2    
   144   72   74 am   BACKBONE|DICT|INTERRES
   145   74   75 1    
   146   74  195 1    
   147   75   76 1    
   148   75   77 1    
   149   75  196 1    
   150   76  197 1    
   151   76  198 1    
   152   76  199 1    
   153   77   78 2    
   154   77   79 am   BACKBONE|DICT|INTERRES
   155   79   80 1    
   156   79  200 1    
   157   80   81 1    
   158   80   82 1    
   159   80  201 1    
   160   81  202 1    
   161   81  203 1    
   162   81  204 1    
   163   82   83 2    
   164   82   84 am   BACKBONE|DICT|INTERRES
   165   84   85 1    
   166   84  205 1    
   167   85   86 1    
   168   85   87 1    
   169   85  206 1    
   170   86  207 1    
   171   86  208 1    
   172   86  209 1    
   173   87   88 2    
   174   87   89 am   BACKBONE|DICT|INTERRES
   175   89   90 1    
   176   89  210 1    
   177   90   91 1    
   178   90   92 1    
   179   90  211 1    
   180   91  212 1    
   181   91  213 1    
   182   91  214 1    
   183   92   93 2    
   184   92   94 am   BACKBONE|DICT|INTERRES
   185   94   95 1    
   186   94  215 1    
   187   95   96 1    
   188   95   97 1    
   189   95  216 1    
   190   96  217 1    
   191   96  218 1    
   192   96  219 1    
   193   97   98 2    
   194   97   99 am   BACKBONE|DICT|INTERRES
   195   99  100 1    
   196   99  220 1    
   197  100  101 1    
   198  100  102 1    
   199  100  221 1    
   200  101  222 1    
   201  101  223 1    
   202  101  224 1    
   203  102  103 2    
   204  102  104 am   BACKBONE|DICT|INTERRES
   205  104  105 1    
   206  104  225 1    
   207  105  106 1    
   208  105  107 1    
   209  105  226 1    
   210  106  227 1    
   211  106  228 1    
   212  106  229 1    
   213  107  108 2    
   214  107  109 am   BACKBONE|DICT|INTERRES
   215  109  110 1    
   216  109  230 1    
   217  110  111 1    
   218  110  112 1    
   219  110  231 1    
   220  111  232 1    
   221  111  233 1    
   222  111  234 1    
   223  112  113 2    
   224  112  114 am   BACKBONE|DICT|INTERRES
   225  114  115 1    
   226  114  235 1    
   227  115  116 1    
   228  115  117 1    
   229  115  236 1    
   230  116  237 1    
   231  116  238 1    
   232  116  239 1    
   233  117  118 2    
   234  117  119 am   BACKBONE|DICT|INTERRES
   235  119  120 1    
   236  119  240 1    
   237  120  121 1    
   238  120  124 1    
   239  120  241 1    
   240  121  122 am   BACKBONE|DICT|INTERRES
   241  121  123 2    
   242  122  242 1    
   243  122  243 1    
   244  124  125 1    
   245  124  244 1    
   246  124  245 1    
   247  125  126 1    
   248  126  246 1    
   249  126  247 1    
@<TRIPOS>SUBSTRUCTURE
     1 UNK         1 GROUP             0       ****    0 ROOT    
