@<TRIPOS>MOLECULE
3R540
247   249    1
SMALL
USER_CHARGES


@<TRIPOS>ATOM
      1 CA          3.1744  -17.7552  -49.7925 C.3       0 UNK        -0.1800 
      2 C           2.4012  -16.9398  -48.7692 C.2       0 UNK         0.5000 
      3 O           2.7746  -16.9081  -47.5962 O.2       0 UNK        -0.5000 
      4 N           1.3454  -16.2484  -49.2154 N.am      1 UNK        -0.5000 
      5 CA          0.5596  -15.2839  -48.4370 C.3       1 UNK         0.1400 
      6 C6         -0.8211  -15.0108  -49.0861 C.3       23 UNK        -0.0398 
      7 S7         -1.9351  -16.4503  -49.0038 S.3       23 UNK        -0.2404 
      8 C8         -2.1897  -16.8596  -50.7549 C.3       23 UNK        -0.0205 
      9 C9         -1.0849  -17.7274  -51.3347 C.ar      23 UNK        -0.0193 
     10 C10        -0.4606  -17.3507  -52.5247 C.ar      23 UNK        -0.1150 
     11 C11         0.4533  -18.2051  -53.1472 C.ar      23 UNK        -0.0193 
     12 C12         0.7907  -19.4159  -52.5366 C.ar      23 UNK        -0.1150 
     13 C13         0.1948  -19.7913  -51.3298 C.ar      23 UNK        -0.0193 
     14 C14        -0.7525  -18.9495  -50.7403 C.ar      23 UNK        -0.1150 
     15 C15         0.5304  -21.1354  -50.7056 C.3       23 UNK        -0.0205 
     16 S16         1.9641  -21.0530  -49.5900 S.3       23 UNK        -0.2404 
     17 C17         1.1806  -20.6513  -47.9885 C.3       23 UNK        -0.0398 
     18 CA          0.9362  -21.9224  -47.1373 C.3       11 UNK         0.1400 
     19 N           0.8494  -21.6419  -45.7025 N.am      11 UNK        -0.5000 
     20 C           0.8380  -22.5921  -44.7549 C.2       10 UNK         0.5000 
     21 O           0.9276  -23.7966  -44.9911 O.2       10 UNK        -0.5000 
     22 CA          0.6424  -22.1300  -43.3025 C.3       10 UNK         0.1400 
     23 CB          1.9442  -21.5470  -42.7333 C.3       10 UNK        -0.1800 
     24 N          -0.4471  -21.1643  -43.1646 N.am      10 UNK        -0.5000 
     25 C          -1.7299  -21.4255  -43.4574 C.2       9 UNK         0.5000 
     26 O          -2.1357  -22.5213  -43.8446 O.2       9 UNK        -0.5000 
     27 CA         -2.7239  -20.2587  -43.3362 C.3       9 UNK         0.1400 
     28 CB         -3.1254  -20.0385  -41.8703 C.3       9 UNK        -0.1800 
     29 N          -2.2097  -19.0112  -43.9001 N.am      9 UNK        -0.5000 
     30 C          -1.8768  -18.8325  -45.1866 C.2       8 UNK         0.5000 
     31 O          -1.9734  -19.7033  -46.0514 O.2       8 UNK        -0.5000 
     32 CA         -1.2824  -17.4638  -45.5580 C.3       8 UNK         0.1400 
     33 CB         -2.3649  -16.3730  -45.5668 C.3       8 UNK        -0.1800 
     34 N          -0.1923  -17.0625  -44.6720 N.am      8 UNK        -0.5000 
     35 C           0.9412  -17.7570  -44.4954 C.2       7 UNK         0.5000 
     36 O           1.2141  -18.8006  -45.0898 O.2       7 UNK        -0.5000 
     37 CA          1.8981  -17.2235  -43.4174 C.3       7 UNK         0.1400 
     38 CB          2.7220  -16.0395  -43.9497 C.3       7 UNK        -0.1800 
     39 N           1.1788  -16.8290  -42.2038 N.am      7 UNK        -0.5000 
     40 C           0.5396  -17.6861  -41.3925 C.2       6 UNK         0.5000 
     41 O           0.5165  -18.9039  -41.5635 O.2       6 UNK        -0.5000 
     42 CA         -0.2438  -17.0769  -40.2165 C.3       6 UNK         0.1400 
     43 CB          0.6971  -16.7493  -39.0475 C.3       6 UNK        -0.1800 
     44 N          -0.9814  -15.8736  -40.5992 N.am      6 UNK        -0.5000 
     45 C          -1.9983  -15.8488  -41.4730 C.2       5 UNK         0.5000 
     46 O          -2.4579  -16.8516  -42.0164 O.2       5 UNK        -0.5000 
     47 CA         -2.5637  -14.4636  -41.8360 C.3       5 UNK         0.1400 
     48 CB         -3.7036  -14.0787  -40.8817 C.3       5 UNK        -0.1800 
     49 N          -1.5419  -13.4142  -41.8228 N.am      5 UNK        -0.5000 
     50 C          -0.4939  -13.3672  -42.6551 C.2       4 UNK         0.5000 
     51 O          -0.2793  -14.2020  -43.5389 O.2       4 UNK        -0.5000 
     52 CA          0.5190  -12.2390  -42.4013 C.3       4 UNK         0.1400 
     53 CB          1.7313  -12.7782  -41.6263 C.3       4 UNK        -0.1800 
     54 N           0.9832  -11.6373  -43.6459 N.am      4 UNK        -0.5000 
     55 C           0.2504  -10.8701  -44.4590 C.2       3 UNK         0.5000 
     56 O          -0.9156  -10.5505  -44.2231 O.2       3 UNK        -0.5000 
     57 CA          0.9235  -10.3639  -45.7509 C.3       3 UNK         0.1400 
     58 CB          1.7483   -9.0909  -45.4826 C.3       3 UNK        -0.1800 
     59 N           1.7142  -11.3685  -46.4754 N.am      3 UNK        -0.5000 
     60 C           2.8439  -11.9959  -46.1219 C.2       2 UNK         0.5000 
     61 O           3.4134  -11.8259  -45.0422 O.2       2 UNK        -0.5000 
     62 CA          3.4058  -13.0042  -47.1467 C.3       2 UNK         0.1400 
     63 CB          4.7248  -13.6482  -46.6830 C.3       2 UNK        -0.1800 
     64 N           2.4566  -14.0735  -47.4585 N.am      2 UNK        -0.5000 
     65 C           1.3631  -13.9797  -48.2244 C.2       1 UNK         0.5000 
     66 O           1.0058  -12.9295  -48.7627 O.2       1 UNK        -0.5000 
     67 C          -0.2866  -22.7178  -47.6357 C.2       11 UNK         0.5000 
     68 O          -0.1100  -23.7204  -48.3281 O.2       11 UNK        -0.5000 
     69 N          -1.4964  -22.2832  -47.2523 N.am      12 UNK        -0.5000 
     70 CA         -2.7581  -22.9417  -47.5935 C.3       12 UNK         0.1400 
     71 CB         -3.9391  -22.1152  -47.0639 C.3       12 UNK        -0.1800 
     72 C          -2.8289  -24.3959  -47.0955 C.2       12 UNK         0.5000 
     73 O          -3.2306  -25.2752  -47.8564 O.2       12 UNK        -0.5000 
     74 N          -2.3903  -24.6314  -45.8517 N.am      13 UNK        -0.5000 
     75 CA         -2.2960  -25.9601  -45.2502 C.3       13 UNK         0.1400 
     76 CB         -2.0077  -25.8223  -43.7474 C.3       13 UNK        -0.1800 
     77 C          -1.2404  -26.8550  -45.9266 C.2       13 UNK         0.5000 
     78 O          -1.5193  -28.0267  -46.1834 O.2       13 UNK        -0.5000 
     79 N          -0.0515  -26.2973  -46.1938 N.am      14 UNK        -0.5000 
     80 CA          1.0868  -27.0209  -46.7595 C.3       14 UNK         0.1400 
     81 CB          2.3697  -26.1981  -46.5622 C.3       14 UNK        -0.1800 
     82 C           0.9058  -27.3836  -48.2430 C.2       14 UNK         0.5000 
     83 O           1.1595  -28.5278  -48.6223 O.2       14 UNK        -0.5000 
     84 N           0.4975  -26.4033  -49.0578 N.am      15 UNK        -0.5000 
     85 CA          0.4240  -26.5296  -50.5147 C.3       15 UNK         0.1400 
     86 CB          0.7496  -25.1624  -51.1403 C.3       15 UNK        -0.1800 
     87 C          -0.9408  -27.0307  -51.0198 C.2       15 UNK         0.5000 
     88 O          -1.0522  -27.3435  -52.2057 O.2       15 UNK        -0.5000 
     89 N          -1.9578  -27.0504  -50.1423 N.am      16 UNK        -0.5000 
     90 CA         -3.3845  -27.2433  -50.4518 C.3       16 UNK         0.1400 
     91 CB         -3.6557  -28.6481  -51.0306 C.3       16 UNK        -0.1800 
     92 C          -3.9511  -26.1016  -51.3299 C.2       16 UNK         0.5000 
     93 O          -4.8894  -26.3082  -52.1019 O.2       16 UNK        -0.5000 
     94 N          -3.3423  -24.9176  -51.2007 N.am      17 UNK        -0.5000 
     95 CA         -3.6661  -23.6896  -51.9167 C.3       17 UNK         0.1400 
     96 CB         -2.4182  -22.7949  -51.8812 C.3       17 UNK        -0.1800 
     97 C          -4.8625  -22.9581  -51.2875 C.2       17 UNK         0.5000 
     98 O          -5.2178  -23.2177  -50.1349 O.2       17 UNK        -0.5000 
     99 N          -5.4315  -22.0155  -52.0447 N.am      18 UNK        -0.5000 
    100 CA        -6.3930  -21.0411  -51.5409 C.3       18 UNK         0.1400 
    101 CB        -7.2670  -20.5605  -52.7117 C.3       18 UNK        -0.1800 
    102 C         -5.6516  -19.8519  -50.9051 C.2       18 UNK         0.5000 
    103 O         -4.4828  -19.6123  -51.2132 O.2       18 UNK        -0.5000 
    104 N         -6.3706  -19.0848  -50.0766 N.am      19 UNK        -0.5000 
    105 CA        -5.9025  -17.8127  -49.5131 C.3       19 UNK         0.1400 
    106 CB        -6.7482  -17.4812  -48.2733 C.3       19 UNK        -0.1800 
    107 C         -5.9395  -16.6495  -50.5320 C.2       19 UNK         0.5000 
    108 O         -5.4370  -15.5663  -50.2323 O.2       19 UNK        -0.5000 
    109 N         -6.5463  -16.8893  -51.7022 N.am      20 UNK        -0.5000 
    110 CA        -6.6217  -15.9764  -52.8369 C.3       20 UNK         0.1400 
    111 CB        -8.0059  -16.1372  -53.4992 C.3       20 UNK        -0.1800 
    112 C         -5.4322  -16.2167  -53.7928 C.2       20 UNK         0.5000 
    113 O         -4.2794  -16.1211  -53.3684 O.2       20 UNK        -0.5000 
    114 N         -5.7186  -16.5039  -55.0694 N.am      21 UNK        -0.5000 
    115 CA        -4.7572  -16.6389  -56.1662 C.3       21 UNK         0.1400 
    116 CB        -5.4971  -16.3830  -57.4924 C.3       21 UNK        -0.1800 
    117 C         -3.9912  -17.9812  -56.1616 C.2       21 UNK         0.5000 
    118 O         -4.0194  -18.7123  -57.1541 O.2       21 UNK        -0.5000 
    119 N         -3.2954  -18.2595  -55.0548 N.am      22 UNK        -0.5000 
    120 CA        -2.3786  -19.3949  -54.8587 C.3       22 UNK         0.1400 
    121 C         -3.0912  -20.7847  -54.9115 C.2       22 UNK         0.5000 
    122 N         -2.4206  -21.8527  -55.3273 N.am      22 UNK        -0.7600 
    123 O         -4.2449  -20.9278  -54.5123 O.2       22 UNK        -0.5000 
    124 C124       -1.0993  -19.3044  -55.7542 C.3       23 UNK        -0.0398 
    125 S125       -0.2859  -17.6622  -55.7681 S.3       23 UNK        -0.2404 
    126 C126        1.0240  -17.8482  -54.5108 C.3       23 UNK        -0.0205 
    127 H127        3.9778  -17.1549  -50.2187 H         1 UNK         0.0600 
    128 H128        2.5287  -18.0920  -50.6028 H         1 UNK         0.0600 
    129 H129        3.6203  -18.6309  -49.3220 H         1 UNK         0.0600 
    130 H130        1.0821  -16.3347  -50.1865 H         1 UNK         0.3000 
    131 H131        0.3843  -15.7025  -47.4441 H         1 UNK         0.0600 
    132 H132       -1.3328  -14.1983  -48.5668 H         1 UNK         0.0800 
    133 H133       -0.7041  -14.6815  -50.1198 H         1 UNK         0.0800 
    134 H134       -2.3273  -15.9433  -51.3309 H         1 UNK         0.0800 
    135 H135       -3.1230  -17.4107  -50.8500 H         1 UNK         0.0800 
    136 H136       -0.7365  -16.4235  -53.0075 H         1 UNK         0.1150 
    137 H137        1.4977  -20.0813  -53.0119 H         1 UNK         0.1150 
    138 H138       -1.2529  -19.2531  -49.8316 H         1 UNK         0.1150 
    139 H139       -0.3320  -21.5138  -50.1631 H         1 UNK         0.0800 
    140 H140        0.7382  -21.8645  -51.4901 H         1 UNK         0.0800 
    141 H141        0.2673  -20.0713  -48.1308 H         1 UNK         0.0800 
    142 H142        1.8706  -19.9866  -47.4666 H         1 UNK         0.0800 
    143 H143        1.8065  -22.5719  -47.2573 H         1 UNK         0.0600 
    144 H144        0.7915  -20.6646  -45.4274 H         1 UNK         0.3000 
    145 H145        0.3804  -23.0091  -42.7100 H         1 UNK         0.0600 
    146 H146        2.7682  -22.2538  -42.8384 H         1 UNK         0.0600 
    147 H147        2.2321  -20.6275  -43.2433 H         1 UNK         0.0600 
    148 H148        1.8431  -21.3232  -41.6713 H         1 UNK         0.0600 
    149 H149       -0.1954  -20.2452  -42.8129 H         1 UNK         0.3000 
    150 H150       -3.6211  -20.5286  -43.8968 H         1 UNK         0.0600 
    151 H151       -3.5163  -20.9561  -41.4290 H         1 UNK         0.0600 
    152 H152       -3.9035  -19.2797  -41.7854 H         1 UNK         0.0600 
    153 H153       -2.2772  -19.7163  -41.2651 H         1 UNK         0.0600 
    154 H154       -2.1249  -18.2284  -43.2562 H         1 UNK         0.3000 
    155 H155       -0.8664  -17.5553  -46.5619 H         1 UNK         0.0600 
    156 H156       -2.7976  -16.2212  -44.5794 H         1 UNK         0.0600 
    157 H157       -1.9605  -15.4186  -45.9048 H         1 UNK         0.0600 
    158 H158       -3.1810  -16.6391  -46.2396 H         1 UNK         0.0600 
    159 H159       -0.3194  -16.2023  -44.1498 H         1 UNK         0.3000 
    160 H160        2.5894  -18.0272  -43.1554 H         1 UNK         0.0600 
    161 H161        2.0919  -15.1992  -44.2424 H         1 UNK         0.0600 
    162 H162        3.2971  -16.3347  -44.8282 H         1 UNK         0.0600 
    163 H163        3.4315  -15.6836  -43.2029 H         1 UNK         0.0600 
    164 H164        1.1040  -15.8400  -42.0214 H         1 UNK         0.3000 
    165 H165       -0.9661  -17.8219  -39.8758 H         1 UNK         0.0600 
    166 H166        0.1399  -16.3919  -38.1814 H         1 UNK         0.0600 
    167 H167        1.2507  -17.6351  -38.7331 H         1 UNK         0.0600 
    168 H168        1.4267  -15.9845  -39.3168 H         1 UNK         0.0600 
    169 H169       -0.6756  -15.0018  -40.1940 H         1 UNK         0.3000 
    170 H170       -2.9706  -14.5243  -42.8472 H         1 UNK         0.0600 
    171 H171       -4.4897  -14.8351  -40.8886 H         1 UNK         0.0600 
    172 H172       -3.3536  -13.9783  -39.8535 H         1 UNK         0.0600 
    173 H173       -4.1616  -13.1338  -41.1750 H         1 UNK         0.0600 
    174 H174       -1.6467  -12.6938  -41.1228 H         1 UNK         0.3000 
    175 H175        0.0436  -11.4590  -41.8030 H         1 UNK         0.0600 
    176 H176        2.2705  -13.5346  -42.1976 H         1 UNK         0.0600 
    177 H177        2.4332  -11.9782  -41.3896 H         1 UNK         0.0600 
    178 H178        1.4265  -13.2316  -40.6823 H         1 UNK         0.0600 
    179 H179        1.9332  -11.8494  -43.9392 H         1 UNK         0.3000 
    180 H180        0.1157  -10.0887  -46.4308 H         1 UNK         0.0600 
    181 H181        2.5760   -9.2766  -44.7976 H         1 UNK         0.0600 
    182 H182        1.1272   -8.3127  -45.0373 H         1 UNK         0.0600 
    183 H183        2.1616   -8.6870  -46.4069 H         1 UNK         0.0600 
    184 H184        1.3188  -11.6553  -47.3673 H         1 UNK         0.3000 
    185 H185        3.6127  -12.4484  -48.0635 H         1 UNK         0.0600 
    186 H186        5.4826  -12.8898  -46.4826 H         1 UNK         0.0600 
    187 H187        4.5898  -14.2291  -45.7697 H         1 UNK         0.0600 
    188 H188        5.1278  -14.3144  -47.4461 H         1 UNK         0.0600 
    189 H189        2.6936  -14.9989  -47.1136 H         1 UNK         0.3000 
    190 H190       -1.5681  -21.4347  -46.6950 H         1 UNK         0.3000 
    191 H191       -2.8302  -22.9664  -48.6810 H         1 UNK         0.0600 
    192 H192       -3.8997  -22.0032  -45.9803 H         1 UNK         0.0600 
    193 H193       -4.8892  -22.5892  -47.3135 H         1 UNK         0.0600 
    194 H194       -3.9497  -21.1182  -47.5052 H         1 UNK         0.0600 
    195 H195       -2.1079  -23.8466  -45.2707 H         1 UNK         0.3000 
    196 H196       -3.2662  -26.4482  -45.3637 H         1 UNK         0.0600 
    197 H197       -1.9385  -26.8005  -43.2700 H         1 UNK         0.0600 
    198 H198       -2.8012  -25.2697  -43.2440 H         1 UNK         0.0600 
    199 H199       -1.0689  -25.2982  -43.5639 H         1 UNK         0.0600 
    200 H200        0.1152  -25.3325  -45.9218 H         1 UNK         0.3000 
    201 H201        1.2030  -27.9539  -46.2037 H         1 UNK         0.0600 
    202 H202        2.5675  -26.0262  -45.5041 H         1 UNK         0.0600 
    203 H203        2.3036  -25.2255  -47.0519 H         1 UNK         0.0600 
    204 H204        3.2361  -26.7166  -46.9745 H         1 UNK         0.0600 
    205 H205        0.2997  -25.4804  -48.6735 H         1 UNK         0.3000 
    206 H206        1.1796  -27.2399  -50.8573 H         1 UNK         0.0600 
    207 H207        1.7164  -24.7906  -50.8003 H         1 UNK         0.0600 
    208 H208        0.7907  -25.2277  -52.2282 H         1 UNK         0.0600 
    209 H209       -0.0022  -24.4149  -50.8874 H         1 UNK         0.0600 
    210 H210       -1.7595  -26.7697  -49.1909 H         1 UNK         0.3000 
    211 H211       -3.9145  -27.1841  -49.5010 H         1 UNK         0.0600 
    212 H212       -3.2509  -28.7624  -52.0362 H         1 UNK         0.0600 
    213 H213       -4.7270  -28.8427  -51.0897 H         1 UNK         0.0600 
    214 H214       -3.2200  -29.4244  -50.4016 H         1 UNK         0.0600 
    215 H215       -2.6317  -24.8441  -50.4888 H         1 UNK         0.3000 
    216 H216       -3.9091  -23.9262  -52.9547 H         1 UNK         0.0600 
    217 H217       -2.6171  -21.7998  -52.2782 H         1 UNK         0.0600 
    218 H218       -1.6052  -23.2246  -52.4665 H         1 UNK         0.0600 
    219 H219       -2.0677  -22.6642  -50.8600 H         1 UNK         0.0600 
    220 H220       -5.0191  -21.7872  -52.9461 H         1 UNK         0.3000 
    221 H221       -7.0349  -21.5062  -50.7896 H         1 UNK         0.0600 
    222 H222       -6.6783  -20.0369  -53.4666 H         1 UNK         0.0600 
    223 H223       -7.7648  -21.3984  -53.2002 H         1 UNK         0.0600 
    224 H224       -8.0459  -19.8782  -52.3696 H         1 UNK         0.0600 
    225 H225       -7.3237  -19.3442  -49.8647 H         1 UNK         0.3000 
    226 H226       -4.8660  -17.9322  -49.1903 H         1 UNK         0.0600 
    227 H227       -6.6829  -18.2742  -47.5281 H         1 UNK         0.0600 
    228 H228       -6.4012  -16.5628  -47.7978 H         1 UNK         0.0600 
    229 H229       -7.7995  -17.3425  -48.5281 H         1 UNK         0.0600 
    230 H230       -6.9053  -17.8184  -51.8554 H         1 UNK         0.3000 
    231 H231       -6.5409  -14.9460  -52.4849 H         1 UNK         0.0600 
    232 H232       -8.1355  -15.4377  -54.3261 H         1 UNK         0.0600 
    233 H233       -8.8026  -15.9294  -52.7844 H         1 UNK         0.0600 
    234 H234       -8.1640  -17.1472  -53.8802 H         1 UNK         0.0600 
    235 H235       -6.6903  -16.6001  -55.3255 H         1 UNK         0.3000 
    236 H236       -4.0059  -15.8535  -56.0585 H         1 UNK         0.0600 
    237 H237       -5.9669  -15.3993  -57.4991 H         1 UNK         0.0600 
    238 H238       -4.8093  -16.4157  -58.3384 H         1 UNK         0.0600 
    239 H239       -6.2740  -17.1277  -57.6701 H         1 UNK         0.0600 
    240 H240       -3.3768  -17.6120  -54.2774 H         1 UNK         0.3000 
    241 H241       -2.0561  -19.3118  -53.8218 H         1 UNK         0.0600 
    242 H242       -1.4680  -21.7956  -55.6480 H         1 UNK         0.3800 
    243 H243       -2.8937  -22.7414  -55.3530 H         1 UNK         0.3800 
    244 H244       -0.3622  -20.0448  -55.4412 H         1 UNK         0.0800 
    245 H245       -1.3528  -19.5474  -56.7872 H         1 UNK         0.0800 
    246 H246        1.7381  -18.6014  -54.8473 H         1 UNK         0.0800 
    247 H247        1.5767  -16.9113  -54.4313 H         1 UNK         0.0800 
@<TRIPOS>BOND
     1    1    2 1    
     2    1  127 1    
     3    1  128 1    
     4    1  129 1    
     5    2    3 2    
     6    2    4 am   BACKBONE|DICT|INTERRES
     7    4    5 1    
     8    4  130 1    
     9    5    6 1    
    10    5   65 1    
    11    5  131 1    
    12    6    7 1    
    13    6  132 1    
    14    6  133 1    
    15    7    8 1    
    16    8    9 1    
    17    8  134 1    
    18    8  135 1    
    19    9   10 ar   
    20    9   14 ar   
    21   10   11 ar   
    22   10  136 1    
    23   11   12 ar   
    24   11  126 1    
    25   12   13 ar   
    26   12  137 1    
    27   13   14 ar   
    28   13   15 1    
    29   14  138 1    
    30   15   16 1    
    31   15  139 1    
    32   15  140 1    
    33   16   17 1    
    34   17   18 1    
    35   17  141 1    
    36   17  142 1    
    37   18   19 1    
    38   18   67 1    
    39   18  143 1    
    40   19   20 am   BACKBONE|DICT|INTERRES
    41   19  144 1    
    42   20   21 2    
    43   20   22 1    
    44   22   23 1    
    45   22   24 1    
    46   22  145 1    
    47   23  146 1    
    48   23  147 1    
    49   23  148 1    
    50   24   25 am   BACKBONE|DICT|INTERRES
    51   24  149 1    
    52   25   26 2    
    53   25   27 1    
    54   27   28 1    
    55   27   29 1    
    56   27  150 1    
    57   28  151 1    
    58   28  152 1    
    59   28  153 1    
    60   29   30 am   BACKBONE|DICT|INTERRES
    61   29  154 1    
    62   30   31 2    
    63   30   32 1    
    64   32   33 1    
    65   32   34 1    
    66   32  155 1    
    67   33  156 1    
    68   33  157 1    
    69   33  158 1    
    70   34   35 am   BACKBONE|DICT|INTERRES
    71   34  159 1    
    72   35   36 2    
    73   35   37 1    
    74   37   38 1    
    75   37   39 1    
    76   37  160 1    
    77   38  161 1    
    78   38  162 1    
    79   38  163 1    
    80   39   40 am   BACKBONE|DICT|INTERRES
    81   39  164 1    
    82   40   41 2    
    83   40   42 1    
    84   42   43 1    
    85   42   44 1    
    86   42  165 1    
    87   43  166 1    
    88   43  167 1    
    89   43  168 1    
    90   44   45 am   BACKBONE|DICT|INTERRES
    91   44  169 1    
    92   45   46 2    
    93   45   47 1    
    94   47   48 1    
    95   47   49 1    
    96   47  170 1    
    97   48  171 1    
    98   48  172 1    
    99   48  173 1    
   100   49   50 am   BACKBONE|DICT|INTERRES
   101   49  174 1    
   102   50   51 2    
   103   50   52 1    
   104   52   53 1    
   105   52   54 1    
   106   52  175 1    
   107   53  176 1    
   108   53  177 1    
   109   53  178 1    
   110   54   55 am   BACKBONE|DICT|INTERRES
   111   54  179 1    
   112   55   56 2    
   113   55   57 1    
   114   57   58 1    
   115   57   59 1    
   116   57  180 1    
   117   58  181 1    
   118   58  182 1    
   119   58  183 1    
   120   59   60 am   BACKBONE|DICT|INTERRES
   121   59  184 1    
   122   60   61 2    
   123   60   62 1    
   124   62   63 1    
   125   62   64 1    
   126   62  185 1    
   127   63  186 1    
   128   63  187 1    
   129   63  188 1    
   130   64   65 am   BACKBONE|DICT|INTERRES
   131   64  189 1    
   132   65   66 2    
   133   67   68 2    
   134   67   69 am   BACKBONE|DICT|INTERRES
   135   69   70 1    
   136   69  190 1    
   137   70   71 1    
   138   70   72 1    
   139   70  191 1    
   140   71  192 1    
   141   71  193 1    
   142   71  194 1    
   143   72   73 2    
   144   72   74 am   BACKBONE|DICT|INTERRES
   145   74   75 1    
   146   74  195 1    
   147   75   76 1    
   148   75   77 1    
   149   75  196 1    
   150   76  197 1    
   151   76  198 1    
   152   76  199 1    
   153   77   78 2    
   154   77   79 am   BACKBONE|DICT|INTERRES
   155   79   80 1    
   156   79  200 1    
   157   80   81 1    
   158   80   82 1    
   159   80  201 1    
   160   81  202 1    
   161   81  203 1    
   162   81  204 1    
   163   82   83 2    
   164   82   84 am   BACKBONE|DICT|INTERRES
   165   84   85 1    
   166   84  205 1    
   167   85   86 1    
   168   85   87 1    
   169   85  206 1    
   170   86  207 1    
   171   86  208 1    
   172   86  209 1    
   173   87   88 2    
   174   87   89 am   BACKBONE|DICT|INTERRES
   175   89   90 1    
   176   89  210 1    
   177   90   91 1    
   178   90   92 1    
   179   90  211 1    
   180   91  212 1    
   181   91  213 1    
   182   91  214 1    
   183   92   93 2    
   184   92   94 am   BACKBONE|DICT|INTERRES
   185   94   95 1    
   186   94  215 1    
   187   95   96 1    
   188   95   97 1    
   189   95  216 1    
   190   96  217 1    
   191   96  218 1    
   192   96  219 1    
   193   97   98 2    
   194   97   99 am   BACKBONE|DICT|INTERRES
   195   99  100 1    
   196   99  220 1    
   197  100  101 1    
   198  100  102 1    
   199  100  221 1    
   200  101  222 1    
   201  101  223 1    
   202  101  224 1    
   203  102  103 2    
   204  102  104 am   BACKBONE|DICT|INTERRES
   205  104  105 1    
   206  104  225 1    
   207  105  106 1    
   208  105  107 1    
   209  105  226 1    
   210  106  227 1    
   211  106  228 1    
   212  106  229 1    
   213  107  108 2    
   214  107  109 am   BACKBONE|DICT|INTERRES
   215  109  110 1    
   216  109  230 1    
   217  110  111 1    
   218  110  112 1    
   219  110  231 1    
   220  111  232 1    
   221  111  233 1    
   222  111  234 1    
   223  112  113 2    
   224  112  114 am   BACKBONE|DICT|INTERRES
   225  114  115 1    
   226  114  235 1    
   227  115  116 1    
   228  115  117 1    
   229  115  236 1    
   230  116  237 1    
   231  116  238 1    
   232  116  239 1    
   233  117  118 2    
   234  117  119 am   BACKBONE|DICT|INTERRES
   235  119  120 1    
   236  119  240 1    
   237  120  121 1    
   238  120  124 1    
   239  120  241 1    
   240  121  122 am   BACKBONE|DICT|INTERRES
   241  121  123 2    
   242  122  242 1    
   243  122  243 1    
   244  124  125 1    
   245  124  244 1    
   246  124  245 1    
   247  125  126 1    
   248  126  246 1    
   249  126  247 1    
@<TRIPOS>SUBSTRUCTURE
     1 UNK         1 GROUP             0       ****    0 ROOT    
