@<TRIPOS>MOLECULE
3R540
247   249    1
SMALL
USER_CHARGES


@<TRIPOS>ATOM
      1 CA          3.7875  -20.4835  -48.7359 C.3       0 UNK        -0.1800 
      2 C           3.4386  -19.3004  -47.8449 C.2       0 UNK         0.5000 
      3 O           3.3256  -19.4633  -46.6297 O.2       0 UNK        -0.5000 
      4 N           3.2869  -18.1068  -48.4347 N.am      1 UNK        -0.5000 
      5 CA          3.0199  -16.8369  -47.7475 C.3       1 UNK         0.1400 
      6 C6          2.2714  -15.8117  -48.6434 C.3       23 UNK        -0.0398 
      7 S7          3.0066  -15.5410  -50.2980 S.3       23 UNK        -0.2404 
      8 C8          1.5932  -14.8428  -51.2287 C.3       23 UNK        -0.0205 
      9 C9          0.3680  -15.7512  -51.2364 C.ar      23 UNK        -0.0193 
     10 C10        -0.8984  -15.2375  -50.9331 C.ar      23 UNK        -0.1150 
     11 C11        -2.0119  -16.0829  -50.8670 C.ar      23 UNK        -0.0193 
     12 C12        -1.8477  -17.4518  -51.0890 C.ar      23 UNK        -0.1150 
     13 C13        -0.5912  -17.9717  -51.4034 C.ar      23 UNK        -0.0193 
     14 C14         0.5041  -17.1148  -51.5072 C.ar      23 UNK        -0.1150 
     15 C15        -0.3977  -19.4674  -51.5639 C.3       23 UNK        -0.0205 
     16 S16         0.6289  -20.1442  -50.2293 S.3       23 UNK        -0.2404 
     17 C17        -0.2651  -19.6092  -48.7285 C.3       23 UNK        -0.0398 
     18 CA         -0.3922  -20.7638  -47.7127 C.3       11 UNK         0.1400 
     19 N          -0.3115  -20.2939  -46.3275 N.am      11 UNK        -0.5000 
     20 C          -0.0413  -21.0909  -45.2841 C.2       10 UNK         0.5000 
     21 O           0.1600  -22.3010  -45.3883 O.2       10 UNK        -0.5000 
     22 CA         -0.0906  -20.4459  -43.8867 C.3       10 UNK         0.1400 
     23 CB          1.1767  -19.6251  -43.5997 C.3       10 UNK        -0.1800 
     24 N          -1.2811  -19.6102  -43.7243 N.am      10 UNK        -0.5000 
     25 C          -2.5368  -20.0790  -43.7684 C.2       9 UNK         0.5000 
     26 O          -2.8120  -21.2768  -43.8353 O.2       9 UNK        -0.5000 
     27 CA         -3.6717  -19.0400  -43.7971 C.3       9 UNK         0.1400 
     28 CB         -4.1242  -18.6879  -42.3734 C.3       9 UNK        -0.1800 
     29 N          -3.2909  -17.8231  -44.5186 N.am      9 UNK        -0.5000 
     30 C          -3.1574  -17.7461  -45.8515 C.2       8 UNK         0.5000 
     31 O          -3.3652  -18.6890  -46.6121 O.2       8 UNK        -0.5000 
     32 CA         -2.6632  -16.4080  -46.4321 C.3       8 UNK         0.1400 
     33 CB         -3.8355  -15.4409  -46.6502 C.3       8 UNK        -0.1800 
     34 N          -1.6530  -15.7714  -45.5866 N.am      8 UNK        -0.5000 
     35 C          -0.4269  -16.2722  -45.3836 C.2       7 UNK         0.5000 
     36 O          -0.0139  -17.2932  -45.9339 O.2       7 UNK        -0.5000 
     37 CA          0.4610  -15.5388  -44.3579 C.3       7 UNK         0.1400 
     38 CB          1.2439  -14.4042  -45.0322 C.3       7 UNK        -0.1800 
     39 N          -0.2846  -14.9866  -43.2214 N.am      7 UNK        -0.5000 
     40 C          -1.0097  -15.7053  -42.3557 C.2       6 UNK         0.5000 
     41 O          -1.1370  -16.9282  -42.4264 O.2       6 UNK        -0.5000 
     42 CA         -1.6518  -14.9306  -41.1983 C.3       6 UNK         0.1400 
     43 CB         -2.9690  -15.5591  -40.7111 C.3       6 UNK        -0.1800 
     44 N          -0.6853  -14.9088  -40.1114 N.am      6 UNK        -0.5000 
     45 C          -0.4840  -13.8964  -39.2606 C.2       5 UNK         0.5000 
     46 O          -1.1686  -12.8727  -39.2382 O.2       5 UNK        -0.5000 
     47 CA          0.6986  -14.0442  -38.2788 C.3       5 UNK         0.1400 
     48 CB          0.2040  -14.5470  -36.9138 C.3       5 UNK        -0.1800 
     49 N           1.7546  -14.9411  -38.7650 N.am      5 UNK        -0.5000 
     50 C           2.5174  -14.7032  -39.8406 C.2       4 UNK         0.5000 
     51 O           2.4399  -13.6719  -40.5141 O.2       4 UNK        -0.5000 
     52 CA          3.4818  -15.8323  -40.2509 C.3       4 UNK         0.1400 
     53 CB          2.7000  -17.0305  -40.8188 C.3       4 UNK        -0.1800 
     54 N           4.4109  -15.3738  -41.2772 N.am      4 UNK        -0.5000 
     55 C           5.5115  -14.6433  -41.0815 C.2       3 UNK         0.5000 
     56 O           5.9663  -14.3934  -39.9631 O.2       3 UNK        -0.5000 
     57 CA          6.2108  -14.1033  -42.3544 C.3       3 UNK         0.1400 
     58 CB          7.5694  -13.4464  -42.0488 C.3       3 UNK        -0.1800 
     59 N           6.4054  -15.1087  -43.4079 N.am      3 UNK        -0.5000 
     60 C           5.4506  -15.6497  -44.1759 C.2       2 UNK         0.5000 
     61 O           4.2517  -15.3837  -44.0536 O.2       2 UNK        -0.5000 
     62 CA          5.9145  -16.6892  -45.2164 C.3       2 UNK         0.1400 
     63 CB          6.4118  -17.9686  -44.5230 C.3       2 UNK        -0.1800 
     64 N           4.8373  -17.0597  -46.1314 N.am      2 UNK        -0.5000 
     65 C           4.2871  -16.2730  -47.0635 C.2       1 UNK         0.5000 
     66 O           4.7374  -15.1684  -47.3728 O.2       1 UNK        -0.5000 
     67 C          -1.6329  -21.6450  -47.9847 C.2       11 UNK         0.5000 
     68 O          -1.5725  -22.5233  -48.8474 O.2       11 UNK        -0.5000 
     69 N          -2.7249  -21.4394  -47.2325 N.am      12 UNK        -0.5000 
     70 CA         -3.9144  -22.2969  -47.2432 C.3       12 UNK         0.1400 
     71 CB         -5.0488  -21.6666  -46.4236 C.3       12 UNK        -0.1800 
     72 C          -3.6181  -23.7318  -46.7731 C.2       12 UNK         0.5000 
     73 O          -4.2110  -24.6722  -47.3003 O.2       12 UNK        -0.5000 
     74 N          -2.6827  -23.8780  -45.8267 N.am      13 UNK        -0.5000 
     75 CA         -2.1626  -25.1698  -45.3907 C.3       13 UNK         0.1400 
     76 CB         -1.6114  -25.0434  -43.9615 C.3       13 UNK        -0.1800 
     77 C          -1.0866  -25.7033  -46.3544 C.2       13 UNK         0.5000 
     78 O          -1.1456  -26.8708  -46.7410 O.2       13 UNK        -0.5000 
     79 N          -0.1137  -24.8507  -46.7064 N.am      14 UNK        -0.5000 
     80 CA          1.0959  -25.2421  -47.4325 C.3       14 UNK         0.1400 
     81 CB          2.1677  -24.1554  -47.2588 C.3       14 UNK        -0.1800 
     82 C           0.8889  -25.5497  -48.9269 C.2       14 UNK         0.5000 
     83 O           1.5503  -26.4535  -49.4403 O.2       14 UNK        -0.5000 
     84 N           0.0175  -24.7930  -49.6072 N.am      15 UNK        -0.5000 
     85 CA         -0.1477  -24.8444  -51.0645 C.3       15 UNK         0.1400 
     86 CB          0.7338  -23.7617  -51.7132 C.3       15 UNK        -0.1800 
     87 C          -1.6193  -24.7209  -51.4944 C.2       15 UNK         0.5000 
     88 O          -1.8920  -24.3268  -52.6315 O.2       15 UNK        -0.5000 
     89 N          -2.5492  -25.0354  -50.5799 N.am      16 UNK        -0.5000 
     90 CA         -4.0052  -25.0170  -50.7709 C.3       16 UNK         0.1400 
     91 CB         -4.4322  -26.1616  -51.7141 C.3       16 UNK        -0.1800 
     92 C          -4.5489  -23.6442  -51.2241 C.2       16 UNK         0.5000 
     93 O          -5.5007  -23.5913  -52.0019 O.2       16 UNK        -0.5000 
     94 N          -3.9065  -22.5583  -50.7661 N.am      17 UNK        -0.5000 
     95 CA         -4.1791  -21.1603  -51.1229 C.3       17 UNK         0.1400 
     96 CB         -5.5713  -20.7127  -50.6285 C.3       17 UNK        -0.1800 
     97 C          -3.9542  -20.8933  -52.6258 C.2       17 UNK         0.5000 
     98 O          -4.7424  -20.1862  -53.2559 O.2       17 UNK        -0.5000 
     99 N          -2.8795  -21.4941  -53.1613 N.am      18 UNK        -0.5000 
    100 CA        -2.4713  -21.5057  -54.5681 C.3       18 UNK         0.1400 
    101 CB        -2.1466  -20.0819  -55.0709 C.3       18 UNK        -0.1800 
    102 C         -3.5059  -22.2456  -55.4358 C.2       18 UNK         0.5000 
    103 O         -3.9438  -21.7234  -56.4605 O.2       18 UNK        -0.5000 
    104 N         -3.9116  -23.4373  -54.9696 N.am      19 UNK        -0.5000 
    105 CA        -4.9903  -24.2703  -55.5180 C.3       19 UNK         0.1400 
    106 CB        -4.5775  -24.8745  -56.8760 C.3       19 UNK        -0.1800 
    107 C         -6.3350  -23.5108  -55.5707 C.2       19 UNK         0.5000 
    108 O         -7.0014  -23.4792  -56.6065 O.2       19 UNK        -0.5000 
    109 N         -6.6720  -22.8793  -54.4386 N.am      20 UNK        -0.5000 
    110 CA        -7.8412  -22.0429  -54.1588 C.3       20 UNK         0.1400 
    111 CB        -9.1479  -22.8433  -54.3333 C.3       20 UNK        -0.1800 
    112 C         -7.8866  -20.6923  -54.9048 C.2       20 UNK         0.5000 
    113 O         -8.8615  -19.9587  -54.7303 O.2       20 UNK        -0.5000 
    114 N         -6.8511  -20.3445  -55.6847 N.am      21 UNK        -0.5000 
    115 CA        -6.7806  -19.0975  -56.4554 C.3       21 UNK         0.1400 
    116 CB        -5.5704  -19.1327  -57.3985 C.3       21 UNK        -0.1800 
    117 C         -6.7471  -17.8283  -55.5820 C.2       21 UNK         0.5000 
    118 O         -7.2721  -16.7963  -56.0025 O.2       21 UNK        -0.5000 
    119 N         -6.1641  -17.9331  -54.3813 N.am      22 UNK        -0.5000 
    120 CA        -6.1776  -16.8887  -53.3456 C.3       22 UNK         0.1400 
    121 C         -7.4148  -16.9679  -52.3964 C.2       22 UNK         0.5000 
    122 N         -8.3798  -17.8546  -52.6162 N.am      22 UNK        -0.7600 
    123 O         -7.5172  -16.2012  -51.4434 O.2       22 UNK        -0.5000 
    124 C124       -4.8292  -16.8579  -52.5761 C.3       23 UNK        -0.0398 
    125 S125       -4.3524  -15.1772  -52.0368 S.3       23 UNK        -0.2404 
    126 C126       -3.3879  -15.5269  -50.5326 C.3       23 UNK        -0.0205 
    127 H127        3.8201  -20.2018  -49.7886 H         1 UNK         0.0600 
    128 H128        3.0454  -21.2725  -48.6185 H         1 UNK         0.0600 
    129 H129        4.7613  -20.8871  -48.4594 H         1 UNK         0.0600 
    130 H130        3.4072  -18.0280  -49.4347 H         1 UNK         0.3000 
    131 H131        2.3404  -17.0587  -46.9239 H         1 UNK         0.0600 
    132 H132        1.2487  -16.1677  -48.7677 H         1 UNK         0.0800 
    133 H133        2.1785  -14.8455  -48.1459 H         1 UNK         0.0800 
    134 H134        1.3462  -13.8688  -50.8037 H         1 UNK         0.0800 
    135 H135        1.9027  -14.6626  -52.2588 H         1 UNK         0.0800 
    136 H136       -1.0172  -14.1815  -50.7352 H         1 UNK         0.1150 
    137 H137       -2.6957  -18.1147  -51.0027 H         1 UNK         0.1150 
    138 H138        1.4774  -17.5244  -51.7379 H         1 UNK         0.1150 
    139 H139       -1.3524  -19.9855  -51.5643 H         1 UNK         0.0800 
    140 H140        0.0778  -19.6767  -52.5226 H         1 UNK         0.0800 
    141 H141       -1.2419  -19.1884  -48.9705 H         1 UNK         0.0800 
    142 H142        0.3119  -18.7865  -48.3035 H         1 UNK         0.0800 
    143 H143        0.4735  -21.4136  -47.8468 H         1 UNK         0.0600 
    144 H144       -0.4322  -19.2993  -46.1661 H         1 UNK         0.3000 
    145 H145       -0.1451  -21.2498  -43.1496 H         1 UNK         0.0600 
    146 H146        1.1372  -19.1691  -42.6103 H         1 UNK         0.0600 
    147 H147        2.0633  -20.2594  -43.6327 H         1 UNK         0.0600 
    148 H148        1.3248  -18.8299  -44.3293 H         1 UNK         0.0600 
    149 H149       -1.1382  -18.6153  -43.5903 H         1 UNK         0.3000 
    150 H150       -4.5228  -19.4856  -44.3153 H         1 UNK         0.0600 
    151 H151       -4.9065  -17.9289  -42.3795 H         1 UNK         0.0600 
    152 H152       -4.5271  -19.5668  -41.8687 H         1 UNK         0.0600 
    153 H153       -3.2973  -18.3197  -41.7678 H         1 UNK         0.0600 
    154 H154       -3.0374  -17.0251  -43.9555 H         1 UNK         0.3000 
    155 H155       -2.2106  -16.6164  -47.4046 H         1 UNK         0.0600 
    156 H156       -4.3156  -15.1686  -45.7095 H         1 UNK         0.0600 
    157 H157       -4.5969  -15.8894  -47.2899 H         1 UNK         0.0600 
    158 H158       -3.5037  -14.5236  -47.1369 H         1 UNK         0.0600 
    159 H159       -1.9204  -14.9272  -45.1023 H         1 UNK         0.3000 
    160 H160        1.1789  -16.2619  -43.9656 H         1 UNK         0.0600 
    161 H161        0.5818  -13.6654  -45.4853 H         1 UNK         0.0600 
    162 H162        1.8937  -14.7922  -45.8143 H         1 UNK         0.0600 
    163 H163        1.8843  -13.8881  -44.3164 H         1 UNK         0.0600 
    164 H164       -0.1977  -13.9913  -43.0723 H         1 UNK         0.3000 
    165 H165       -1.8586  -13.9151  -41.5433 H         1 UNK         0.0600 
    166 H166       -3.4425  -14.9348  -39.9533 H         1 UNK         0.0600 
    167 H167       -3.6787  -15.6694  -41.5317 H         1 UNK         0.0600 
    168 H168       -2.8077  -16.5443  -40.2729 H         1 UNK         0.0600 
    169 H169       -0.0657  -15.7052  -40.0667 H         1 UNK         0.3000 
    170 H170        1.1352  -13.0528  -38.1408 H         1 UNK         0.0600 
    171 H171       -0.5639  -13.8862  -36.5091 H         1 UNK         0.0600 
    172 H172       -0.2276  -15.5462  -36.9850 H         1 UNK         0.0600 
    173 H173        1.0161  -14.5814  -36.1874 H         1 UNK         0.0600 
    174 H174        1.8757  -15.8065  -38.2584 H         1 UNK         0.3000 
    175 H175        4.0438  -16.1532  -39.3715 H         1 UNK         0.0600 
    176 H176        2.0954  -16.7447  -41.6805 H         1 UNK         0.0600 
    177 H177        3.3748  -17.8257  -41.1367 H         1 UNK         0.0600 
    178 H178        2.0286  -17.4585  -40.0738 H         1 UNK         0.0600 
    179 H179        4.1043  -15.4758  -42.2418 H         1 UNK         0.3000 
    180 H180        5.5564  -13.3261  -42.7547 H         1 UNK         0.0600 
    181 H181        8.2791  -14.1650  -41.6370 H         1 UNK         0.0600 
    182 H182        7.4618  -12.6373  -41.3251 H         1 UNK         0.0600 
    183 H183        8.0107  -13.0149  -42.9474 H         1 UNK         0.0600 
    184 H184        7.3582  -15.4135  -43.5451 H         1 UNK         0.3000 
    185 H185        6.7305  -16.2552  -45.7975 H         1 UNK         0.0600 
    186 H186        7.2606  -17.7642  -43.8696 H         1 UNK         0.0600 
    187 H187        5.6299  -18.4238  -43.9133 H         1 UNK         0.0600 
    188 H188        6.7397  -18.7096  -45.2524 H         1 UNK         0.0600 
    189 H189        4.3911  -17.9571  -45.9675 H         1 UNK         0.3000 
    190 H190       -2.7510  -20.6329  -46.6190 H         1 UNK         0.3000 
    191 H191       -4.2692  -22.3608  -48.2672 H         1 UNK         0.0600 
    192 H192       -5.2531  -20.6454  -46.7450 H         1 UNK         0.0600 
    193 H193       -5.9718  -22.2341  -46.5477 H         1 UNK         0.0600 
    194 H194       -4.8246  -21.6514  -45.3590 H         1 UNK         0.0600 
    195 H195       -2.2559  -23.0509  -45.4295 H         1 UNK         0.3000 
    196 H196       -2.9801  -25.8939  -45.3658 H         1 UNK         0.0600 
    197 H197       -1.2348  -26.0022  -43.6031 H         1 UNK         0.0600 
    198 H198       -2.3884  -24.7192  -43.2690 H         1 UNK         0.0600 
    199 H199       -0.7926  -24.3262  -43.9009 H         1 UNK         0.0600 
    200 H200       -0.1167  -23.9150  -46.3076 H         1 UNK         0.3000 
    201 H201        1.4779  -26.1533  -46.9667 H         1 UNK         0.0600 
    202 H202        2.3803  -23.9724  -46.2053 H         1 UNK         0.0600 
    203 H203        1.8583  -23.2127  -47.7069 H         1 UNK         0.0600 
    204 H204        3.1047  -24.4500  -47.7331 H         1 UNK         0.0600 
    205 H205       -0.4933  -24.0537  -49.1302 H         1 UNK         0.3000 
    206 H206        0.1789  -25.8155  -51.4411 H         1 UNK         0.0600 
    207 H207        1.7738  -23.8541  -51.4002 H         1 UNK         0.0600 
    208 H208        0.7161  -23.8360  -52.8011 H         1 UNK         0.0600 
    209 H209        0.3902  -22.7631  -51.4470 H         1 UNK         0.0600 
    210 H210       -2.2290  -25.3299  -49.6680 H         1 UNK         0.3000 
    211 H211       -4.4545  -25.2144  -49.7988 H         1 UNK         0.0600 
    212 H212       -4.0537  -26.0166  -52.7261 H         1 UNK         0.0600 
    213 H213       -5.5185  -26.2354  -51.7778 H         1 UNK         0.0600 
    214 H214       -4.0655  -27.1233  -51.3553 H         1 UNK         0.0600 
    215 H215       -3.1066  -22.7078  -50.1583 H         1 UNK         0.3000 
    216 H216       -3.4415  -20.5606  -50.5890 H         1 UNK         0.0600 
    217 H217       -5.7246  -19.6472  -50.8007 H         1 UNK         0.0600 
    218 H218       -5.6862  -20.8832  -49.5587 H         1 UNK         0.0600 
    219 H219       -6.3762  -21.2404  -51.1394 H         1 UNK         0.0600 
    220 H220       -2.3584  -22.1294  -52.5708 H         1 UNK         0.3000 
    221 H221       -1.5519  -22.0910  -54.6197 H         1 UNK         0.0600 
    222 H222       -3.0245  -19.4364  -55.0748 H         1 UNK         0.0600 
    223 H223       -1.3887  -19.6060  -54.4504 H         1 UNK         0.0600 
    224 H224       -1.7597  -20.1090  -56.0901 H         1 UNK         0.0600 
    225 H225       -3.4793  -23.7770  -54.1182 H         1 UNK         0.3000 
    226 H226       -5.1317  -25.0955  -54.8188 H         1 UNK         0.0600 
    227 H227       -3.6390  -25.4225  -56.7935 H         1 UNK         0.0600 
    228 H228       -5.3319  -25.5751  -57.2358 H         1 UNK         0.0600 
    229 H229       -4.4522  -24.1083  -57.6416 H         1 UNK         0.0600 
    230 H230       -6.0649  -23.0176  -53.6321 H         1 UNK         0.3000 
    231 H231       -7.7597  -21.7862  -53.1020 H         1 UNK         0.0600 
    232 H232       -9.3415  -23.0829  -55.3790 H         1 UNK         0.0600 
    233 H233      -10.0055  -22.2783  -53.9663 H         1 UNK         0.0600 
    234 H234       -9.1153  -23.7782  -53.7737 H         1 UNK         0.0600 
    235 H235       -6.0628  -20.9741  -55.7634 H         1 UNK         0.3000 
    236 H236       -7.6812  -19.0451  -57.0706 H         1 UNK         0.0600 
    237 H237       -5.5974  -20.0096  -58.0456 H         1 UNK         0.0600 
    238 H238       -5.5525  -18.2528  -58.0427 H         1 UNK         0.0600 
    239 H239       -4.6316  -19.1506  -56.8454 H         1 UNK         0.0600 
    240 H240       -5.7544  -18.8236  -54.1065 H         1 UNK         0.3000 
    241 H241       -6.2772  -15.9296  -53.8566 H         1 UNK         0.0600 
    242 H242       -9.1709  -17.8785  -51.9929 H         1 UNK         0.3800 
    243 H243       -8.3586  -18.4771  -53.4151 H         1 UNK         0.3800 
    244 H244       -4.8591  -17.5369  -51.7235 H         1 UNK         0.0800 
    245 H245       -4.0206  -17.2182  -53.2144 H         1 UNK         0.0800 
    246 H246       -3.9344  -16.2202  -49.8914 H         1 UNK         0.0800 
    247 H247       -3.2859  -14.6038  -49.9601 H         1 UNK         0.0800 
@<TRIPOS>BOND
     1    1    2 1    
     2    1  127 1    
     3    1  128 1    
     4    1  129 1    
     5    2    3 2    
     6    2    4 am   BACKBONE|DICT|INTERRES
     7    4    5 1    
     8    4  130 1    
     9    5    6 1    
    10    5   65 1    
    11    5  131 1    
    12    6    7 1    
    13    6  132 1    
    14    6  133 1    
    15    7    8 1    
    16    8    9 1    
    17    8  134 1    
    18    8  135 1    
    19    9   10 ar   
    20    9   14 ar   
    21   10   11 ar   
    22   10  136 1    
    23   11   12 ar   
    24   11  126 1    
    25   12   13 ar   
    26   12  137 1    
    27   13   14 ar   
    28   13   15 1    
    29   14  138 1    
    30   15   16 1    
    31   15  139 1    
    32   15  140 1    
    33   16   17 1    
    34   17   18 1    
    35   17  141 1    
    36   17  142 1    
    37   18   19 1    
    38   18   67 1    
    39   18  143 1    
    40   19   20 am   BACKBONE|DICT|INTERRES
    41   19  144 1    
    42   20   21 2    
    43   20   22 1    
    44   22   23 1    
    45   22   24 1    
    46   22  145 1    
    47   23  146 1    
    48   23  147 1    
    49   23  148 1    
    50   24   25 am   BACKBONE|DICT|INTERRES
    51   24  149 1    
    52   25   26 2    
    53   25   27 1    
    54   27   28 1    
    55   27   29 1    
    56   27  150 1    
    57   28  151 1    
    58   28  152 1    
    59   28  153 1    
    60   29   30 am   BACKBONE|DICT|INTERRES
    61   29  154 1    
    62   30   31 2    
    63   30   32 1    
    64   32   33 1    
    65   32   34 1    
    66   32  155 1    
    67   33  156 1    
    68   33  157 1    
    69   33  158 1    
    70   34   35 am   BACKBONE|DICT|INTERRES
    71   34  159 1    
    72   35   36 2    
    73   35   37 1    
    74   37   38 1    
    75   37   39 1    
    76   37  160 1    
    77   38  161 1    
    78   38  162 1    
    79   38  163 1    
    80   39   40 am   BACKBONE|DICT|INTERRES
    81   39  164 1    
    82   40   41 2    
    83   40   42 1    
    84   42   43 1    
    85   42   44 1    
    86   42  165 1    
    87   43  166 1    
    88   43  167 1    
    89   43  168 1    
    90   44   45 am   BACKBONE|DICT|INTERRES
    91   44  169 1    
    92   45   46 2    
    93   45   47 1    
    94   47   48 1    
    95   47   49 1    
    96   47  170 1    
    97   48  171 1    
    98   48  172 1    
    99   48  173 1    
   100   49   50 am   BACKBONE|DICT|INTERRES
   101   49  174 1    
   102   50   51 2    
   103   50   52 1    
   104   52   53 1    
   105   52   54 1    
   106   52  175 1    
   107   53  176 1    
   108   53  177 1    
   109   53  178 1    
   110   54   55 am   BACKBONE|DICT|INTERRES
   111   54  179 1    
   112   55   56 2    
   113   55   57 1    
   114   57   58 1    
   115   57   59 1    
   116   57  180 1    
   117   58  181 1    
   118   58  182 1    
   119   58  183 1    
   120   59   60 am   BACKBONE|DICT|INTERRES
   121   59  184 1    
   122   60   61 2    
   123   60   62 1    
   124   62   63 1    
   125   62   64 1    
   126   62  185 1    
   127   63  186 1    
   128   63  187 1    
   129   63  188 1    
   130   64   65 am   BACKBONE|DICT|INTERRES
   131   64  189 1    
   132   65   66 2    
   133   67   68 2    
   134   67   69 am   BACKBONE|DICT|INTERRES
   135   69   70 1    
   136   69  190 1    
   137   70   71 1    
   138   70   72 1    
   139   70  191 1    
   140   71  192 1    
   141   71  193 1    
   142   71  194 1    
   143   72   73 2    
   144   72   74 am   BACKBONE|DICT|INTERRES
   145   74   75 1    
   146   74  195 1    
   147   75   76 1    
   148   75   77 1    
   149   75  196 1    
   150   76  197 1    
   151   76  198 1    
   152   76  199 1    
   153   77   78 2    
   154   77   79 am   BACKBONE|DICT|INTERRES
   155   79   80 1    
   156   79  200 1    
   157   80   81 1    
   158   80   82 1    
   159   80  201 1    
   160   81  202 1    
   161   81  203 1    
   162   81  204 1    
   163   82   83 2    
   164   82   84 am   BACKBONE|DICT|INTERRES
   165   84   85 1    
   166   84  205 1    
   167   85   86 1    
   168   85   87 1    
   169   85  206 1    
   170   86  207 1    
   171   86  208 1    
   172   86  209 1    
   173   87   88 2    
   174   87   89 am   BACKBONE|DICT|INTERRES
   175   89   90 1    
   176   89  210 1    
   177   90   91 1    
   178   90   92 1    
   179   90  211 1    
   180   91  212 1    
   181   91  213 1    
   182   91  214 1    
   183   92   93 2    
   184   92   94 am   BACKBONE|DICT|INTERRES
   185   94   95 1    
   186   94  215 1    
   187   95   96 1    
   188   95   97 1    
   189   95  216 1    
   190   96  217 1    
   191   96  218 1    
   192   96  219 1    
   193   97   98 2    
   194   97   99 am   BACKBONE|DICT|INTERRES
   195   99  100 1    
   196   99  220 1    
   197  100  101 1    
   198  100  102 1    
   199  100  221 1    
   200  101  222 1    
   201  101  223 1    
   202  101  224 1    
   203  102  103 2    
   204  102  104 am   BACKBONE|DICT|INTERRES
   205  104  105 1    
   206  104  225 1    
   207  105  106 1    
   208  105  107 1    
   209  105  226 1    
   210  106  227 1    
   211  106  228 1    
   212  106  229 1    
   213  107  108 2    
   214  107  109 am   BACKBONE|DICT|INTERRES
   215  109  110 1    
   216  109  230 1    
   217  110  111 1    
   218  110  112 1    
   219  110  231 1    
   220  111  232 1    
   221  111  233 1    
   222  111  234 1    
   223  112  113 2    
   224  112  114 am   BACKBONE|DICT|INTERRES
   225  114  115 1    
   226  114  235 1    
   227  115  116 1    
   228  115  117 1    
   229  115  236 1    
   230  116  237 1    
   231  116  238 1    
   232  116  239 1    
   233  117  118 2    
   234  117  119 am   BACKBONE|DICT|INTERRES
   235  119  120 1    
   236  119  240 1    
   237  120  121 1    
   238  120  124 1    
   239  120  241 1    
   240  121  122 am   BACKBONE|DICT|INTERRES
   241  121  123 2    
   242  122  242 1    
   243  122  243 1    
   244  124  125 1    
   245  124  244 1    
   246  124  245 1    
   247  125  126 1    
   248  126  246 1    
   249  126  247 1    
@<TRIPOS>SUBSTRUCTURE
     1 UNK         1 GROUP             0       ****    0 ROOT    
