@<TRIPOS>MOLECULE
3R540
247   249    1
SMALL
USER_CHARGES


@<TRIPOS>ATOM
      1 CA         -1.1987  -11.3795  -44.9535 C.3       0 UNK        -0.1800 
      2 C          -0.2580  -11.0653  -46.1082 C.2       0 UNK         0.5000 
      3 O           0.7703  -10.4222  -45.8995 O.2       0 UNK        -0.5000 
      4 N          -0.5947  -11.5354  -47.3180 N.am      1 UNK        -0.5000 
      5 CA          0.1327  -11.2944  -48.5754 C.3       1 UNK         0.1400 
      6 C6         -0.5739  -11.9421  -49.7917 C.3       23 UNK        -0.0398 
      7 S7         -2.3098  -11.4133  -50.0266 S.3       23 UNK        -0.2404 
      8 C8         -3.2900  -12.8280  -49.4084 C.3       23 UNK        -0.0205 
      9 C9         -2.8552  -14.1632  -49.9985 C.ar      23 UNK        -0.0193 
     10 C10        -3.0263  -14.4299  -51.3611 C.ar      23 UNK        -0.1150 
     11 C11        -2.5706  -15.6331  -51.9091 C.ar      23 UNK        -0.0193 
     12 C12        -1.9483  -16.5729  -51.0823 C.ar      23 UNK        -0.1150 
     13 C13        -1.8016  -16.3326  -49.7144 C.ar      23 UNK        -0.0193 
     14 C14        -2.2573  -15.1257  -49.1786 C.ar      23 UNK        -0.1150 
     15 C15        -1.1253  -17.3560  -48.8166 C.3       23 UNK        -0.0205 
     16 S16        -2.3389  -18.4395  -47.9947 S.3       23 UNK        -0.2404 
     17 C17        -1.3067  -19.1747  -46.6837 C.3       23 UNK        -0.0398 
     18 CA         -1.0427  -20.6872  -46.8385 C.3       11 UNK         0.1400 
     19 N           0.1510  -21.0880  -46.0944 N.am      11 UNK        -0.5000 
     20 C           0.7549  -22.2779  -46.2074 C.2       10 UNK         0.5000 
     21 O           0.3940  -23.1561  -46.9900 O.2       10 UNK        -0.5000 
     22 CA          1.9446  -22.5444  -45.2692 C.3       10 UNK         0.1400 
     23 CB          3.2502  -22.0466  -45.9070 C.3       10 UNK        -0.1800 
     24 N           1.7965  -21.9317  -43.9489 N.am      10 UNK        -0.5000 
     25 C           0.8327  -22.2080  -43.0595 C.2       9 UNK         0.5000 
     26 O          -0.0674  -23.0261  -43.2622 O.2       9 UNK        -0.5000 
     27 CA          0.8836  -21.4499  -41.7125 C.3       9 UNK         0.1400 
     28 CB          2.0011  -20.3856  -41.6330 C.3       9 UNK        -0.1800 
     29 N          -0.3889  -20.8312  -41.3278 N.am      9 UNK        -0.5000 
     30 C          -1.1597  -20.0266  -42.0731 C.2       8 UNK         0.5000 
     31 O          -1.0012  -19.8330  -43.2794 O.2       8 UNK        -0.5000 
     32 CA         -2.3056  -19.2846  -41.3578 C.3       8 UNK         0.1400 
     33 CB         -2.6686  -19.8328  -39.9591 C.3       8 UNK        -0.1800 
     34 N          -2.0140  -17.8519  -41.3292 N.am      8 UNK        -0.5000 
     35 C          -1.0070  -17.2316  -40.6990 C.2       7 UNK         0.5000 
     36 O          -0.2714  -17.7694  -39.8699 O.2       7 UNK        -0.5000 
     37 CA         -0.7584  -15.7711  -41.1303 C.3       7 UNK         0.1400 
     38 CB          0.1724  -15.0162  -40.1651 C.3       7 UNK        -0.1800 
     39 N          -0.1754  -15.7237  -42.4709 N.am      7 UNK        -0.5000 
     40 C          -0.8138  -15.9886  -43.6184 C.2       6 UNK         0.5000 
     41 O          -2.0238  -16.2093  -43.6865 O.2       6 UNK        -0.5000 
     42 CA          0.0298  -16.0317  -44.9027 C.3       6 UNK         0.1400 
     43 CB         -0.1306  -14.7352  -45.7070 C.3       6 UNK        -0.1800 
     44 N           1.4499  -16.2694  -44.6371 N.am      6 UNK        -0.5000 
     45 C           2.0420  -17.4738  -44.6280 C.2       5 UNK         0.5000 
     46 O           1.4703  -18.5263  -44.9126 O.2       5 UNK        -0.5000 
     47 CA          3.5315  -17.5243  -44.2363 C.3       5 UNK         0.1400 
     48 CB          4.4181  -17.6666  -45.4814 C.3       5 UNK        -0.1800 
     49 N           3.9584  -16.3546  -43.4653 N.am      5 UNK        -0.5000 
     50 C           3.7214  -16.2028  -42.1539 C.2       4 UNK         0.5000 
     51 O           3.1649  -17.0546  -41.4629 O.2       4 UNK        -0.5000 
     52 CA          4.1473  -14.8726  -41.4999 C.3       4 UNK         0.1400 
     53 CB          5.5285  -15.0171  -40.8435 C.3       4 UNK        -0.1800 
     54 N           4.1720  -13.7271  -42.4122 N.am      4 UNK        -0.5000 
     55 C           3.1233  -13.2552  -43.0991 C.2       3 UNK         0.5000 
     56 O           2.0036  -13.7667  -43.0609 O.2       3 UNK        -0.5000 
     57 CA          3.3610  -12.0411  -44.0206 C.3       3 UNK         0.1400 
     58 CB          4.7639  -11.4069  -43.8879 C.3       3 UNK        -0.1800 
     59 N           3.0834  -12.3650  -45.4226 N.am      3 UNK        -0.5000 
     60 C           3.6283  -13.3540  -46.1503 C.2       2 UNK         0.5000 
     61 O           4.4549  -14.1507  -45.7019 O.2       2 UNK        -0.5000 
     62 CA          3.1601  -13.4883  -47.6139 C.3       2 UNK         0.1400 
     63 CB          3.0832  -14.9589  -48.0633 C.3       2 UNK        -0.1800 
     64 N           1.8496  -12.8685  -47.8134 N.am      2 UNK        -0.5000 
     65 C           1.6028  -11.7700  -48.5375 C.2       1 UNK         0.5000 
     66 O           2.4644  -11.1395  -49.1512 O.2       1 UNK        -0.5000 
     67 C          -2.2573  -21.5444  -46.4340 C.2       11 UNK         0.5000 
     68 O          -2.9271  -22.0924  -47.3099 O.2       11 UNK        -0.5000 
     69 N          -2.4814  -21.7051  -45.1203 N.am      12 UNK        -0.5000 
     70 CA         -3.5349  -22.5600  -44.5634 C.3       12 UNK         0.1400 
     71 CB         -3.6582  -22.3486  -43.0491 C.3       12 UNK        -0.1800 
     72 C          -3.3323  -24.0502  -44.8830 C.2       12 UNK         0.5000 
     73 O          -4.3029  -24.7291  -45.2183 O.2       12 UNK        -0.5000 
     74 N          -2.0775  -24.5201  -44.8328 N.am      13 UNK        -0.5000 
     75 CA         -1.6838  -25.8811  -45.2139 C.3       13 UNK         0.1400 
     76 CB         -0.2000  -26.0953  -44.8816 C.3       13 UNK        -0.1800 
     77 C          -1.9626  -26.2044  -46.6970 C.2       13 UNK         0.5000 
     78 O          -2.2584  -27.3537  -47.0241 O.2       13 UNK        -0.5000 
     79 N          -1.9088  -25.1766  -47.5533 N.am      14 UNK        -0.5000 
     80 CA         -2.2591  -25.2221  -48.9720 C.3       14 UNK         0.1400 
     81 CB         -1.3005  -24.2936  -49.7353 C.3       14 UNK        -0.1800 
     82 C          -3.7400  -24.8661  -49.2369 C.2       14 UNK         0.5000 
     83 O          -4.0911  -24.5893  -50.3849 O.2       14 UNK        -0.5000 
     84 N          -4.5807  -24.8736  -48.1895 N.am      15 UNK        -0.5000 
     85 CA         -6.0246  -24.6114  -48.1985 C.3       15 UNK         0.1400 
     86 CB         -6.7705  -25.6857  -49.0189 C.3       15 UNK        -0.1800 
     87 C          -6.3602  -23.1720  -48.6358 C.2       15 UNK         0.5000 
     88 O          -7.1605  -22.9708  -49.5483 O.2       15 UNK        -0.5000 
     89 N          -5.6993  -22.1960  -47.9967 N.am      16 UNK        -0.5000 
     90 CA         -5.6956  -20.7639  -48.3301 C.3       16 UNK         0.1400 
     91 CB         -7.0933  -20.1352  -48.1521 C.3       16 UNK        -0.1800 
     92 C          -5.0782  -20.5166  -49.7223 C.2       16 UNK         0.5000 
     93 O          -5.5846  -19.7080  -50.5008 O.2       16 UNK        -0.5000 
     94 N          -4.0110  -21.2779  -50.0054 N.am      17 UNK        -0.5000 
     95 CA         -3.2608  -21.3688  -51.2598 C.3       17 UNK         0.1400 
     96 CB         -2.5240  -20.0534  -51.5564 C.3       17 UNK        -0.1800 
     97 C          -4.0675  -21.8766  -52.4724 C.2       17 UNK         0.5000 
     98 O          -3.5644  -21.8004  -53.5944 O.2       17 UNK        -0.5000 
     99 N          -5.2664  -22.4362  -52.2511 N.am      18 UNK        -0.5000 
    100 CA        -6.1182  -23.0164  -53.2912 C.3       18 UNK         0.1400 
    101 CB        -7.4906  -23.3721  -52.7052 C.3       18 UNK        -0.1800 
    102 C         -5.4883  -24.2464  -53.9677 C.2       18 UNK         0.5000 
    103 O         -5.6921  -24.4411  -55.1659 O.2       18 UNK        -0.5000 
    104 N         -4.6833  -25.0149  -53.2179 N.am      19 UNK        -0.5000 
    105 CA        -3.9084  -26.1505  -53.7278 C.3       19 UNK         0.1400 
    106 CB        -3.3115  -26.9259  -52.5435 C.3       19 UNK        -0.1800 
    107 C         -2.7957  -25.7356  -54.7134 C.2       19 UNK         0.5000 
    108 O         -2.3879  -26.5483  -55.5436 O.2       19 UNK        -0.5000 
    109 N         -2.3413  -24.4796  -54.6131 N.am      20 UNK        -0.5000 
    110 CA        -1.3576  -23.8553  -55.4969 C.3       20 UNK         0.1400 
    111 CB        -0.3550  -23.0825  -54.6219 C.3       20 UNK        -0.1800 
    112 C         -2.0174  -22.9102  -56.5224 C.2       20 UNK         0.5000 
    113 O         -1.2985  -22.2606  -57.2833 O.2       20 UNK        -0.5000 
    114 N         -3.3565  -22.7992  -56.4965 N.am      21 UNK        -0.5000 
    115 CA        -4.1921  -21.8628  -57.2614 C.3       21 UNK         0.1400 
    116 CB        -4.2264  -22.2694  -58.7487 C.3       21 UNK        -0.1800 
    117 C         -3.7966  -20.3813  -57.0527 C.2       21 UNK         0.5000 
    118 O         -3.9029  -19.5744  -57.9780 O.2       21 UNK        -0.5000 
    119 N         -3.3152  -20.0628  -55.8434 N.am      22 UNK        -0.5000 
    120 CA        -2.6831  -18.7922  -55.4536 C.3       22 UNK         0.1400 
    121 C         -1.3363  -18.4723  -56.1794 C.2       22 UNK         0.5000 
    122 N         -0.6971  -19.4159  -56.8615 N.am      22 UNK        -0.7600 
    123 O         -0.8331  -17.3555  -56.0955 O.2       22 UNK        -0.5000 
    124 C124       -3.6829  -17.5913  -55.4281 C.3       23 UNK        -0.0398 
    125 S125       -4.0831  -17.0715  -53.7255 S.3       23 UNK        -0.2404 
    126 C126       -2.7161  -15.9159  -53.3961 C.3       23 UNK        -0.0205 
    127 H127       -0.6577  -11.8892  -44.1558 H         1 UNK         0.0600 
    128 H128       -2.0261  -12.0174  -45.2651 H         1 UNK         0.0600 
    129 H129       -1.6138  -10.4569  -44.5482 H         1 UNK         0.0600 
    130 H130       -1.4651  -12.0347  -47.4199 H         1 UNK         0.3000 
    131 H131        0.1494  -10.2134  -48.7288 H         1 UNK         0.0600 
    132 H132       -0.0442  -11.6767  -50.7086 H         1 UNK         0.0800 
    133 H133       -0.5129  -13.0281  -49.7305 H         1 UNK         0.0800 
    134 H134       -4.3397  -12.6588  -49.6520 H         1 UNK         0.0800 
    135 H135       -3.2350  -12.8511  -48.3195 H         1 UNK         0.0800 
    136 H136       -3.4921  -13.6895  -51.9963 H         1 UNK         0.1150 
    137 H137       -1.5772  -17.4923  -51.5092 H         1 UNK         0.1150 
    138 H138       -2.1318  -14.9325  -48.1229 H         1 UNK         0.1150 
    139 H139       -0.4275  -17.9672  -49.3911 H         1 UNK         0.0800 
    140 H140       -0.5291  -16.8298  -48.0704 H         1 UNK         0.0800 
    141 H141       -0.3444  -18.6684  -46.7108 H         1 UNK         0.0800 
    142 H142       -1.7415  -18.9390  -45.7108 H         1 UNK         0.0800 
    143 H143       -0.8388  -20.8864  -47.8931 H         1 UNK         0.0600 
    144 H144        0.5078  -20.4189  -45.4194 H         1 UNK         0.3000 
    145 H145        2.0213  -23.6239  -45.1277 H         1 UNK         0.0600 
    146 H146        4.1135  -22.3020  -45.2923 H         1 UNK         0.0600 
    147 H147        3.4042  -22.5009  -46.8867 H         1 UNK         0.0600 
    148 H148        3.2426  -20.9644  -46.0441 H         1 UNK         0.0600 
    149 H149        2.4736  -21.2237  -43.7075 H         1 UNK         0.3000 
    150 H150        1.0958  -22.2067  -40.9563 H         1 UNK         0.0600 
    151 H151        2.9880  -20.8182  -41.8008 H         1 UNK         0.0600 
    152 H152        2.0252  -19.9205  -40.6470 H         1 UNK         0.0600 
    153 H153        1.8494  -19.5870  -42.3592 H         1 UNK         0.0600 
    154 H154       -0.6395  -20.9379  -40.3556 H         1 UNK         0.3000 
    155 H155       -3.1866  -19.3898  -41.9902 H         1 UNK         0.0600 
    156 H156       -3.5183  -19.2926  -39.5416 H         1 UNK         0.0600 
    157 H157       -1.8480  -19.7523  -39.2463 H         1 UNK         0.0600 
    158 H158       -2.9550  -20.8837  -40.0165 H         1 UNK         0.0600 
    159 H159       -2.4623  -17.3176  -42.0672 H         1 UNK         0.3000 
    160 H160       -1.7197  -15.2532  -41.1447 H         1 UNK         0.0600 
    161 H161        1.1562  -15.4828  -40.1068 H         1 UNK         0.0600 
    162 H162       -0.2433  -14.9982  -39.1570 H         1 UNK         0.0600 
    163 H163        0.3120  -13.9817  -40.4797 H         1 UNK         0.0600 
    164 H164        0.8077  -15.4923  -42.5197 H         1 UNK         0.3000 
    165 H165       -0.3741  -16.8392  -45.5074 H         1 UNK         0.0600 
    166 H166        0.3834  -13.9029  -45.2276 H         1 UNK         0.0600 
    167 H167        0.2673  -14.8551  -46.7127 H         1 UNK         0.0600 
    168 H168       -1.1817  -14.4626  -45.8098 H         1 UNK         0.0600 
    169 H169        1.9869  -15.4649  -44.3377 H         1 UNK         0.3000 
    170 H170        3.6762  -18.4189  -43.6272 H         1 UNK         0.0600 
    171 H171        4.1335  -18.5410  -46.0679 H         1 UNK         0.0600 
    172 H172        4.3412  -16.7974  -46.1322 H         1 UNK         0.0600 
    173 H173        5.4660  -17.7868  -45.2067 H         1 UNK         0.0600 
    174 H174        4.3961  -15.6005  -43.9823 H         1 UNK         0.3000 
    175 H175        3.4205  -14.6494  -40.7165 H         1 UNK         0.0600 
    176 H176        6.3068  -15.2081  -41.5835 H         1 UNK         0.0600 
    177 H177        5.8008  -14.1165  -40.2929 H         1 UNK         0.0600 
    178 H178        5.5396  -15.8454  -40.1338 H         1 UNK         0.0600 
    179 H179        5.0634  -13.2683  -42.5314 H         1 UNK         0.3000 
    180 H180        2.6275  -11.2894  -43.7256 H         1 UNK         0.0600 
    181 H181        4.9606  -11.0922  -42.8622 H         1 UNK         0.0600 
    182 H182        5.5581  -12.0912  -44.1886 H         1 UNK         0.0600 
    183 H183        4.8455  -10.5177  -44.5131 H         1 UNK         0.0600 
    184 H184        2.3926  -11.7695  -45.8653 H         1 UNK         0.3000 
    185 H185        3.9124  -12.9898  -48.2279 H         1 UNK         0.0600 
    186 H186        4.0736  -15.4147  -48.0719 H         1 UNK         0.0600 
    187 H187        2.4516  -15.5548  -47.4044 H         1 UNK         0.0600 
    188 H188        2.6850  -15.0423  -49.0746 H         1 UNK         0.0600 
    189 H189        1.0760  -13.2945  -47.3253 H         1 UNK         0.3000 
    190 H190       -1.8654  -21.2366  -44.4629 H         1 UNK         0.3000 
    191 H191       -4.4805  -22.2570  -45.0178 H         1 UNK         0.0600 
    192 H192       -4.4035  -23.0198  -42.6201 H         1 UNK         0.0600 
    193 H193       -3.9805  -21.3342  -42.8246 H         1 UNK         0.0600 
    194 H194       -2.7157  -22.5375  -42.5349 H         1 UNK         0.0600 
    195 H195       -1.3416  -23.9085  -44.4906 H         1 UNK         0.3000 
    196 H196       -2.2714  -26.5753  -44.6097 H         1 UNK         0.0600 
    197 H197        0.1008  -27.1232  -45.0873 H         1 UNK         0.0600 
    198 H198        0.0023  -25.9009  -43.8282 H         1 UNK         0.0600 
    199 H199        0.4413  -25.4426  -45.4730 H         1 UNK         0.0600 
    200 H200       -1.6267  -24.2712  -47.1975 H         1 UNK         0.3000 
    201 H201       -2.1103  -26.2350  -49.3510 H         1 UNK         0.0600 
    202 H202       -0.2648  -24.6029  -49.5940 H         1 UNK         0.0600 
    203 H203       -1.3839  -23.2631  -49.3894 H         1 UNK         0.0600 
    204 H204       -1.4954  -24.3093  -50.8081 H         1 UNK         0.0600 
    205 H205       -4.1930  -25.0669  -47.2734 H         1 UNK         0.3000 
    206 H206       -6.3598  -24.7010  -47.1643 H         1 UNK         0.0600 
    207 H207       -6.5379  -26.6875  -48.6580 H         1 UNK         0.0600 
    208 H208       -7.8503  -25.5553  -48.9405 H         1 UNK         0.0600 
    209 H209       -6.5143  -25.6440  -50.0778 H         1 UNK         0.0600 
    210 H210       -4.9779  -22.4746  -47.3426 H         1 UNK         0.3000 
    211 H211       -5.0297  -20.2823  -47.6127 H         1 UNK         0.0600 
    212 H212       -7.8054  -20.5037  -48.8907 H         1 UNK         0.0600 
    213 H213       -7.0460  -19.0511  -48.2606 H         1 UNK         0.0600 
    214 H214       -7.4966  -20.3451  -47.1616 H         1 UNK         0.0600 
    215 H215       -3.6845  -21.8843  -49.2615 H         1 UNK         0.3000 
    216 H216       -2.4980  -22.1265  -51.0942 H         1 UNK         0.0600 
    217 H217       -3.2217  -19.2464  -51.7787 H         1 UNK         0.0600 
    218 H218       -1.8536  -20.1587  -52.4095 H         1 UNK         0.0600 
    219 H219       -1.9137  -19.7508  -50.7065 H         1 UNK         0.0600 
    220 H220       -5.6027  -22.5047  -51.2994 H         1 UNK         0.3000 
    221 H221       -6.2641  -22.2545  -54.0597 H         1 UNK         0.0600 
    222 H222       -7.4133  -24.1549  -51.9500 H         1 UNK         0.0600 
    223 H223       -7.9609  -22.5037  -52.2435 H         1 UNK         0.0600 
    224 H224       -8.1650  -23.7332  -53.4826 H         1 UNK         0.0600 
    225 H225       -4.5579  -24.7836  -52.2344 H         1 UNK         0.3000 
    226 H226       -4.5932  -26.8130  -54.2611 H         1 UNK         0.0600 
    227 H227       -4.0868  -27.2402  -51.8444 H         1 UNK         0.0600 
    228 H228       -2.7965  -27.8246  -52.8850 H         1 UNK         0.0600 
    229 H229       -2.5880  -26.3230  -51.9941 H         1 UNK         0.0600 
    230 H230       -2.7597  -23.8692  -53.9233 H         1 UNK         0.3000 
    231 H231       -0.8102  -24.6153  -56.0576 H         1 UNK         0.0600 
    232 H232       -0.8388  -22.2737  -54.0726 H         1 UNK         0.0600 
    233 H233        0.1234  -23.7405  -53.8962 H         1 UNK         0.0600 
    234 H234        0.4369  -22.6396  -55.2272 H         1 UNK         0.0600 
    235 H235       -3.8611  -23.3819  -55.8413 H         1 UNK         0.3000 
    236 H236       -5.2036  -21.9643  -56.8658 H         1 UNK         0.0600 
    237 H237       -4.5235  -23.3116  -58.8645 H         1 UNK         0.0600 
    238 H238       -4.9446  -21.6654  -59.3044 H         1 UNK         0.0600 
    239 H239       -3.2536  -22.1427  -59.2247 H         1 UNK         0.0600 
    240 H240       -3.3065  -20.7857  -55.1268 H         1 UNK         0.3000 
    241 H241       -2.3534  -18.9794  -54.4323 H         1 UNK         0.0600 
    242 H242       -1.0691  -20.3560  -56.9543 H         1 UNK         0.3800 
    243 H243        0.1754  -19.1867  -57.3097 H         1 UNK         0.3800 
    244 H244       -4.6226  -17.8538  -55.9147 H         1 UNK         0.0800 
    245 H245       -3.3176  -16.7252  -55.9820 H         1 UNK         0.0800 
    246 H246       -1.7806  -16.3361  -53.7670 H         1 UNK         0.0800 
    247 H247       -2.8811  -14.9920  -53.9525 H         1 UNK         0.0800 
@<TRIPOS>BOND
     1    1    2 1    
     2    1  127 1    
     3    1  128 1    
     4    1  129 1    
     5    2    3 2    
     6    2    4 am   BACKBONE|DICT|INTERRES
     7    4    5 1    
     8    4  130 1    
     9    5    6 1    
    10    5   65 1    
    11    5  131 1    
    12    6    7 1    
    13    6  132 1    
    14    6  133 1    
    15    7    8 1    
    16    8    9 1    
    17    8  134 1    
    18    8  135 1    
    19    9   10 ar   
    20    9   14 ar   
    21   10   11 ar   
    22   10  136 1    
    23   11   12 ar   
    24   11  126 1    
    25   12   13 ar   
    26   12  137 1    
    27   13   14 ar   
    28   13   15 1    
    29   14  138 1    
    30   15   16 1    
    31   15  139 1    
    32   15  140 1    
    33   16   17 1    
    34   17   18 1    
    35   17  141 1    
    36   17  142 1    
    37   18   19 1    
    38   18   67 1    
    39   18  143 1    
    40   19   20 am   BACKBONE|DICT|INTERRES
    41   19  144 1    
    42   20   21 2    
    43   20   22 1    
    44   22   23 1    
    45   22   24 1    
    46   22  145 1    
    47   23  146 1    
    48   23  147 1    
    49   23  148 1    
    50   24   25 am   BACKBONE|DICT|INTERRES
    51   24  149 1    
    52   25   26 2    
    53   25   27 1    
    54   27   28 1    
    55   27   29 1    
    56   27  150 1    
    57   28  151 1    
    58   28  152 1    
    59   28  153 1    
    60   29   30 am   BACKBONE|DICT|INTERRES
    61   29  154 1    
    62   30   31 2    
    63   30   32 1    
    64   32   33 1    
    65   32   34 1    
    66   32  155 1    
    67   33  156 1    
    68   33  157 1    
    69   33  158 1    
    70   34   35 am   BACKBONE|DICT|INTERRES
    71   34  159 1    
    72   35   36 2    
    73   35   37 1    
    74   37   38 1    
    75   37   39 1    
    76   37  160 1    
    77   38  161 1    
    78   38  162 1    
    79   38  163 1    
    80   39   40 am   BACKBONE|DICT|INTERRES
    81   39  164 1    
    82   40   41 2    
    83   40   42 1    
    84   42   43 1    
    85   42   44 1    
    86   42  165 1    
    87   43  166 1    
    88   43  167 1    
    89   43  168 1    
    90   44   45 am   BACKBONE|DICT|INTERRES
    91   44  169 1    
    92   45   46 2    
    93   45   47 1    
    94   47   48 1    
    95   47   49 1    
    96   47  170 1    
    97   48  171 1    
    98   48  172 1    
    99   48  173 1    
   100   49   50 am   BACKBONE|DICT|INTERRES
   101   49  174 1    
   102   50   51 2    
   103   50   52 1    
   104   52   53 1    
   105   52   54 1    
   106   52  175 1    
   107   53  176 1    
   108   53  177 1    
   109   53  178 1    
   110   54   55 am   BACKBONE|DICT|INTERRES
   111   54  179 1    
   112   55   56 2    
   113   55   57 1    
   114   57   58 1    
   115   57   59 1    
   116   57  180 1    
   117   58  181 1    
   118   58  182 1    
   119   58  183 1    
   120   59   60 am   BACKBONE|DICT|INTERRES
   121   59  184 1    
   122   60   61 2    
   123   60   62 1    
   124   62   63 1    
   125   62   64 1    
   126   62  185 1    
   127   63  186 1    
   128   63  187 1    
   129   63  188 1    
   130   64   65 am   BACKBONE|DICT|INTERRES
   131   64  189 1    
   132   65   66 2    
   133   67   68 2    
   134   67   69 am   BACKBONE|DICT|INTERRES
   135   69   70 1    
   136   69  190 1    
   137   70   71 1    
   138   70   72 1    
   139   70  191 1    
   140   71  192 1    
   141   71  193 1    
   142   71  194 1    
   143   72   73 2    
   144   72   74 am   BACKBONE|DICT|INTERRES
   145   74   75 1    
   146   74  195 1    
   147   75   76 1    
   148   75   77 1    
   149   75  196 1    
   150   76  197 1    
   151   76  198 1    
   152   76  199 1    
   153   77   78 2    
   154   77   79 am   BACKBONE|DICT|INTERRES
   155   79   80 1    
   156   79  200 1    
   157   80   81 1    
   158   80   82 1    
   159   80  201 1    
   160   81  202 1    
   161   81  203 1    
   162   81  204 1    
   163   82   83 2    
   164   82   84 am   BACKBONE|DICT|INTERRES
   165   84   85 1    
   166   84  205 1    
   167   85   86 1    
   168   85   87 1    
   169   85  206 1    
   170   86  207 1    
   171   86  208 1    
   172   86  209 1    
   173   87   88 2    
   174   87   89 am   BACKBONE|DICT|INTERRES
   175   89   90 1    
   176   89  210 1    
   177   90   91 1    
   178   90   92 1    
   179   90  211 1    
   180   91  212 1    
   181   91  213 1    
   182   91  214 1    
   183   92   93 2    
   184   92   94 am   BACKBONE|DICT|INTERRES
   185   94   95 1    
   186   94  215 1    
   187   95   96 1    
   188   95   97 1    
   189   95  216 1    
   190   96  217 1    
   191   96  218 1    
   192   96  219 1    
   193   97   98 2    
   194   97   99 am   BACKBONE|DICT|INTERRES
   195   99  100 1    
   196   99  220 1    
   197  100  101 1    
   198  100  102 1    
   199  100  221 1    
   200  101  222 1    
   201  101  223 1    
   202  101  224 1    
   203  102  103 2    
   204  102  104 am   BACKBONE|DICT|INTERRES
   205  104  105 1    
   206  104  225 1    
   207  105  106 1    
   208  105  107 1    
   209  105  226 1    
   210  106  227 1    
   211  106  228 1    
   212  106  229 1    
   213  107  108 2    
   214  107  109 am   BACKBONE|DICT|INTERRES
   215  109  110 1    
   216  109  230 1    
   217  110  111 1    
   218  110  112 1    
   219  110  231 1    
   220  111  232 1    
   221  111  233 1    
   222  111  234 1    
   223  112  113 2    
   224  112  114 am   BACKBONE|DICT|INTERRES
   225  114  115 1    
   226  114  235 1    
   227  115  116 1    
   228  115  117 1    
   229  115  236 1    
   230  116  237 1    
   231  116  238 1    
   232  116  239 1    
   233  117  118 2    
   234  117  119 am   BACKBONE|DICT|INTERRES
   235  119  120 1    
   236  119  240 1    
   237  120  121 1    
   238  120  124 1    
   239  120  241 1    
   240  121  122 am   BACKBONE|DICT|INTERRES
   241  121  123 2    
   242  122  242 1    
   243  122  243 1    
   244  124  125 1    
   245  124  244 1    
   246  124  245 1    
   247  125  126 1    
   248  126  246 1    
   249  126  247 1    
@<TRIPOS>SUBSTRUCTURE
     1 UNK         1 GROUP             0       ****    0 ROOT    
