@<TRIPOS>MOLECULE
3R540
247   249    1
SMALL
USER_CHARGES


@<TRIPOS>ATOM
      1 CA         -1.1196  -14.9557  -46.4967 C.3       0 UNK        -0.1800 
      2 C          -0.3321  -14.4240  -47.6857 C.2       0 UNK         0.5000 
      3 O          -0.3369  -13.2187  -47.9315 O.2       0 UNK        -0.5000 
      4 N           0.3770  -15.3134  -48.3928 N.am      1 UNK        -0.5000 
      5 CA          1.2448  -15.0534  -49.5546 C.3       1 UNK         0.1400 
      6 C6          1.8766  -16.3603  -50.1158 C.3       23 UNK        -0.0398 
      7 S7          2.4448  -17.5273  -48.8141 S.3       23 UNK        -0.2404 
      8 C8          1.6361  -19.1155  -49.2243 C.3       23 UNK        -0.0205 
      9 C9          0.1918  -18.9777  -49.6869 C.ar      23 UNK        -0.0193 
     10 C10        -0.1476  -19.3142  -51.0010 C.ar      23 UNK        -0.1150 
     11 C11        -1.4593  -19.1671  -51.4560 C.ar      23 UNK        -0.0193 
     12 C12        -2.4384  -18.6913  -50.5823 C.ar      23 UNK        -0.1150 
     13 C13        -2.1134  -18.3436  -49.2699 C.ar      23 UNK        -0.0193 
     14 C14        -0.7971  -18.4986  -48.8218 C.ar      23 UNK        -0.1150 
     15 C15        -3.1916  -17.7811  -48.3581 C.3       23 UNK        -0.0205 
     16 S16        -4.1192  -19.0990  -47.5184 S.3       23 UNK        -0.2404 
     17 C17        -2.9252  -19.6066  -46.2383 C.3       23 UNK        -0.0398 
     18 CA         -2.1404  -20.8852  -46.6182 C.3       11 UNK         0.1400 
     19 N          -0.8463  -20.9469  -45.9346 N.am      11 UNK        -0.5000 
     20 C           0.0615  -21.9230  -46.0659 C.2       10 UNK         0.5000 
     21 O          -0.0540  -22.8615  -46.8544 O.2       10 UNK        -0.5000 
     22 CA          1.2680  -21.8891  -45.1091 C.3       10 UNK         0.1400 
     23 CB          2.4619  -21.1917  -45.7745 C.3       10 UNK        -0.1800 
     24 N           0.9801  -21.2607  -43.8137 N.am      10 UNK        -0.5000 
     25 C           0.0520  -21.6835  -42.9401 C.2       9 UNK         0.5000 
     26 O          -0.6658  -22.6657  -43.1303 O.2       9 UNK        -0.5000 
     27 CA         -0.1585  -20.8327  -41.6751 C.3       9 UNK         0.1400 
     28 CB          0.9674  -21.0630  -40.6563 C.3       9 UNK        -0.1800 
     29 N          -0.2711  -19.4078  -41.9873 N.am      9 UNK        -0.5000 
     30 C          -1.2841  -18.8637  -42.6775 C.2       8 UNK         0.5000 
     31 O          -2.2779  -19.4941  -43.0358 O.2       8 UNK        -0.5000 
     32 CA         -1.1429  -17.3836  -43.0834 C.3       8 UNK         0.1400 
     33 CB         -1.6123  -16.4528  -41.9565 C.3       8 UNK        -0.1800 
     34 N           0.2258  -17.0388  -43.4674 N.am      8 UNK        -0.5000 
     35 C           0.8715  -17.5540  -44.5223 C.2       7 UNK         0.5000 
     36 O           0.3486  -18.3111  -45.3386 O.2       7 UNK        -0.5000 
     37 CA          2.3594  -17.1951  -44.6624 C.3       7 UNK         0.1400 
     38 CB          2.5359  -15.8459  -45.3690 C.3       7 UNK        -0.1800 
     39 N           3.0333  -17.1625  -43.3658 N.am      7 UNK        -0.5000 
     40 C           3.3360  -18.2521  -42.6470 C.2       6 UNK         0.5000 
     41 O           3.1096  -19.4010  -43.0245 O.2       6 UNK        -0.5000 
     42 CA          3.9581  -18.0161  -41.2578 C.3       6 UNK         0.1400 
     43 CB          5.4801  -17.8450  -41.3701 C.3       6 UNK        -0.1800 
     44 N           3.3891  -16.8514  -40.5775 N.am      6 UNK        -0.5000 
     45 C           2.1228  -16.7720  -40.1444 C.2       5 UNK         0.5000 
     46 O           1.3184  -17.6995  -40.2209 O.2       5 UNK        -0.5000 
     47 CA          1.6632  -15.4105  -39.5854 C.3       5 UNK         0.1400 
     48 CB          1.9463  -15.3239  -38.0785 C.3       5 UNK        -0.1800 
     49 N           2.2756  -14.2618  -40.2626 N.am      5 UNK        -0.5000 
     50 C           2.1577  -13.9948  -41.5704 C.2       4 UNK         0.5000 
     51 O           1.5214  -14.7053  -42.3513 O.2       4 UNK        -0.5000 
     52 CA          2.9496  -12.7799  -42.0904 C.3       4 UNK         0.1400 
     53 CB          4.4439  -13.1298  -42.1874 C.3       4 UNK        -0.1800 
     54 N           2.5102  -12.3153  -43.4061 N.am      4 UNK        -0.5000 
     55 C           1.3146  -11.8025  -43.7152 C.2       3 UNK         0.5000 
     56 O           0.4125  -11.6438  -42.8913 O.2       3 UNK        -0.5000 
     57 CA          1.0694  -11.3749  -45.1813 C.3       3 UNK         0.1400 
     58 CB          1.1843   -9.8454  -45.3258 C.3       3 UNK        -0.1800 
     59 N           1.8713  -12.0520  -46.2162 N.am      3 UNK        -0.5000 
     60 C           3.1996  -12.0315  -46.4179 C.2       2 UNK         0.5000 
     61 O           3.9906  -11.4583  -45.6690 O.2       2 UNK        -0.5000 
     62 CA          3.7386  -12.7978  -47.6427 C.3       2 UNK         0.1400 
     63 CB          5.1095  -13.4453  -47.3745 C.3       2 UNK        -0.1800 
     64 N           2.7965  -13.8288  -48.0808 N.am      2 UNK        -0.5000 
     65 C           2.3261  -13.9707  -49.3257 C.2       1 UNK         0.5000 
     66 O           2.6913  -13.2783  -50.2769 O.2       1 UNK        -0.5000 
     67 C          -2.9969  -22.1490  -46.3890 C.2       11 UNK         0.5000 
     68 O          -3.6359  -22.6254  -47.3260 O.2       11 UNK        -0.5000 
     69 N          -2.9639  -22.6883  -45.1640 N.am      12 UNK        -0.5000 
     70 CA         -3.6445  -23.9253  -44.7959 C.3       12 UNK         0.1400 
     71 CB         -4.1516  -23.8076  -43.3502 C.3       12 UNK        -0.1800 
     72 C          -2.7186  -25.1433  -44.9462 C.2       12 UNK         0.5000 
     73 O          -3.1489  -26.1686  -45.4731 O.2       12 UNK        -0.5000 
     74 N          -1.4762  -25.0213  -44.4611 N.am      13 UNK        -0.5000 
     75 CA         -0.5377  -26.1341  -44.3204 C.3       13 UNK         0.1400 
     76 CB          0.5586  -25.7437  -43.3169 C.3       13 UNK        -0.1800 
     77 C           0.0912  -26.6131  -45.6403 C.2       13 UNK         0.5000 
     78 O           0.3694  -27.8071  -45.7619 O.2       13 UNK        -0.5000 
     79 N           0.3296  -25.6932  -46.5840 N.am      14 UNK        -0.5000 
     80 CA          1.0223  -25.9697  -47.8427 C.3       14 UNK         0.1400 
     81 CB          2.2888  -25.1008  -47.9360 C.3       14 UNK        -0.1800 
     82 C           0.1036  -25.7378  -49.0490 C.2       14 UNK         0.5000 
     83 O          -0.0145  -26.6266  -49.8937 O.2       14 UNK        -0.5000 
     84 N          -0.5262  -24.5566  -49.1205 N.am      15 UNK        -0.5000 
     85 CA         -1.3811  -24.1661  -50.2454 C.3       15 UNK         0.1400 
     86 CB         -1.5085  -22.6368  -50.2894 C.3       15 UNK        -0.1800 
     87 C          -2.7712  -24.8261  -50.2045 C.2       15 UNK         0.5000 
     88 O          -3.3662  -25.0345  -51.2612 O.2       15 UNK        -0.5000 
     89 N          -3.2572  -25.1350  -48.9930 N.am      16 UNK        -0.5000 
     90 CA         -4.5628  -25.7298  -48.6843 C.3       16 UNK         0.1400 
     91 CB         -4.6056  -27.2011  -49.1460 C.3       16 UNK        -0.1800 
     92 C          -5.7524  -24.8920  -49.2046 C.2       16 UNK         0.5000 
     93 O          -6.7239  -25.4523  -49.7160 O.2       16 UNK        -0.5000 
     94 N          -5.6414  -23.5618  -49.0588 N.am      17 UNK        -0.5000 
     95 CA         -6.5903  -22.5284  -49.4884 C.3       17 UNK         0.1400 
     96 CB         -7.8487  -22.5548  -48.5969 C.3       17 UNK        -0.1800 
     97 C          -6.9102  -22.6093  -50.9974 C.2       17 UNK         0.5000 
     98 O          -8.0770  -22.7111  -51.3835 O.2       17 UNK        -0.5000 
     99 N          -5.8475  -22.6088  -51.8142 N.am      18 UNK        -0.5000 
    100 CA        -5.8804  -22.7567  -53.2705 C.3       18 UNK         0.1400 
    101 CB        -4.4411  -22.6988  -53.8076 C.3       18 UNK        -0.1800 
    102 C         -6.7469  -21.7043  -53.9901 C.2       18 UNK         0.5000 
    103 O         -6.7242  -20.5264  -53.6223 O.2       18 UNK        -0.5000 
    104 N         -7.4582  -22.1513  -55.0309 N.am      19 UNK        -0.5000 
    105 CA        -8.1880  -21.2983  -55.9657 C.3       19 UNK         0.1400 
    106 CB        -9.3704  -22.0919  -56.5441 C.3       19 UNK        -0.1800 
    107 C         -7.2511  -20.8264  -57.0919 C.2       19 UNK         0.5000 
    108 O         -6.3365  -21.5646  -57.4681 O.2       19 UNK        -0.5000 
    109 N         -7.5322  -19.6249  -57.6171 N.am      20 UNK        -0.5000 
    110 CA        -6.7724  -18.8587  -58.6158 C.3       20 UNK         0.1400 
    111 CB        -6.5501  -19.6587  -59.9149 C.3       20 UNK        -0.1800 
    112 C         -5.4464  -18.3012  -58.0597 C.2       20 UNK         0.5000 
    113 O         -4.8300  -18.9048  -57.1785 O.2       20 UNK        -0.5000 
    114 N         -5.0397  -17.1322  -58.5765 N.am      21 UNK        -0.5000 
    115 CA        -3.9036  -16.3236  -58.1174 C.3       21 UNK         0.1400 
    116 CB        -2.5621  -17.0132  -58.4580 C.3       21 UNK        -0.1800 
    117 C         -4.0687  -15.9498  -56.6280 C.2       21 UNK         0.5000 
    118 O         -4.9640  -15.1666  -56.3058 O.2       21 UNK        -0.5000 
    119 N         -3.2420  -16.5327  -55.7533 N.am      22 UNK        -0.5000 
    120 CA        -3.3755  -16.4567  -54.2910 C.3       22 UNK         0.1400 
    121 C         -4.5296  -17.3153  -53.6919 C.2       22 UNK         0.5000 
    122 N         -5.1015  -18.2683  -54.4171 N.am      22 UNK        -0.7600 
    123 O         -4.9122  -17.1070  -52.5444 O.2       22 UNK        -0.5000 
    124 C124       -2.0260  -16.7380  -53.5782 C.3       23 UNK        -0.0398 
    125 S125       -1.1942  -18.2897  -54.0886 S.3       23 UNK        -0.2404 
    126 C126       -1.8194  -19.5158  -52.8914 C.3       23 UNK        -0.0205 
    127 H127       -0.7719  -14.4866  -45.5759 H         1 UNK         0.0600 
    128 H128       -1.0089  -16.0340  -46.3868 H         1 UNK         0.0600 
    129 H129       -2.1793  -14.7314  -46.6164 H         1 UNK         0.0600 
    130 H130        0.3446  -16.2869  -48.1257 H         1 UNK         0.3000 
    131 H131        0.5906  -14.6511  -50.3309 H         1 UNK         0.0600 
    132 H132        2.7193  -16.1463  -50.7762 H         1 UNK         0.0800 
    133 H133        1.1486  -16.8445  -50.7634 H         1 UNK         0.0800 
    134 H134        2.2343  -19.6174  -49.9862 H         1 UNK         0.0800 
    135 H135        1.6631  -19.7613  -48.3464 H         1 UNK         0.0800 
    136 H136        0.6109  -19.6776  -51.6800 H         1 UNK         0.1150 
    137 H137       -3.4563  -18.5769  -50.9268 H         1 UNK         0.1150 
    138 H138       -0.5381  -18.2419  -47.8051 H         1 UNK         0.1150 
    139 H139       -2.7632  -17.0986  -47.6252 H         1 UNK         0.0800 
    140 H140       -3.8907  -17.1854  -48.9472 H         1 UNK         0.0800 
    141 H141       -3.4689  -19.7396  -45.3022 H         1 UNK         0.0800 
    142 H142       -2.2393  -18.7788  -46.0578 H         1 UNK         0.0800 
    143 H143       -1.9063  -20.8403  -47.6816 H         1 UNK         0.0600 
    144 H144       -0.6203  -20.1736  -45.3200 H         1 UNK         0.3000 
    145 H145        1.5526  -22.9239  -44.9142 H         1 UNK         0.0600 
    146 H146        3.3478  -21.2347  -45.1410 H         1 UNK         0.0600 
    147 H147        2.7162  -21.6699  -46.7213 H         1 UNK         0.0600 
    148 H148        2.2490  -20.1442  -45.9832 H         1 UNK         0.0600 
    149 H149        1.5600  -20.4652  -43.5628 H         1 UNK         0.3000 
    150 H150       -1.0963  -21.1505  -41.2145 H         1 UNK         0.0600 
    151 H151        1.0437  -22.1186  -40.3927 H         1 UNK         0.0600 
    152 H152        0.7827  -20.5100  -39.7352 H         1 UNK         0.0600 
    153 H153        1.9371  -20.7511  -41.0428 H         1 UNK         0.0600 
    154 H154        0.4727  -18.8044  -41.6521 H         1 UNK         0.3000 
    155 H155       -1.7832  -17.2136  -43.9514 H         1 UNK         0.0600 
    156 H156       -1.5218  -15.4054  -42.2458 H         1 UNK         0.0600 
    157 H157       -1.0340  -16.6000  -41.0450 H         1 UNK         0.0600 
    158 H158       -2.6594  -16.6358  -41.7126 H         1 UNK         0.0600 
    159 H159        0.7119  -16.3601  -42.8878 H         1 UNK         0.3000 
    160 H160        2.8361  -17.9596  -45.2787 H         1 UNK         0.0600 
    161 H161        3.5899  -15.5861  -45.4554 H         1 UNK         0.0600 
    162 H162        2.0271  -15.0333  -44.8512 H         1 UNK         0.0600 
    163 H163        2.1271  -15.8997  -46.3741 H         1 UNK         0.0600 
    164 H164        3.1772  -16.2519  -42.9549 H         1 UNK         0.3000 
    165 H165        3.7568  -18.8995  -40.6481 H         1 UNK         0.0600 
    166 H166        5.9400  -17.7518  -40.3861 H         1 UNK         0.0600 
    167 H167        5.9342  -18.7077  -41.8595 H         1 UNK         0.0600 
    168 H168        5.7458  -16.9605  -41.9506 H         1 UNK         0.0600 
    169 H169        3.9868  -16.0455  -40.4698 H         1 UNK         0.3000 
    170 H170        0.5839  -15.3422  -39.7328 H         1 UNK         0.0600 
    171 H171        1.4836  -16.1561  -37.5461 H         1 UNK         0.0600 
    172 H172        3.0158  -15.3525  -37.8665 H         1 UNK         0.0600 
    173 H173        1.5434  -14.4044  -37.6534 H         1 UNK         0.0600 
    174 H174        2.8249  -13.6422  -39.6843 H         1 UNK         0.3000 
    175 H175        2.8200  -11.9584  -41.3833 H         1 UNK         0.0600 
    176 H176        4.6205  -13.9450  -42.8907 H         1 UNK         0.0600 
    177 H177        5.0279  -12.2713  -42.5204 H         1 UNK         0.0600 
    178 H178        4.8463  -13.4354  -41.2209 H         1 UNK         0.0600 
    179 H179        3.2048  -12.3206  -44.1446 H         1 UNK         0.3000 
    180 H180        0.0350  -11.6449  -45.4002 H         1 UNK         0.0600 
    181 H181        0.9216   -9.5239  -46.3336 H         1 UNK         0.0600 
    182 H182        2.1934   -9.4918  -45.1122 H         1 UNK         0.0600 
    183 H183        0.5091   -9.3361  -44.6371 H         1 UNK         0.0600 
    184 H184        1.3103  -12.5322  -46.9122 H         1 UNK         0.3000 
    185 H185        3.8685  -12.0485  -48.4259 H         1 UNK         0.0600 
    186 H186        5.4659  -13.9880  -48.2502 H         1 UNK         0.0600 
    187 H187        5.8605  -12.6910  -47.1364 H         1 UNK         0.0600 
    188 H188        5.0720  -14.1444  -46.5398 H         1 UNK         0.0600 
    189 H189        2.4503  -14.4515  -47.3662 H         1 UNK         0.3000 
    190 H190       -2.3672  -22.2713  -44.4598 H         1 UNK         0.3000 
    191 H191       -4.5128  -24.0802  -45.4403 H         1 UNK         0.0600 
    192 H192       -4.6668  -24.7180  -43.0414 H         1 UNK         0.0600 
    193 H193       -4.8583  -22.9837  -43.2487 H         1 UNK         0.0600 
    194 H194       -3.3360  -23.6356  -42.6465 H         1 UNK         0.0600 
    195 H195       -1.2027  -24.1440  -44.0227 H         1 UNK         0.3000 
    196 H196       -1.0846  -26.9799  -43.8976 H         1 UNK         0.0600 
    197 H197        1.1459  -24.8964  -43.6700 H         1 UNK         0.0600 
    198 H198        0.1313  -25.4742  -42.3508 H         1 UNK         0.0600 
    199 H199        1.2475  -26.5723  -43.1477 H         1 UNK         0.0600 
    200 H200        0.0454  -24.7309  -46.4307 H         1 UNK         0.3000 
    201 H201        1.3444  -27.0122  -47.8846 H         1 UNK         0.0600 
    202 H202        2.0601  -24.0352  -47.9245 H         1 UNK         0.0600 
    203 H203        2.8343  -25.3071  -48.8576 H         1 UNK         0.0600 
    204 H204        2.9653  -25.3045  -47.1059 H         1 UNK         0.0600 
    205 H205       -0.3757  -23.8683  -48.3867 H         1 UNK         0.3000 
    206 H206       -0.8950  -24.4816  -51.1713 H         1 UNK         0.0600 
    207 H207       -0.5299  -22.1571  -50.3007 H         1 UNK         0.0600 
    208 H208       -2.0399  -22.3160  -51.1861 H         1 UNK         0.0600 
    209 H209       -2.0600  -22.2545  -49.4336 H         1 UNK         0.0600 
    210 H210       -2.6956  -24.8822  -48.1928 H         1 UNK         0.3000 
    211 H211       -4.6539  -25.7249  -47.5984 H         1 UNK         0.0600 
    212 H212       -5.5210  -27.6903  -48.8114 H         1 UNK         0.0600 
    213 H213       -3.7687  -27.7656  -48.7344 H         1 UNK         0.0600 
    214 H214       -4.5661  -27.2860  -50.2323 H         1 UNK         0.0600 
    215 H215       -4.8151  -23.2154  -48.5723 H         1 UNK         0.3000 
    216 H216       -6.0947  -21.5694  -49.3280 H         1 UNK         0.0600 
    217 H217       -8.5222  -21.7347  -48.8485 H         1 UNK         0.0600 
    218 H218       -8.4072  -23.4845  -48.7100 H         1 UNK         0.0600 
    219 H219       -7.5862  -22.4473  -47.5444 H         1 UNK         0.0600 
    220 H220       -4.9309  -22.5506  -51.3975 H         1 UNK         0.3000 
    221 H221       -6.2881  -23.7472  -53.4818 H         1 UNK         0.0600 
    222 H222       -3.8278  -23.4982  -53.3935 H         1 UNK         0.0600 
    223 H223       -3.9629  -21.7487  -53.5682 H         1 UNK         0.0600 
    224 H224       -4.4232  -22.8082  -54.8929 H         1 UNK         0.0600 
    225 H225       -7.3722  -23.1208  -55.2991 H         1 UNK         0.3000 
    226 H226       -8.5801  -20.4275  -55.4354 H         1 UNK         0.0600 
    227 H227       -9.0353  -22.9721  -57.0945 H         1 UNK         0.0600 
    228 H228      -10.0444  -22.4259  -55.7549 H         1 UNK         0.0600 
    229 H229       -9.9542  -21.4782  -57.2313 H         1 UNK         0.0600 
    230 H230       -8.3126  -19.1216  -57.2187 H         1 UNK         0.3000 
    231 H231       -7.4053  -18.0044  -58.8614 H         1 UNK         0.0600 
    232 H232       -5.8432  -20.4771  -59.7772 H         1 UNK         0.0600 
    233 H233       -6.1475  -19.0175  -60.6998 H         1 UNK         0.0600 
    234 H234       -7.4848  -20.0788  -60.2863 H         1 UNK         0.0600 
    235 H235       -5.6165  -16.6964  -59.2827 H         1 UNK         0.3000 
    236 H236       -3.9404  -15.3859  -58.6739 H         1 UNK         0.0600 
    237 H237       -1.7163  -16.3951  -58.1544 H         1 UNK         0.0600 
    238 H238       -2.4540  -17.9842  -57.9740 H         1 UNK         0.0600 
    239 H239       -2.4719  -17.1726  -59.5325 H         1 UNK         0.0600 
    240 H240       -2.5594  -17.1942  -56.0943 H         1 UNK         0.3000 
    241 H241       -3.6393  -15.4250  -54.0501 H         1 UNK         0.0600 
    242 H242       -5.8099  -18.8639  -54.0003 H         1 UNK         0.3800 
    243 H243       -4.8190  -18.4452  -55.3778 H         1 UNK         0.3800 
    244 H244       -2.1395  -16.7028  -52.4945 H         1 UNK         0.0800 
    245 H245       -1.3370  -15.9253  -53.8106 H         1 UNK         0.0800 
    246 H246       -2.8990  -19.6173  -53.0038 H         1 UNK         0.0800 
    247 H247       -1.3992  -20.4918  -53.1376 H         1 UNK         0.0800 
@<TRIPOS>BOND
     1    1    2 1    
     2    1  127 1    
     3    1  128 1    
     4    1  129 1    
     5    2    3 2    
     6    2    4 am   BACKBONE|DICT|INTERRES
     7    4    5 1    
     8    4  130 1    
     9    5    6 1    
    10    5   65 1    
    11    5  131 1    
    12    6    7 1    
    13    6  132 1    
    14    6  133 1    
    15    7    8 1    
    16    8    9 1    
    17    8  134 1    
    18    8  135 1    
    19    9   10 ar   
    20    9   14 ar   
    21   10   11 ar   
    22   10  136 1    
    23   11   12 ar   
    24   11  126 1    
    25   12   13 ar   
    26   12  137 1    
    27   13   14 ar   
    28   13   15 1    
    29   14  138 1    
    30   15   16 1    
    31   15  139 1    
    32   15  140 1    
    33   16   17 1    
    34   17   18 1    
    35   17  141 1    
    36   17  142 1    
    37   18   19 1    
    38   18   67 1    
    39   18  143 1    
    40   19   20 am   BACKBONE|DICT|INTERRES
    41   19  144 1    
    42   20   21 2    
    43   20   22 1    
    44   22   23 1    
    45   22   24 1    
    46   22  145 1    
    47   23  146 1    
    48   23  147 1    
    49   23  148 1    
    50   24   25 am   BACKBONE|DICT|INTERRES
    51   24  149 1    
    52   25   26 2    
    53   25   27 1    
    54   27   28 1    
    55   27   29 1    
    56   27  150 1    
    57   28  151 1    
    58   28  152 1    
    59   28  153 1    
    60   29   30 am   BACKBONE|DICT|INTERRES
    61   29  154 1    
    62   30   31 2    
    63   30   32 1    
    64   32   33 1    
    65   32   34 1    
    66   32  155 1    
    67   33  156 1    
    68   33  157 1    
    69   33  158 1    
    70   34   35 am   BACKBONE|DICT|INTERRES
    71   34  159 1    
    72   35   36 2    
    73   35   37 1    
    74   37   38 1    
    75   37   39 1    
    76   37  160 1    
    77   38  161 1    
    78   38  162 1    
    79   38  163 1    
    80   39   40 am   BACKBONE|DICT|INTERRES
    81   39  164 1    
    82   40   41 2    
    83   40   42 1    
    84   42   43 1    
    85   42   44 1    
    86   42  165 1    
    87   43  166 1    
    88   43  167 1    
    89   43  168 1    
    90   44   45 am   BACKBONE|DICT|INTERRES
    91   44  169 1    
    92   45   46 2    
    93   45   47 1    
    94   47   48 1    
    95   47   49 1    
    96   47  170 1    
    97   48  171 1    
    98   48  172 1    
    99   48  173 1    
   100   49   50 am   BACKBONE|DICT|INTERRES
   101   49  174 1    
   102   50   51 2    
   103   50   52 1    
   104   52   53 1    
   105   52   54 1    
   106   52  175 1    
   107   53  176 1    
   108   53  177 1    
   109   53  178 1    
   110   54   55 am   BACKBONE|DICT|INTERRES
   111   54  179 1    
   112   55   56 2    
   113   55   57 1    
   114   57   58 1    
   115   57   59 1    
   116   57  180 1    
   117   58  181 1    
   118   58  182 1    
   119   58  183 1    
   120   59   60 am   BACKBONE|DICT|INTERRES
   121   59  184 1    
   122   60   61 2    
   123   60   62 1    
   124   62   63 1    
   125   62   64 1    
   126   62  185 1    
   127   63  186 1    
   128   63  187 1    
   129   63  188 1    
   130   64   65 am   BACKBONE|DICT|INTERRES
   131   64  189 1    
   132   65   66 2    
   133   67   68 2    
   134   67   69 am   BACKBONE|DICT|INTERRES
   135   69   70 1    
   136   69  190 1    
   137   70   71 1    
   138   70   72 1    
   139   70  191 1    
   140   71  192 1    
   141   71  193 1    
   142   71  194 1    
   143   72   73 2    
   144   72   74 am   BACKBONE|DICT|INTERRES
   145   74   75 1    
   146   74  195 1    
   147   75   76 1    
   148   75   77 1    
   149   75  196 1    
   150   76  197 1    
   151   76  198 1    
   152   76  199 1    
   153   77   78 2    
   154   77   79 am   BACKBONE|DICT|INTERRES
   155   79   80 1    
   156   79  200 1    
   157   80   81 1    
   158   80   82 1    
   159   80  201 1    
   160   81  202 1    
   161   81  203 1    
   162   81  204 1    
   163   82   83 2    
   164   82   84 am   BACKBONE|DICT|INTERRES
   165   84   85 1    
   166   84  205 1    
   167   85   86 1    
   168   85   87 1    
   169   85  206 1    
   170   86  207 1    
   171   86  208 1    
   172   86  209 1    
   173   87   88 2    
   174   87   89 am   BACKBONE|DICT|INTERRES
   175   89   90 1    
   176   89  210 1    
   177   90   91 1    
   178   90   92 1    
   179   90  211 1    
   180   91  212 1    
   181   91  213 1    
   182   91  214 1    
   183   92   93 2    
   184   92   94 am   BACKBONE|DICT|INTERRES
   185   94   95 1    
   186   94  215 1    
   187   95   96 1    
   188   95   97 1    
   189   95  216 1    
   190   96  217 1    
   191   96  218 1    
   192   96  219 1    
   193   97   98 2    
   194   97   99 am   BACKBONE|DICT|INTERRES
   195   99  100 1    
   196   99  220 1    
   197  100  101 1    
   198  100  102 1    
   199  100  221 1    
   200  101  222 1    
   201  101  223 1    
   202  101  224 1    
   203  102  103 2    
   204  102  104 am   BACKBONE|DICT|INTERRES
   205  104  105 1    
   206  104  225 1    
   207  105  106 1    
   208  105  107 1    
   209  105  226 1    
   210  106  227 1    
   211  106  228 1    
   212  106  229 1    
   213  107  108 2    
   214  107  109 am   BACKBONE|DICT|INTERRES
   215  109  110 1    
   216  109  230 1    
   217  110  111 1    
   218  110  112 1    
   219  110  231 1    
   220  111  232 1    
   221  111  233 1    
   222  111  234 1    
   223  112  113 2    
   224  112  114 am   BACKBONE|DICT|INTERRES
   225  114  115 1    
   226  114  235 1    
   227  115  116 1    
   228  115  117 1    
   229  115  236 1    
   230  116  237 1    
   231  116  238 1    
   232  116  239 1    
   233  117  118 2    
   234  117  119 am   BACKBONE|DICT|INTERRES
   235  119  120 1    
   236  119  240 1    
   237  120  121 1    
   238  120  124 1    
   239  120  241 1    
   240  121  122 am   BACKBONE|DICT|INTERRES
   241  121  123 2    
   242  122  242 1    
   243  122  243 1    
   244  124  125 1    
   245  124  244 1    
   246  124  245 1    
   247  125  126 1    
   248  126  246 1    
   249  126  247 1    
@<TRIPOS>SUBSTRUCTURE
     1 UNK         1 GROUP             0       ****    0 ROOT    
