@<TRIPOS>MOLECULE
3R540
247   249    1
SMALL
USER_CHARGES


@<TRIPOS>ATOM
      1 CA         -2.3161  -10.4388  -50.9569 C.3       0 UNK        -0.1800 
      2 C          -1.3119  -10.5875  -49.8222 C.2       0 UNK         0.5000 
      3 O          -0.5692   -9.6484  -49.5333 O.2       0 UNK        -0.5000 
      4 N          -1.2808  -11.7646  -49.1872 N.am      1 UNK        -0.5000 
      5 CA         -0.4158  -12.0813  -48.0460 C.3       1 UNK         0.1400 
      6 C6         -0.3795  -13.6008  -47.7361 C.3       23 UNK        -0.0398 
      7 S7         -0.0096  -14.6697  -49.1686 S.3       23 UNK        -0.2404 
      8 C8         -1.5524  -15.6327  -49.2326 C.3       23 UNK        -0.0205 
      9 C9         -1.4535  -16.8290  -50.1631 C.ar      23 UNK        -0.0193 
     10 C10        -2.1337  -16.8398  -51.3819 C.ar      23 UNK        -0.1150 
     11 C11        -2.1196  -17.9751  -52.1964 C.ar      23 UNK        -0.0193 
     12 C12        -1.4221  -19.1116  -51.7653 C.ar      23 UNK        -0.1150 
     13 C13        -0.7128  -19.1115  -50.5601 C.ar      23 UNK        -0.0193 
     14 C14        -0.7278  -17.9544  -49.7702 C.ar      23 UNK        -0.1150 
     15 C15         0.0310  -20.3893  -50.1592 C.3       23 UNK        -0.0205 
     16 S16         0.7735  -20.4120  -48.4891 S.3       23 UNK        -0.2404 
     17 C17        -0.7180  -20.3329  -47.4442 C.3       23 UNK        -0.0398 
     18 CA         -0.9519  -21.6223  -46.6257 C.3       11 UNK         0.1400 
     19 N           0.1080  -21.8527  -45.6468 N.am      11 UNK        -0.5000 
     20 C           0.4020  -23.0315  -45.0855 C.2       10 UNK         0.5000 
     21 O          -0.1540  -24.0875  -45.3895 O.2       10 UNK        -0.5000 
     22 CA          1.4835  -23.0134  -43.9842 C.3       10 UNK         0.1400 
     23 CB          2.2175  -24.3619  -43.8315 C.3       10 UNK        -0.1800 
     24 N           2.4304  -21.9020  -44.1279 N.am      10 UNK        -0.5000 
     25 C           3.3086  -21.6953  -45.1226 C.2       9 UNK         0.5000 
     26 O           3.4916  -22.4839  -46.0504 O.2       9 UNK        -0.5000 
     27 CA          4.1055  -20.3739  -45.0996 C.3       9 UNK         0.1400 
     28 CB          3.6539  -19.4619  -46.2515 C.3       9 UNK        -0.1800 
     29 N           3.9810  -19.6332  -43.8428 N.am      9 UNK        -0.5000 
     30 C           4.5616  -19.9747  -42.6853 C.2       8 UNK         0.5000 
     31 O           5.3306  -20.9283  -42.5608 O.2       8 UNK        -0.5000 
     32 CA          4.1869  -19.1325  -41.4512 C.3       8 UNK         0.1400 
     33 CB          5.0947  -17.8980  -41.3465 C.3       8 UNK        -0.1800 
     34 N           2.7811  -18.7129  -41.4351 N.am      8 UNK        -0.5000 
     35 C           1.7326  -19.5476  -41.3678 C.2       7 UNK         0.5000 
     36 O           1.8381  -20.7732  -41.3272 O.2       7 UNK        -0.5000 
     37 CA          0.3292  -18.9156  -41.3928 C.3       7 UNK         0.1400 
     38 CB         -0.0159  -18.2792  -40.0382 C.3       7 UNK        -0.1800 
     39 N           0.1918  -17.9238  -42.4572 N.am      7 UNK        -0.5000 
     40 C           0.1912  -18.2154  -43.7651 C.2       6 UNK         0.5000 
     41 O           0.2080  -19.3652  -44.2081 O.2       6 UNK        -0.5000 
     42 CA          0.2011  -17.0275  -44.7447 C.3       6 UNK         0.1400 
     43 CB         -1.2276  -16.5430  -45.0222 C.3       6 UNK        -0.1800 
     44 N           1.0143  -15.9068  -44.2706 N.am      6 UNK        -0.5000 
     45 C           2.3396  -15.9619  -44.0765 C.2       5 UNK         0.5000 
     46 O           3.0243  -16.9574  -44.3048 O.2       5 UNK        -0.5000 
     47 CA          3.0026  -14.7144  -43.4722 C.3       5 UNK         0.1400 
     48 CB          3.2253  -13.6340  -44.5416 C.3       5 UNK        -0.1800 
     49 N           2.2235  -14.1690  -42.3606 N.am      5 UNK        -0.5000 
     50 C           2.0735  -14.7778  -41.1752 C.2       4 UNK         0.5000 
     51 O           2.5943  -15.8551  -40.8896 O.2       4 UNK        -0.5000 
     52 CA          1.1571  -14.0866  -40.1500 C.3       4 UNK         0.1400 
     53 CB          1.9318  -13.0165  -39.3667 C.3       4 UNK        -0.1800 
     54 N          -0.0198  -13.4779  -40.7695 N.am      4 UNK        -0.5000 
     55 C          -1.0076  -14.1668  -41.3581 C.2       3 UNK         0.5000 
     56 O          -1.0485  -15.3957  -41.4144 O.2       3 UNK        -0.5000 
     57 CA         -2.1013  -13.3330  -42.0514 C.3       3 UNK         0.1400 
     58 CB         -3.1648  -12.8822  -41.0390 C.3       3 UNK        -0.1800 
     59 N          -1.5725  -12.1624  -42.7619 N.am      3 UNK        -0.5000 
     60 C          -0.7057  -12.2342  -43.7797 C.2       2 UNK         0.5000 
     61 O          -0.2279  -13.2954  -44.1911 O.2       2 UNK        -0.5000 
     62 CA         -0.2656  -10.9073  -44.4274 C.3       2 UNK         0.1400 
     63 CB          0.9748  -10.3487  -43.7137 C.3       2 UNK        -0.1800 
     64 N           0.0550  -11.1379  -45.8361 N.am      2 UNK        -0.5000 
     65 C          -0.8787  -11.3422  -46.7728 C.2       1 UNK         0.5000 
     66 O          -2.0719  -11.0650  -46.6176 O.2       1 UNK        -0.5000 
     67 C          -2.3168  -21.5331  -45.9242 C.2       11 UNK         0.5000 
     68 O          -3.3052  -22.0391  -46.4586 O.2       11 UNK        -0.5000 
     69 N          -2.3434  -20.8607  -44.7615 N.am      12 UNK        -0.5000 
     70 CA         -3.5243  -20.5176  -43.9657 C.3       12 UNK         0.1400 
     71 CB         -4.1267  -21.7841  -43.3173 C.3       12 UNK        -0.1800 
     72 C          -4.5280  -19.6917  -44.7989 C.2       12 UNK         0.5000 
     73 O          -4.2434  -18.5348  -45.1067 O.2       12 UNK        -0.5000 
     74 N          -5.6533  -20.3048  -45.1862 N.am      13 UNK        -0.5000 
     75 CA         -6.6813  -19.7231  -46.0549 C.3       13 UNK         0.1400 
     76 CB         -8.0146  -20.4306  -45.7564 C.3       13 UNK        -0.1800 
     77 C          -6.3432  -19.8088  -47.5619 C.2       13 UNK         0.5000 
     78 O          -7.1714  -19.4094  -48.3796 O.2       13 UNK        -0.5000 
     79 N          -5.1708  -20.3699  -47.8988 N.am      14 UNK        -0.5000 
     80 CA         -4.6539  -20.7261  -49.2295 C.3       14 UNK         0.1400 
     81 CB         -4.7611  -19.5797  -50.2539 C.3       14 UNK        -0.1800 
     82 C          -5.2260  -22.0492  -49.7700 C.2       14 UNK         0.5000 
     83 O          -4.7979  -22.5039  -50.8320 O.2       14 UNK        -0.5000 
     84 N          -6.1262  -22.6864  -49.0078 N.am      15 UNK        -0.5000 
     85 CA         -6.7294  -23.9878  -49.2992 C.3       15 UNK         0.1400 
     86 CB         -7.8217  -24.2773  -48.2595 C.3       15 UNK        -0.1800 
     87 C          -5.7031  -25.1354  -49.3428 C.2       15 UNK         0.5000 
     88 O          -5.8852  -26.0792  -50.1109 O.2       15 UNK        -0.5000 
     89 N          -4.6104  -25.0042  -48.5756 N.am      16 UNK        -0.5000 
     90 CA         -3.4626  -25.9166  -48.5850 C.3       16 UNK         0.1400 
     91 CB         -2.5344  -25.5537  -47.4172 C.3       16 UNK        -0.1800 
     92 C          -2.6828  -25.9081  -49.9180 C.2       16 UNK         0.5000 
     93 O          -2.0314  -26.8998  -50.2461 O.2       16 UNK        -0.5000 
     94 N          -2.7869  -24.8027  -50.6668 N.am      17 UNK        -0.5000 
     95 CA         -2.2406  -24.6196  -52.0112 C.3       17 UNK         0.1400 
     96 CB         -1.5603  -23.2414  -52.0602 C.3       17 UNK        -0.1800 
     97 C          -3.3345  -24.7286  -53.0929 C.2       17 UNK         0.5000 
     98 O          -3.0684  -24.4045  -54.2528 O.2       17 UNK        -0.5000 
     99 N          -4.5582  -25.1161  -52.6930 N.am      18 UNK        -0.5000 
    100 CA        -5.7911  -25.1895  -53.4891 C.3       18 UNK         0.1400 
    101 CB        -5.6809  -26.3198  -54.5329 C.3       18 UNK        -0.1800 
    102 C         -6.2054  -23.8441  -54.1284 C.2       18 UNK         0.5000 
    103 O         -6.9539  -23.8409  -55.1069 O.2       18 UNK        -0.5000 
    104 N         -5.6773  -22.7321  -53.5901 N.am      19 UNK        -0.5000 
    105 CA        -5.6863  -21.3762  -54.1484 C.3       19 UNK         0.1400 
    106 CB        -7.0915  -20.7538  -54.0284 C.3       19 UNK        -0.1800 
    107 C         -5.1054  -21.3018  -55.5821 C.2       19 UNK         0.5000 
    108 O         -5.5345  -20.4592  -56.3729 O.2       19 UNK        -0.5000 
    109 N         -4.1546  -22.1949  -55.8936 N.am      20 UNK        -0.5000 
    110 CA        -3.5493  -22.3554  -57.2133 C.3       20 UNK         0.1400 
    111 CB        -4.0234  -23.6829  -57.8268 C.3       20 UNK        -0.1800 
    112 C         -2.0174  -22.3073  -57.1346 C.2       20 UNK         0.5000 
    113 O         -1.3954  -21.5889  -57.9188 O.2       20 UNK        -0.5000 
    114 N         -1.4227  -23.0410  -56.1827 N.am      21 UNK        -0.5000 
    115 CA         0.0264  -23.1281  -55.9677 C.3       21 UNK         0.1400 
    116 CB         0.3564  -24.4950  -55.3403 C.3       21 UNK        -0.1800 
    117 C          0.5607  -21.9371  -55.1414 C.2       21 UNK         0.5000 
    118 O          1.2425  -22.1287  -54.1334 O.2       21 UNK        -0.5000 
    119 N          0.2063  -20.7237  -55.5730 N.am      22 UNK        -0.5000 
    120 CA         0.4725  -19.4508  -54.8839 C.3       22 UNK         0.1400 
    121 C          1.8797  -18.8471  -55.1644 C.2       22 UNK         0.5000 
    122 N          2.6950  -19.4289  -56.0357 N.am      22 UNK        -0.7600 
    123 O          2.2446  -17.8340  -54.5745 O.2       22 UNK        -0.5000 
    124 C124       -0.6486  -18.4153  -55.1678 C.3       23 UNK        -0.0398 
    125 S125       -2.3193  -19.0681  -54.8106 S.3       23 UNK        -0.2404 
    126 C126       -2.9146  -17.9461  -53.5014 C.3       23 UNK        -0.0205 
    127 H127       -2.8918  -11.3518  -51.1113 H         1 UNK         0.0600 
    128 H128       -3.0133   -9.6303  -50.7370 H         1 UNK         0.0600 
    129 H129       -1.7994  -10.2018  -51.8869 H         1 UNK         0.0600 
    130 H130       -1.9214  -12.4935  -49.4631 H         1 UNK         0.3000 
    131 H131        0.5970  -11.7535  -48.2905 H         1 UNK         0.0600 
    132 H132       -1.3292  -13.9117  -47.2968 H         1 UNK         0.0800 
    133 H133        0.3750  -13.8113  -46.9755 H         1 UNK         0.0800 
    134 H134       -2.3731  -14.9788  -49.5310 H         1 UNK         0.0800 
    135 H135       -1.7980  -15.9978  -48.2341 H         1 UNK         0.0800 
    136 H136       -2.6969  -15.9688  -51.6867 H         1 UNK         0.1150 
    137 H137       -1.4306  -20.0095  -52.3662 H         1 UNK         0.1150 
    138 H138       -0.1960  -17.9163  -48.8317 H         1 UNK         0.1150 
    139 H139       -0.6599  -21.2287  -50.2241 H         1 UNK         0.0800 
    140 H140        0.8196  -20.5764  -50.8896 H         1 UNK         0.0800 
    141 H141       -1.5821  -20.1245  -48.0762 H         1 UNK         0.0800 
    142 H142       -0.6197  -19.4681  -46.7867 H         1 UNK         0.0800 
    143 H143       -0.9842  -22.4659  -47.3177 H         1 UNK         0.0600 
    144 H144        0.5725  -21.0246  -45.2911 H         1 UNK         0.3000 
    145 H145        0.9499  -22.8278  -43.0511 H         1 UNK         0.0600 
    146 H146        2.9771  -24.3107  -43.0514 H         1 UNK         0.0600 
    147 H147        1.5221  -25.1549  -43.5542 H         1 UNK         0.0600 
    148 H148        2.7052  -24.6675  -44.7573 H         1 UNK         0.0600 
    149 H149        2.3698  -21.1988  -43.4016 H         1 UNK         0.3000 
    150 H150        5.1575  -20.6233  -45.2520 H         1 UNK         0.0600 
    151 H151        3.7544  -19.9632  -47.2150 H         1 UNK         0.0600 
    152 H152        4.2548  -18.5535  -46.2951 H         1 UNK         0.0600 
    153 H153        2.6092  -19.1675  -46.1423 H         1 UNK         0.0600 
    154 H154        3.4264  -18.7814  -43.8759 H         1 UNK         0.3000 
    155 H155        4.3557  -19.7523  -40.5683 H         1 UNK         0.0600 
    156 H156        4.9385  -17.2133  -42.1806 H         1 UNK         0.0600 
    157 H157        6.1473  -18.1839  -41.3474 H         1 UNK         0.0600 
    158 H158        4.9085  -17.3493  -40.4232 H         1 UNK         0.0600 
    159 H159        2.6133  -17.7105  -41.4318 H         1 UNK         0.3000 
    160 H160       -0.3919  -19.7140  -41.5807 H         1 UNK         0.0600 
    161 H161       -1.0386  -17.9019  -40.0312 H         1 UNK         0.0600 
    162 H162        0.6473  -17.4477  -39.7998 H         1 UNK         0.0600 
    163 H163        0.0676  -19.0084  -39.2315 H         1 UNK         0.0600 
    164 H164        0.1012  -16.9552  -42.1709 H         1 UNK         0.3000 
    165 H165        0.6321  -17.3764  -45.6855 H         1 UNK         0.0600 
    166 H166       -1.2331  -15.7194  -45.7341 H         1 UNK         0.0600 
    167 H167       -1.8340  -17.3437  -45.4463 H         1 UNK         0.0600 
    168 H168       -1.7213  -16.1997  -44.1122 H         1 UNK         0.0600 
    169 H169        0.5296  -15.0320  -44.0862 H         1 UNK         0.3000 
    170 H170        3.9803  -15.0104  -43.0861 H         1 UNK         0.0600 
    171 H171        3.8491  -14.0147  -45.3513 H         1 UNK         0.0600 
    172 H172        2.2884  -13.2981  -44.9849 H         1 UNK         0.0600 
    173 H173        3.7322  -12.7641  -44.1239 H         1 UNK         0.0600 
    174 H174        1.7116  -13.3183  -42.5367 H         1 UNK         0.3000 
    175 H175        0.8149  -14.8463  -39.4440 H         1 UNK         0.0600 
    176 H176        1.3126  -12.5742  -38.5861 H         1 UNK         0.0600 
    177 H177        2.8076  -13.4478  -38.8799 H         1 UNK         0.0600 
    178 H178        2.2796  -12.2123  -40.0162 H         1 UNK         0.0600 
    179 H179       -0.0664  -12.4698  -40.7737 H         1 UNK         0.3000 
    180 H180       -2.5851  -13.9777  -42.7884 H         1 UNK         0.0600 
    181 H181       -2.7504  -12.2032  -40.2928 H         1 UNK         0.0600 
    182 H182       -3.5849  -13.7374  -40.5078 H         1 UNK         0.0600 
    183 H183       -3.9908  -12.3725  -41.5354 H         1 UNK         0.0600 
    184 H184       -1.9193  -11.2600  -42.4696 H         1 UNK         0.3000 
    185 H185       -1.0770  -10.1803  -44.3505 H         1 UNK         0.0600 
    186 H186        1.8143  -11.0433  -43.7527 H         1 UNK         0.0600 
    187 H187        1.2974   -9.4099  -44.1644 H         1 UNK         0.0600 
    188 H188        0.7644  -10.1470  -42.6626 H         1 UNK         0.0600 
    189 H189        1.0062  -11.4137  -46.0299 H         1 UNK         0.3000 
    190 H190       -1.4707  -20.4535  -44.4411 H         1 UNK         0.3000 
    191 H191       -3.1808  -19.8647  -43.1617 H         1 UNK         0.0600 
    192 H192       -3.3968  -22.2682  -42.6683 H         1 UNK         0.0600 
    193 H193       -4.4453  -22.5217  -44.0544 H         1 UNK         0.0600 
    194 H194       -4.9897  -21.5359  -42.6982 H         1 UNK         0.0600 
    195 H195       -5.7913  -21.2654  -44.9066 H         1 UNK         0.3000 
    196 H196       -6.7955  -18.6651  -45.8099 H         1 UNK         0.0600 
    197 H197       -8.8314  -19.9932  -46.3319 H         1 UNK         0.0600 
    198 H198       -8.2813  -20.3402  -44.7031 H         1 UNK         0.0600 
    199 H199       -7.9719  -21.4925  -46.0019 H         1 UNK         0.0600 
    200 H200       -4.5981  -20.7184  -47.1364 H         1 UNK         0.3000 
    201 H201       -3.5907  -20.9166  -49.0836 H         1 UNK         0.0600 
    202 H202       -4.3293  -18.6579  -49.8640 H         1 UNK         0.0600 
    203 H203       -5.7922  -19.3789  -50.5438 H         1 UNK         0.0600 
    204 H204       -4.2199  -19.8301  -51.1664 H         1 UNK         0.0600 
    205 H205       -6.4094  -22.2400  -48.1493 H         1 UNK         0.3000 
    206 H206       -7.1966  -23.9257  -50.2843 H         1 UNK         0.0600 
    207 H207       -8.5938  -23.5076  -48.2736 H         1 UNK         0.0600 
    208 H208       -8.3113  -25.2308  -48.4624 H         1 UNK         0.0600 
    209 H209       -7.4139  -24.3257  -47.2490 H         1 UNK         0.0600 
    210 H210       -4.5390  -24.1963  -47.9729 H         1 UNK         0.3000 
    211 H211       -3.8347  -26.9310  -48.4271 H         1 UNK         0.0600 
    212 H212       -2.1440  -24.5410  -47.5162 H         1 UNK         0.0600 
    213 H213       -1.6800  -26.2300  -47.3684 H         1 UNK         0.0600 
    214 H214       -3.0542  -25.6186  -46.4612 H         1 UNK         0.0600 
    215 H215       -3.3754  -24.0484  -50.3357 H         1 UNK         0.3000 
    216 H216       -1.4926  -25.3831  -52.2329 H         1 UNK         0.0600 
    217 H217       -1.2100  -22.9971  -53.0611 H         1 UNK         0.0600 
    218 H218       -0.6903  -23.2206  -51.4048 H         1 UNK         0.0600 
    219 H219       -2.2380  -22.4434  -51.7556 H         1 UNK         0.0600 
    220 H220       -4.6745  -25.3678  -51.7193 H         1 UNK         0.3000 
    221 H221       -6.5895  -25.4531  -52.7944 H         1 UNK         0.0600 
    222 H222       -4.9458  -26.0872  -55.3040 H         1 UNK         0.0600 
    223 H223       -5.3906  -27.2606  -54.0653 H         1 UNK         0.0600 
    224 H224       -6.6355  -26.4893  -55.0320 H         1 UNK         0.0600 
    225 H225       -5.1424  -22.8355  -52.7326 H         1 UNK         0.3000 
    226 H226       -5.0122  -20.7892  -53.5228 H         1 UNK         0.0600 
    227 H227       -7.4561  -20.8039  -53.0023 H         1 UNK         0.0600 
    228 H228       -7.8139  -21.2620  -54.6676 H         1 UNK         0.0600 
    229 H229       -7.0804  -19.7020  -54.3161 H         1 UNK         0.0600 
    230 H230       -3.8609  -22.8592  -55.1850 H         1 UNK         0.3000 
    231 H231       -3.8600  -21.5459  -57.8768 H         1 UNK         0.0600 
    232 H232       -5.1067  -23.6920  -57.9497 H         1 UNK         0.0600 
    233 H233       -3.7533  -24.5356  -57.2025 H         1 UNK         0.0600 
    234 H234       -3.5814  -23.8400  -58.8115 H         1 UNK         0.0600 
    235 H235       -1.9999  -23.5859  -55.5475 H         1 UNK         0.3000 
    236 H236        0.5294  -23.0892  -56.9362 H         1 UNK         0.0600 
    237 H237        1.4324  -24.6181  -55.2121 H         1 UNK         0.0600 
    238 H238       -0.1071  -24.6177  -54.3621 H         1 UNK         0.0600 
    239 H239        0.0118  -25.3111  -55.9755 H         1 UNK         0.0600 
    240 H240       -0.3572  -20.6700  -56.4141 H         1 UNK         0.3000 
    241 H241        0.4625  -19.6505  -53.8117 H         1 UNK         0.0600 
    242 H242        3.6060  -19.0325  -56.2070 H         1 UNK         0.3800 
    243 H243        2.4099  -20.2627  -56.5240 H         1 UNK         0.3800 
    244 H244       -0.4856  -17.5077  -54.5839 H         1 UNK         0.0800 
    245 H245       -0.6250  -18.1103  -56.2151 H         1 UNK         0.0800 
    246 H246       -2.9306  -16.9326  -53.9054 H         1 UNK         0.0800 
    247 H247       -3.9501  -18.2031  -53.2753 H         1 UNK         0.0800 
@<TRIPOS>BOND
     1    1    2 1    
     2    1  127 1    
     3    1  128 1    
     4    1  129 1    
     5    2    3 2    
     6    2    4 am   BACKBONE|DICT|INTERRES
     7    4    5 1    
     8    4  130 1    
     9    5    6 1    
    10    5   65 1    
    11    5  131 1    
    12    6    7 1    
    13    6  132 1    
    14    6  133 1    
    15    7    8 1    
    16    8    9 1    
    17    8  134 1    
    18    8  135 1    
    19    9   10 ar   
    20    9   14 ar   
    21   10   11 ar   
    22   10  136 1    
    23   11   12 ar   
    24   11  126 1    
    25   12   13 ar   
    26   12  137 1    
    27   13   14 ar   
    28   13   15 1    
    29   14  138 1    
    30   15   16 1    
    31   15  139 1    
    32   15  140 1    
    33   16   17 1    
    34   17   18 1    
    35   17  141 1    
    36   17  142 1    
    37   18   19 1    
    38   18   67 1    
    39   18  143 1    
    40   19   20 am   BACKBONE|DICT|INTERRES
    41   19  144 1    
    42   20   21 2    
    43   20   22 1    
    44   22   23 1    
    45   22   24 1    
    46   22  145 1    
    47   23  146 1    
    48   23  147 1    
    49   23  148 1    
    50   24   25 am   BACKBONE|DICT|INTERRES
    51   24  149 1    
    52   25   26 2    
    53   25   27 1    
    54   27   28 1    
    55   27   29 1    
    56   27  150 1    
    57   28  151 1    
    58   28  152 1    
    59   28  153 1    
    60   29   30 am   BACKBONE|DICT|INTERRES
    61   29  154 1    
    62   30   31 2    
    63   30   32 1    
    64   32   33 1    
    65   32   34 1    
    66   32  155 1    
    67   33  156 1    
    68   33  157 1    
    69   33  158 1    
    70   34   35 am   BACKBONE|DICT|INTERRES
    71   34  159 1    
    72   35   36 2    
    73   35   37 1    
    74   37   38 1    
    75   37   39 1    
    76   37  160 1    
    77   38  161 1    
    78   38  162 1    
    79   38  163 1    
    80   39   40 am   BACKBONE|DICT|INTERRES
    81   39  164 1    
    82   40   41 2    
    83   40   42 1    
    84   42   43 1    
    85   42   44 1    
    86   42  165 1    
    87   43  166 1    
    88   43  167 1    
    89   43  168 1    
    90   44   45 am   BACKBONE|DICT|INTERRES
    91   44  169 1    
    92   45   46 2    
    93   45   47 1    
    94   47   48 1    
    95   47   49 1    
    96   47  170 1    
    97   48  171 1    
    98   48  172 1    
    99   48  173 1    
   100   49   50 am   BACKBONE|DICT|INTERRES
   101   49  174 1    
   102   50   51 2    
   103   50   52 1    
   104   52   53 1    
   105   52   54 1    
   106   52  175 1    
   107   53  176 1    
   108   53  177 1    
   109   53  178 1    
   110   54   55 am   BACKBONE|DICT|INTERRES
   111   54  179 1    
   112   55   56 2    
   113   55   57 1    
   114   57   58 1    
   115   57   59 1    
   116   57  180 1    
   117   58  181 1    
   118   58  182 1    
   119   58  183 1    
   120   59   60 am   BACKBONE|DICT|INTERRES
   121   59  184 1    
   122   60   61 2    
   123   60   62 1    
   124   62   63 1    
   125   62   64 1    
   126   62  185 1    
   127   63  186 1    
   128   63  187 1    
   129   63  188 1    
   130   64   65 am   BACKBONE|DICT|INTERRES
   131   64  189 1    
   132   65   66 2    
   133   67   68 2    
   134   67   69 am   BACKBONE|DICT|INTERRES
   135   69   70 1    
   136   69  190 1    
   137   70   71 1    
   138   70   72 1    
   139   70  191 1    
   140   71  192 1    
   141   71  193 1    
   142   71  194 1    
   143   72   73 2    
   144   72   74 am   BACKBONE|DICT|INTERRES
   145   74   75 1    
   146   74  195 1    
   147   75   76 1    
   148   75   77 1    
   149   75  196 1    
   150   76  197 1    
   151   76  198 1    
   152   76  199 1    
   153   77   78 2    
   154   77   79 am   BACKBONE|DICT|INTERRES
   155   79   80 1    
   156   79  200 1    
   157   80   81 1    
   158   80   82 1    
   159   80  201 1    
   160   81  202 1    
   161   81  203 1    
   162   81  204 1    
   163   82   83 2    
   164   82   84 am   BACKBONE|DICT|INTERRES
   165   84   85 1    
   166   84  205 1    
   167   85   86 1    
   168   85   87 1    
   169   85  206 1    
   170   86  207 1    
   171   86  208 1    
   172   86  209 1    
   173   87   88 2    
   174   87   89 am   BACKBONE|DICT|INTERRES
   175   89   90 1    
   176   89  210 1    
   177   90   91 1    
   178   90   92 1    
   179   90  211 1    
   180   91  212 1    
   181   91  213 1    
   182   91  214 1    
   183   92   93 2    
   184   92   94 am   BACKBONE|DICT|INTERRES
   185   94   95 1    
   186   94  215 1    
   187   95   96 1    
   188   95   97 1    
   189   95  216 1    
   190   96  217 1    
   191   96  218 1    
   192   96  219 1    
   193   97   98 2    
   194   97   99 am   BACKBONE|DICT|INTERRES
   195   99  100 1    
   196   99  220 1    
   197  100  101 1    
   198  100  102 1    
   199  100  221 1    
   200  101  222 1    
   201  101  223 1    
   202  101  224 1    
   203  102  103 2    
   204  102  104 am   BACKBONE|DICT|INTERRES
   205  104  105 1    
   206  104  225 1    
   207  105  106 1    
   208  105  107 1    
   209  105  226 1    
   210  106  227 1    
   211  106  228 1    
   212  106  229 1    
   213  107  108 2    
   214  107  109 am   BACKBONE|DICT|INTERRES
   215  109  110 1    
   216  109  230 1    
   217  110  111 1    
   218  110  112 1    
   219  110  231 1    
   220  111  232 1    
   221  111  233 1    
   222  111  234 1    
   223  112  113 2    
   224  112  114 am   BACKBONE|DICT|INTERRES
   225  114  115 1    
   226  114  235 1    
   227  115  116 1    
   228  115  117 1    
   229  115  236 1    
   230  116  237 1    
   231  116  238 1    
   232  116  239 1    
   233  117  118 2    
   234  117  119 am   BACKBONE|DICT|INTERRES
   235  119  120 1    
   236  119  240 1    
   237  120  121 1    
   238  120  124 1    
   239  120  241 1    
   240  121  122 am   BACKBONE|DICT|INTERRES
   241  121  123 2    
   242  122  242 1    
   243  122  243 1    
   244  124  125 1    
   245  124  244 1    
   246  124  245 1    
   247  125  126 1    
   248  126  246 1    
   249  126  247 1    
@<TRIPOS>SUBSTRUCTURE
     1 UNK         1 GROUP             0       ****    0 ROOT    
