@<TRIPOS>MOLECULE
3R540
247   249    1
SMALL
USER_CHARGES


@<TRIPOS>ATOM
      1 CA         -0.6133  -13.8034  -49.3236 C.3       0 UNK        -0.1800 
      2 C           0.2736  -12.7109  -48.7424 C.2       0 UNK         0.5000 
      3 O           0.0322  -11.5289  -48.9872 O.2       0 UNK        -0.5000 
      4 N           1.3068  -13.1039  -47.9884 N.am      1 UNK        -0.5000 
      5 CA          2.2682  -12.2130  -47.3341 C.3       1 UNK         0.1400 
      6 C6          3.5016  -12.9744  -46.7817 C.3       23 UNK        -0.0398 
      7 S7          4.3224  -14.0439  -48.0102 S.3       23 UNK        -0.2404 
      8 C8          3.6790  -15.6843  -47.5245 C.3       23 UNK        -0.0205 
      9 C9          3.2888  -16.5546  -48.7136 C.ar      23 UNK        -0.0193 
     10 C10         2.5647  -16.0282  -49.7891 C.ar      23 UNK        -0.1150 
     11 C11         2.2077  -16.8310  -50.8750 C.ar      23 UNK        -0.0193 
     12 C12         2.5590  -18.1840  -50.8704 C.ar      23 UNK        -0.1150 
     13 C13         3.2662  -18.7303  -49.7951 C.ar      23 UNK        -0.0193 
     14 C14         3.6322  -17.9089  -48.7240 C.ar      23 UNK        -0.1150 
     15 C15         3.6624  -20.2005  -49.8050 C.3       23 UNK        -0.0205 
     16 S16         2.9780  -21.1184  -48.3897 S.3       23 UNK        -0.2404 
     17 C17         1.1879  -21.0270  -48.7261 C.3       23 UNK        -0.0398 
     18 CA          0.4193  -22.1331  -47.9678 C.3       11 UNK         0.1400 
     19 N           0.4371  -21.9453  -46.5150 N.am      11 UNK        -0.5000 
     20 C           0.0353  -22.8679  -45.6300 C.2       10 UNK         0.5000 
     21 O          -0.3474  -23.9958  -45.9441 O.2       10 UNK        -0.5000 
     22 CA          0.0029  -22.4424  -44.1512 C.3       10 UNK         0.1400 
     23 CB          1.4080  -22.4896  -43.5330 C.3       10 UNK        -0.1800 
     24 N          -0.5834  -21.1135  -43.9639 N.am      10 UNK        -0.5000 
     25 C          -1.8557  -20.8058  -44.2551 C.2       9 UNK         0.5000 
     26 O          -2.6759  -21.6251  -44.6662 O.2       9 UNK        -0.5000 
     27 CA         -2.2818  -19.3356  -44.0990 C.3       9 UNK         0.1400 
     28 CB         -2.6194  -19.0205  -42.6345 C.3       9 UNK        -0.1800 
     29 N          -1.2770  -18.3928  -44.5883 N.am      9 UNK        -0.5000 
     30 C          -0.8619  -18.3007  -45.8604 C.2       8 UNK         0.5000 
     31 O          -1.3049  -18.9871  -46.7809 O.2       8 UNK        -0.5000 
     32 CA          0.2866  -17.3125  -46.1362 C.3       8 UNK         0.1400 
     33 CB         -0.2330  -15.8666  -46.1503 C.3       8 UNK        -0.1800 
     34 N           1.3703  -17.4407  -45.1598 N.am      8 UNK        -0.5000 
     35 C           2.0704  -18.5662  -44.9513 C.2       7 UNK         0.5000 
     36 O           1.9143  -19.6013  -45.5960 O.2       7 UNK        -0.5000 
     37 CA          3.0618  -18.5542  -43.7783 C.3       7 UNK         0.1400 
     38 CB          4.3928  -17.9054  -44.1874 C.3       7 UNK        -0.1800 
     39 N           2.4992  -17.8695  -42.6137 N.am      7 UNK        -0.5000 
     40 C           1.5153  -18.3731  -41.8532 C.2       6 UNK         0.5000 
     41 O           1.0219  -19.4869  -42.0281 O.2       6 UNK        -0.5000 
     42 CA          0.9617  -17.4686  -40.7357 C.3       6 UNK         0.1400 
     43 CB          1.8199  -17.5884  -39.4677 C.3       6 UNK        -0.1800 
     44 N           0.8795  -16.0630  -41.1347 N.am      6 UNK        -0.5000 
     45 C           0.0602  -15.5910  -42.0853 C.2       5 UNK         0.5000 
     46 O          -0.7617  -16.2863  -42.6797 O.2       5 UNK        -0.5000 
     47 CA          0.2219  -14.1082  -42.4747 C.3       5 UNK         0.1400 
     48 CB         -0.7309  -13.2249  -41.6569 C.3       5 UNK        -0.1800 
     49 N           1.5916  -13.6074  -42.3272 N.am      5 UNK        -0.5000 
     50 C           2.6554  -14.0931  -42.9799 C.2       4 UNK         0.5000 
     51 O           2.5968  -15.0326  -43.7759 O.2       4 UNK        -0.5000 
     52 CA          3.9900  -13.3950  -42.6897 C.3       4 UNK         0.1400 
     53 CB          5.1906  -14.0366  -43.4123 C.3       4 UNK        -0.1800 
     54 N           3.8787  -11.9845  -43.0510 N.am      4 UNK        -0.5000 
     55 C           4.5022  -10.9790  -42.4244 C.2       3 UNK         0.5000 
     56 O           5.2191  -11.1384  -41.4354 O.2       3 UNK        -0.5000 
     57 CA          4.3222   -9.5578  -42.9965 C.3       3 UNK         0.1400 
     58 CB          5.6555   -9.0329  -43.5540 C.3       3 UNK        -0.1800 
     59 N           3.3178   -9.4799  -44.0593 N.am      3 UNK        -0.5000 
     60 C           2.0022   -9.3126  -43.8679 C.2       2 UNK         0.5000 
     61 O           1.4760   -9.2230  -42.7587 O.2       2 UNK        -0.5000 
     62 CA          1.1311   -9.2536  -45.1384 C.3       2 UNK         0.1400 
     63 CB          1.0211   -7.8095  -45.6506 C.3       2 UNK        -0.1800 
     64 N           1.6473  -10.1099  -46.2115 N.am      2 UNK        -0.5000 
     65 C           1.5857  -11.4469  -46.1846 C.2       1 UNK         0.5000 
     66 O           1.0545  -12.0833  -45.2733 O.2       1 UNK        -0.5000 
     67 C          -1.0180  -22.2923  -48.4996 C.2       11 UNK         0.5000 
     68 O          -1.2577  -23.1960  -49.2970 O.2       11 UNK        -0.5000 
     69 N          -1.9601  -21.4682  -48.0127 N.am      12 UNK        -0.5000 
     70 CA         -3.3873  -21.5725  -48.3290 C.3       12 UNK         0.1400 
     71 CB         -4.1580  -20.3993  -47.7076 C.3       12 UNK        -0.1800 
     72 C          -4.0025  -22.9154  -47.8998 C.2       12 UNK         0.5000 
     73 O          -4.7504  -23.5056  -48.6780 O.2       12 UNK        -0.5000 
     74 N          -3.6553  -23.3941  -46.6974 N.am      13 UNK        -0.5000 
     75 CA         -4.0626  -24.6990  -46.1748 C.3       13 UNK         0.1400 
     76 CB         -3.6404  -24.8284  -44.7039 C.3       13 UNK        -0.1800 
     77 C          -3.5146  -25.8675  -47.0138 C.2       13 UNK         0.5000 
     78 O          -4.2740  -26.7779  -47.3482 O.2       13 UNK        -0.5000 
     79 N          -2.2286  -25.7945  -47.3894 N.am      14 UNK        -0.5000 
     80 CA         -1.5707  -26.7432  -48.2944 C.3       14 UNK         0.1400 
     81 CB         -0.0649  -26.4447  -48.3452 C.3       14 UNK        -0.1800 
     82 C          -2.1808  -26.7417  -49.7113 C.2       14 UNK         0.5000 
     83 O          -2.2838  -27.7987  -50.3337 O.2       14 UNK        -0.5000 
     84 N          -2.6289  -25.5649  -50.1650 N.am      15 UNK        -0.5000 
     85 CA         -3.3714  -25.3340  -51.4036 C.3       15 UNK         0.1400 
     86 CB         -3.1334  -23.8829  -51.8581 C.3       15 UNK        -0.1800 
     87 C          -4.8802  -25.6514  -51.2939 C.2       15 UNK         0.5000 
     88 O          -5.6412  -25.2064  -52.1520 O.2       15 UNK        -0.5000 
     89 N          -5.2979  -26.3989  -50.2601 N.am      16 UNK        -0.5000 
     90 CA         -6.6590  -26.8874  -50.0101 C.3       16 UNK         0.1400 
     91 CB         -7.0764  -27.9074  -51.0908 C.3       16 UNK        -0.1800 
     92 C          -7.6803  -25.7465  -49.8270 C.2       16 UNK         0.5000 
     93 O          -8.7321  -25.7421  -50.4686 O.2       16 UNK        -0.5000 
     94 N          -7.3265  -24.7958  -48.9517 N.am      17 UNK        -0.5000 
     95 CA         -8.0315  -23.5433  -48.6604 C.3       17 UNK         0.1400 
     96 CB         -9.4545  -23.7944  -48.1172 C.3       17 UNK        -0.1800 
     97 C          -7.9818  -22.5747  -49.8588 C.2       17 UNK         0.5000 
     98 O          -8.9978  -21.9816  -50.2254 O.2       17 UNK        -0.5000 
     99 N          -6.7753  -22.4388  -50.4290 N.am      18 UNK        -0.5000 
    100 CA        -6.4045  -21.5776  -51.5549 C.3       18 UNK         0.1400 
    101 CB        -6.4461  -20.0946  -51.1302 C.3       18 UNK        -0.1800 
    102 C         -7.2216  -21.8675  -52.8317 C.2       18 UNK         0.5000 
    103 O         -7.7879  -20.9518  -53.4341 O.2       18 UNK        -0.5000 
    104 N         -7.2814  -23.1476  -53.2216 N.am      19 UNK        -0.5000 
    105 CA        -7.9918  -23.6401  -54.4005 C.3       19 UNK         0.1400 
    106 CB        -8.2449  -25.1497  -54.2391 C.3       19 UNK        -0.1800 
    107 C         -7.2215  -23.3044  -55.6933 C.2       19 UNK         0.5000 
    108 O         -6.5408  -24.1660  -56.2527 O.2       19 UNK        -0.5000 
    109 N         -7.3327  -22.0389  -56.1210 N.am      20 UNK        -0.5000 
    110 CA        -6.7006  -21.4322  -57.2995 C.3       20 UNK         0.1400 
    111 CB        -7.2084  -22.0875  -58.6016 C.3       20 UNK        -0.1800 
    112 C         -5.1596  -21.3776  -57.2079 C.2       20 UNK         0.5000 
    113 O         -4.4729  -21.4679  -58.2276 O.2       20 UNK        -0.5000 
    114 N         -4.6447  -21.2069  -55.9861 N.am      21 UNK        -0.5000 
    115 CA        -3.2317  -21.0526  -55.6619 C.3       21 UNK         0.1400 
    116 CB        -2.5499  -22.4306  -55.5978 C.3       21 UNK        -0.1800 
    117 C         -3.1196  -20.2997  -54.3289 C.2       21 UNK         0.5000 
    118 O         -4.0685  -20.3118  -53.5417 O.2       21 UNK        -0.5000 
    119 N         -1.9748  -19.6443  -54.1134 N.am      22 UNK        -0.5000 
    120 CA        -1.6630  -18.8638  -52.9067 C.3       22 UNK         0.1400 
    121 C         -1.5044  -19.7451  -51.6354 C.2       22 UNK         0.5000 
    122 N         -1.9594  -19.2695  -50.4839 N.am      22 UNK        -0.7600 
    123 O         -0.9316  -20.8299  -51.6810 O.2       22 UNK        -0.5000 
    124 C124       -0.4086  -17.9884  -53.1483 C.3       23 UNK        -0.0398 
    125 S125       -0.3059  -16.5493  -52.0306 S.3       23 UNK        -0.2404 
    126 C126        1.4823  -16.2150  -52.0631 C.3       23 UNK        -0.0205 
    127 H127       -1.6031  -13.7657  -48.8692 H         1 UNK         0.0600 
    128 H128       -0.1977  -14.7974  -49.1569 H         1 UNK         0.0600 
    129 H129       -0.7247  -13.6647  -50.3990 H         1 UNK         0.0600 
    130 H130        1.4460  -14.0868  -47.8163 H         1 UNK         0.3000 
    131 H131        2.6187  -11.4972  -48.0808 H         1 UNK         0.0600 
    132 H132        4.2462  -12.2635  -46.4194 H         1 UNK         0.0800 
    133 H133        3.2271  -13.5799  -45.9182 H         1 UNK         0.0800 
    134 H134        2.8051  -15.5842  -46.8832 H         1 UNK         0.0800 
    135 H135        4.4412  -16.1791  -46.9211 H         1 UNK         0.0800 
    136 H136        2.2967  -14.9823  -49.7970 H         1 UNK         0.1150 
    137 H137        2.2933  -18.8110  -51.7084 H         1 UNK         0.1150 
    138 H138        4.1803  -18.3325  -47.8939 H         1 UNK         0.1150 
    139 H139        3.3497  -20.6859  -50.7308 H         1 UNK         0.0800 
    140 H140        4.7504  -20.2704  -49.7748 H         1 UNK         0.0800 
    141 H141        1.0410  -21.1276  -49.8030 H         1 UNK         0.0800 
    142 H142        0.8217  -20.0359  -48.4522 H         1 UNK         0.0800 
    143 H143        0.9249  -23.0797  -48.1719 H         1 UNK         0.0600 
    144 H144        0.7926  -21.0544  -46.1767 H         1 UNK         0.3000 
    145 H145       -0.6235  -23.1586  -43.6155 H         1 UNK         0.0600 
    146 H146        1.3779  -22.2585  -42.4681 H         1 UNK         0.0600 
    147 H147        1.8464  -23.4827  -43.6383 H         1 UNK         0.0600 
    148 H148        2.0844  -21.7808  -44.0102 H         1 UNK         0.0600 
    149 H149        0.0232  -20.3957  -43.5823 H         1 UNK         0.3000 
    150 H150       -3.1864  -19.1880  -44.6916 H         1 UNK         0.0600 
    151 H151       -3.3801  -19.7027  -42.2531 H         1 UNK         0.0600 
    152 H152       -3.0089  -18.0078  -42.5294 H         1 UNK         0.0600 
    153 H153       -1.7441  -19.1103  -41.9908 H         1 UNK         0.0600 
    154 H154       -0.8932  -17.7481  -43.9025 H         1 UNK         0.3000 
    155 H155        0.7019  -17.5399  -47.1206 H         1 UNK         0.0600 
    156 H156       -0.7715  -15.6189  -45.2366 H         1 UNK         0.0600 
    157 H157       -0.9236  -15.7140  -46.9798 H         1 UNK         0.0600 
    158 H158        0.5774  -15.1478  -46.2544 H         1 UNK         0.0600 
    159 H159        1.5829  -16.6286  -44.5903 H         1 UNK         0.3000 
    160 H160        3.2665  -19.5902  -43.5001 H         1 UNK         0.0600 
    161 H161        5.1028  -17.9038  -43.3604 H         1 UNK         0.0600 
    162 H162        4.2611  -16.8765  -44.5195 H         1 UNK         0.0600 
    163 H163        4.8523  -18.4543  -45.0103 H         1 UNK         0.0600 
    164 H164        2.7999  -16.9176  -42.4604 H         1 UNK         0.3000 
    165 H165       -0.0472  -17.8129  -40.4986 H         1 UNK         0.0600 
    166 H166        1.3931  -17.0118  -38.6468 H         1 UNK         0.0600 
    167 H167        1.8827  -18.6258  -39.1364 H         1 UNK         0.0600 
    168 H168        2.8382  -17.2345  -39.6337 H         1 UNK         0.0600 
    169 H169        1.5194  -15.4218  -40.6902 H         1 UNK         0.3000 
    170 H170       -0.0489  -14.0153  -43.5282 H         1 UNK         0.0600 
    171 H171       -1.7637  -13.5582  -41.7676 H         1 UNK         0.0600 
    172 H172       -0.4895  -13.2480  -40.5935 H         1 UNK         0.0600 
    173 H173       -0.6880  -12.1875  -41.9901 H         1 UNK         0.0600 
    174 H174        1.7196  -12.8183  -41.7103 H         1 UNK         0.3000 
    175 H175        4.1555  -13.4870  -41.6142 H         1 UNK         0.0600 
    176 H176        5.0859  -13.9967  -44.4960 H         1 UNK         0.0600 
    177 H177        6.1219  -13.5348  -43.1497 H         1 UNK         0.0600 
    178 H178        5.2998  -15.0841  -43.1302 H         1 UNK         0.0600 
    179 H179        3.2478  -11.7676  -43.8095 H         1 UNK         0.3000 
    180 H180        4.0217   -8.9100  -42.1702 H         1 UNK         0.0600 
    181 H181        6.0179   -9.6486  -44.3782 H         1 UNK         0.0600 
    182 H182        6.4285   -9.0274  -42.7843 H         1 UNK         0.0600 
    183 H183        5.5558   -8.0097  -43.9169 H         1 UNK         0.0600 
    184 H184        3.6610   -9.5336  -45.0069 H         1 UNK         0.3000 
    185 H185        0.1290   -9.5967  -44.8714 H         1 UNK         0.0600 
    186 H186        0.6187   -7.1516  -44.8790 H         1 UNK         0.0600 
    187 H187        1.9916   -7.4106  -45.9484 H         1 UNK         0.0600 
    188 H188        0.3534   -7.7462  -46.5100 H         1 UNK         0.0600 
    189 H189        2.0715   -9.6447  -47.0016 H         1 UNK         0.3000 
    190 H190       -1.6889  -20.7329  -47.3633 H         1 UNK         0.3000 
    191 H191       -3.4903  -21.5001  -49.4132 H         1 UNK         0.0600 
    192 H192       -4.0660  -20.3860  -46.6224 H         1 UNK         0.0600 
    193 H193       -5.2211  -20.4622  -47.9430 H         1 UNK         0.0600 
    194 H194       -3.7975  -19.4427  -48.0855 H         1 UNK         0.0600 
    195 H195       -3.0848  -22.8164  -46.0850 H         1 UNK         0.3000 
    196 H196       -5.1528  -24.7455  -46.2162 H         1 UNK         0.0600 
    197 H197       -3.9515  -25.7888  -44.2911 H         1 UNK         0.0600 
    198 H198       -4.0972  -24.0488  -44.0941 H         1 UNK         0.0600 
    199 H199       -2.5596  -24.7537  -44.5846 H         1 UNK         0.0600 
    200 H200       -1.6610  -25.0264  -47.0430 H         1 UNK         0.3000 
    201 H201       -1.7042  -27.7440  -47.8790 H         1 UNK         0.0600 
    202 H202        0.3820  -26.5018  -47.3526 H         1 UNK         0.0600 
    203 H203        0.1361  -25.4508  -48.7449 H         1 UNK         0.0600 
    204 H204        0.4545  -27.1646  -48.9789 H         1 UNK         0.0600 
    205 H205       -2.4292  -24.7359  -49.6128 H         1 UNK         0.3000 
    206 H206       -2.9715  -25.9932  -52.1762 H         1 UNK         0.0600 
    207 H207       -2.0752  -23.6935  -52.0396 H         1 UNK         0.0600 
    208 H208       -3.6650  -23.6591  -52.7821 H         1 UNK         0.0600 
    209 H209       -3.4713  -23.1692  -51.1086 H         1 UNK         0.0600 
    210 H210       -4.6124  -26.6647  -49.5646 H         1 UNK         0.3000 
    211 H211       -6.6215  -27.4181  -49.0577 H         1 UNK         0.0600 
    212 H212       -7.1749  -27.4430  -52.0725 H         1 UNK         0.0600 
    213 H213       -8.0374  -28.3618  -50.8474 H         1 UNK         0.0600 
    214 H214       -6.3480  -28.7141  -51.1731 H         1 UNK         0.0600 
    215 H215       -6.3927  -24.8519  -48.5624 H         1 UNK         0.3000 
    216 H216       -7.4657  -23.0610  -47.8619 H         1 UNK         0.0600 
    217 H217       -9.9005  -22.8658  -47.7592 H         1 UNK         0.0600 
    218 H218       -9.4397  -24.4912  -47.2793 H         1 UNK         0.0600 
    219 H219      -10.1205  -24.1986  -48.8796 H         1 UNK         0.0600 
    220 H220       -6.0170  -22.9782  -50.0211 H         1 UNK         0.3000 
    221 H221       -5.3698  -21.8207  -51.7950 H         1 UNK         0.0600 
    222 H222       -7.4528  -19.7774  -50.8572 H         1 UNK         0.0600 
    223 H223       -5.7913  -19.9108  -50.2792 H         1 UNK         0.0600 
    224 H224       -6.1081  -19.4463  -51.9392 H         1 UNK         0.0600 
    225 H225       -6.7522  -23.8481  -52.7048 H         1 UNK         0.3000 
    226 H226       -8.9663  -23.1497  -54.4515 H         1 UNK         0.0600 
    227 H227       -8.8146  -25.5413  -55.0824 H         1 UNK         0.0600 
    228 H228       -7.3138  -25.7143  -54.1821 H         1 UNK         0.0600 
    229 H229       -8.8156  -25.3588  -53.3340 H         1 UNK         0.0600 
    230 H230       -7.8471  -21.4006  -55.5235 H         1 UNK         0.3000 
    231 H231       -7.0313  -20.3928  -57.3119 H         1 UNK         0.0600 
    232 H232       -8.2977  -22.1016  -58.6376 H         1 UNK         0.0600 
    233 H233       -6.8553  -23.1139  -58.7050 H         1 UNK         0.0600 
    234 H234       -6.8640  -21.5356  -59.4769 H         1 UNK         0.0600 
    235 H235       -5.2644  -21.0960  -55.1932 H         1 UNK         0.3000 
    236 H236       -2.7517  -20.4460  -56.4329 H         1 UNK         0.0600 
    237 H237       -2.5305  -22.9050  -56.5790 H         1 UNK         0.0600 
    238 H238       -1.5173  -22.3474  -55.2570 H         1 UNK         0.0600 
    239 H239       -3.0702  -23.1032  -54.9174 H         1 UNK         0.0600 
    240 H240       -1.2353  -19.7187  -54.7960 H         1 UNK         0.3000 
    241 H241       -2.5143  -18.1981  -52.7479 H         1 UNK         0.0600 
    242 H242       -1.8440  -19.8177  -49.6477 H         1 UNK         0.3800 
    243 H243       -2.3874  -18.3590  -50.4288 H         1 UNK         0.3800 
    244 H244        0.4984  -18.5902  -53.0844 H         1 UNK         0.0800 
    245 H245       -0.4255  -17.5849  -54.1618 H         1 UNK         0.0800 
    246 H246        1.9207  -16.5738  -52.9955 H         1 UNK         0.0800 
    247 H247        1.6263  -15.1334  -52.0666 H         1 UNK         0.0800 
@<TRIPOS>BOND
     1    1    2 1    
     2    1  127 1    
     3    1  128 1    
     4    1  129 1    
     5    2    3 2    
     6    2    4 am   BACKBONE|DICT|INTERRES
     7    4    5 1    
     8    4  130 1    
     9    5    6 1    
    10    5   65 1    
    11    5  131 1    
    12    6    7 1    
    13    6  132 1    
    14    6  133 1    
    15    7    8 1    
    16    8    9 1    
    17    8  134 1    
    18    8  135 1    
    19    9   10 ar   
    20    9   14 ar   
    21   10   11 ar   
    22   10  136 1    
    23   11   12 ar   
    24   11  126 1    
    25   12   13 ar   
    26   12  137 1    
    27   13   14 ar   
    28   13   15 1    
    29   14  138 1    
    30   15   16 1    
    31   15  139 1    
    32   15  140 1    
    33   16   17 1    
    34   17   18 1    
    35   17  141 1    
    36   17  142 1    
    37   18   19 1    
    38   18   67 1    
    39   18  143 1    
    40   19   20 am   BACKBONE|DICT|INTERRES
    41   19  144 1    
    42   20   21 2    
    43   20   22 1    
    44   22   23 1    
    45   22   24 1    
    46   22  145 1    
    47   23  146 1    
    48   23  147 1    
    49   23  148 1    
    50   24   25 am   BACKBONE|DICT|INTERRES
    51   24  149 1    
    52   25   26 2    
    53   25   27 1    
    54   27   28 1    
    55   27   29 1    
    56   27  150 1    
    57   28  151 1    
    58   28  152 1    
    59   28  153 1    
    60   29   30 am   BACKBONE|DICT|INTERRES
    61   29  154 1    
    62   30   31 2    
    63   30   32 1    
    64   32   33 1    
    65   32   34 1    
    66   32  155 1    
    67   33  156 1    
    68   33  157 1    
    69   33  158 1    
    70   34   35 am   BACKBONE|DICT|INTERRES
    71   34  159 1    
    72   35   36 2    
    73   35   37 1    
    74   37   38 1    
    75   37   39 1    
    76   37  160 1    
    77   38  161 1    
    78   38  162 1    
    79   38  163 1    
    80   39   40 am   BACKBONE|DICT|INTERRES
    81   39  164 1    
    82   40   41 2    
    83   40   42 1    
    84   42   43 1    
    85   42   44 1    
    86   42  165 1    
    87   43  166 1    
    88   43  167 1    
    89   43  168 1    
    90   44   45 am   BACKBONE|DICT|INTERRES
    91   44  169 1    
    92   45   46 2    
    93   45   47 1    
    94   47   48 1    
    95   47   49 1    
    96   47  170 1    
    97   48  171 1    
    98   48  172 1    
    99   48  173 1    
   100   49   50 am   BACKBONE|DICT|INTERRES
   101   49  174 1    
   102   50   51 2    
   103   50   52 1    
   104   52   53 1    
   105   52   54 1    
   106   52  175 1    
   107   53  176 1    
   108   53  177 1    
   109   53  178 1    
   110   54   55 am   BACKBONE|DICT|INTERRES
   111   54  179 1    
   112   55   56 2    
   113   55   57 1    
   114   57   58 1    
   115   57   59 1    
   116   57  180 1    
   117   58  181 1    
   118   58  182 1    
   119   58  183 1    
   120   59   60 am   BACKBONE|DICT|INTERRES
   121   59  184 1    
   122   60   61 2    
   123   60   62 1    
   124   62   63 1    
   125   62   64 1    
   126   62  185 1    
   127   63  186 1    
   128   63  187 1    
   129   63  188 1    
   130   64   65 am   BACKBONE|DICT|INTERRES
   131   64  189 1    
   132   65   66 2    
   133   67   68 2    
   134   67   69 am   BACKBONE|DICT|INTERRES
   135   69   70 1    
   136   69  190 1    
   137   70   71 1    
   138   70   72 1    
   139   70  191 1    
   140   71  192 1    
   141   71  193 1    
   142   71  194 1    
   143   72   73 2    
   144   72   74 am   BACKBONE|DICT|INTERRES
   145   74   75 1    
   146   74  195 1    
   147   75   76 1    
   148   75   77 1    
   149   75  196 1    
   150   76  197 1    
   151   76  198 1    
   152   76  199 1    
   153   77   78 2    
   154   77   79 am   BACKBONE|DICT|INTERRES
   155   79   80 1    
   156   79  200 1    
   157   80   81 1    
   158   80   82 1    
   159   80  201 1    
   160   81  202 1    
   161   81  203 1    
   162   81  204 1    
   163   82   83 2    
   164   82   84 am   BACKBONE|DICT|INTERRES
   165   84   85 1    
   166   84  205 1    
   167   85   86 1    
   168   85   87 1    
   169   85  206 1    
   170   86  207 1    
   171   86  208 1    
   172   86  209 1    
   173   87   88 2    
   174   87   89 am   BACKBONE|DICT|INTERRES
   175   89   90 1    
   176   89  210 1    
   177   90   91 1    
   178   90   92 1    
   179   90  211 1    
   180   91  212 1    
   181   91  213 1    
   182   91  214 1    
   183   92   93 2    
   184   92   94 am   BACKBONE|DICT|INTERRES
   185   94   95 1    
   186   94  215 1    
   187   95   96 1    
   188   95   97 1    
   189   95  216 1    
   190   96  217 1    
   191   96  218 1    
   192   96  219 1    
   193   97   98 2    
   194   97   99 am   BACKBONE|DICT|INTERRES
   195   99  100 1    
   196   99  220 1    
   197  100  101 1    
   198  100  102 1    
   199  100  221 1    
   200  101  222 1    
   201  101  223 1    
   202  101  224 1    
   203  102  103 2    
   204  102  104 am   BACKBONE|DICT|INTERRES
   205  104  105 1    
   206  104  225 1    
   207  105  106 1    
   208  105  107 1    
   209  105  226 1    
   210  106  227 1    
   211  106  228 1    
   212  106  229 1    
   213  107  108 2    
   214  107  109 am   BACKBONE|DICT|INTERRES
   215  109  110 1    
   216  109  230 1    
   217  110  111 1    
   218  110  112 1    
   219  110  231 1    
   220  111  232 1    
   221  111  233 1    
   222  111  234 1    
   223  112  113 2    
   224  112  114 am   BACKBONE|DICT|INTERRES
   225  114  115 1    
   226  114  235 1    
   227  115  116 1    
   228  115  117 1    
   229  115  236 1    
   230  116  237 1    
   231  116  238 1    
   232  116  239 1    
   233  117  118 2    
   234  117  119 am   BACKBONE|DICT|INTERRES
   235  119  120 1    
   236  119  240 1    
   237  120  121 1    
   238  120  124 1    
   239  120  241 1    
   240  121  122 am   BACKBONE|DICT|INTERRES
   241  121  123 2    
   242  122  242 1    
   243  122  243 1    
   244  124  125 1    
   245  124  244 1    
   246  124  245 1    
   247  125  126 1    
   248  126  246 1    
   249  126  247 1    
@<TRIPOS>SUBSTRUCTURE
     1 UNK         1 GROUP             0       ****    0 ROOT    
