@<TRIPOS>MOLECULE
3R540
247   249    1
SMALL
USER_CHARGES


@<TRIPOS>ATOM
      1 CA         -4.7457  -13.0876  -49.5933 C.3       0 UNK        -0.1800 
      2 C          -3.9268  -11.9121  -50.1251 C.2       0 UNK         0.5000 
      3 O          -4.5168  -10.9820  -50.6714 O.2       0 UNK        -0.5000 
      4 N          -2.5892  -11.8823  -50.0151 N.am      1 UNK        -0.5000 
      5 CA         -1.6754  -12.8426  -49.3779 C.3       1 UNK         0.1400 
      6 C6         -1.6692  -14.2680  -50.0013 C.3       23 UNK        -0.0398 
      7 S7         -1.3323  -14.2554  -51.7951 S.3       23 UNK        -0.2404 
      8 C8          0.4762  -14.4605  -51.8402 C.3       23 UNK        -0.0205 
      9 C9          0.9204  -15.9078  -51.6672 C.ar      23 UNK        -0.0193 
     10 C10         0.9378  -16.7715  -52.7688 C.ar      23 UNK        -0.1150 
     11 C11         1.4323  -18.0735  -52.6435 C.ar      23 UNK        -0.0193 
     12 C12         1.9167  -18.5026  -51.4072 C.ar      23 UNK        -0.1150 
     13 C13         1.8778  -17.6658  -50.2884 C.ar      23 UNK        -0.0193 
     14 C14         1.3789  -16.3664  -50.4266 C.ar      23 UNK        -0.1150 
     15 C15         2.4405  -18.1376  -48.9519 C.3       23 UNK        -0.0205 
     16 S16         1.9360  -19.8347  -48.5110 S.3       23 UNK        -0.2404 
     17 C17         0.2644  -19.5502  -47.8496 C.3       23 UNK        -0.0398 
     18 CA         -0.4684  -20.8640  -47.5109 C.3       11 UNK         0.1400 
     19 N           0.2911  -21.6882  -46.5722 N.am      11 UNK        -0.5000 
     20 C           0.1009  -23.0001  -46.3954 C.2       10 UNK         0.5000 
     21 O          -0.7034  -23.6700  -47.0420 O.2       10 UNK        -0.5000 
     22 CA          0.9153  -23.6488  -45.2670 C.3       10 UNK         0.1400 
     23 CB          2.3275  -24.0114  -45.7494 C.3       10 UNK        -0.1800 
     24 N           1.0124  -22.7687  -44.1023 N.am      10 UNK        -0.5000 
     25 C          -0.0009  -22.5002  -43.2656 C.2       9 UNK         0.5000 
     26 O          -1.1364  -22.9458  -43.4334 O.2       9 UNK        -0.5000 
     27 CA          0.2739  -21.5542  -42.0724 C.3       9 UNK         0.1400 
     28 CB         -0.4255  -22.0183  -40.7798 C.3       9 UNK        -0.1800 
     29 N           1.6962  -21.2868  -41.8380 N.am      9 UNK        -0.5000 
     30 C           2.6653  -22.1630  -41.5322 C.2       8 UNK         0.5000 
     31 O           2.4531  -23.3368  -41.2254 O.2       8 UNK        -0.5000 
     32 CA          4.1215  -21.6536  -41.6379 C.3       8 UNK         0.1400 
     33 CB          5.0583  -22.7224  -42.2377 C.3       8 UNK        -0.1800 
     34 N           4.2753  -20.3870  -42.3699 N.am      8 UNK        -0.5000 
     35 C           3.9302  -20.0985  -43.6343 C.2       7 UNK         0.5000 
     36 O           3.3752  -20.9030  -44.3864 O.2       7 UNK        -0.5000 
     37 CA          4.2038  -18.6488  -44.0999 C.3       7 UNK         0.1400 
     38 CB          3.6895  -18.3819  -45.5255 C.3       7 UNK        -0.1800 
     39 N           3.6132  -17.6515  -43.2027 N.am      7 UNK        -0.5000 
     40 C           4.0435  -17.3201  -41.9769 C.2       6 UNK         0.5000 
     41 O           5.0530  -17.7989  -41.4581 O.2       6 UNK        -0.5000 
     42 CA          3.1783  -16.3306  -41.1764 C.3       6 UNK         0.1400 
     43 CB          3.7012  -14.8943  -41.3337 C.3       6 UNK        -0.1800 
     44 N           1.7685  -16.3854  -41.5684 N.am      6 UNK        -0.5000 
     45 C           0.9143  -17.3526  -41.2039 C.2       5 UNK         0.5000 
     46 O           1.2208  -18.2937  -40.4723 O.2       5 UNK        -0.5000 
     47 CA         -0.5171  -17.2666  -41.7663 C.3       5 UNK         0.1400 
     48 CB         -1.4106  -16.4222  -40.8466 C.3       5 UNK        -0.1800 
     49 N          -0.5554  -16.7084  -43.1184 N.am      5 UNK        -0.5000 
     50 C          -0.1752  -17.3708  -44.2184 C.2       4 UNK         0.5000 
     51 O           0.1640  -18.5557  -44.2220 O.2       4 UNK        -0.5000 
     52 CA         -0.1547  -16.5757  -45.5394 C.3       4 UNK         0.1400 
     53 CB         -1.4639  -16.7948  -46.3121 C.3       4 UNK        -0.1800 
     54 N           0.1002  -15.1384  -45.4093 N.am      4 UNK        -0.5000 
     55 C           1.1964  -14.5998  -44.8526 C.2       3 UNK         0.5000 
     56 O           2.0736  -15.2804  -44.3217 O.2       3 UNK        -0.5000 
     57 CA          1.3681  -13.0657  -44.8886 C.3       3 UNK         0.1400 
     58 CB          2.6494  -12.6879  -45.6490 C.3       3 UNK        -0.1800 
     59 N           0.2424  -12.3527  -45.4936 N.am      3 UNK        -0.5000 
     60 C          -0.9436  -12.1281  -44.9124 C.2       2 UNK         0.5000 
     61 O          -1.2088  -12.4585  -43.7565 O.2       2 UNK        -0.5000 
     62 CA         -2.0272  -11.4558  -45.7846 C.3       2 UNK         0.1400 
     63 CB         -2.0907   -9.9487  -45.4944 C.3       2 UNK        -0.1800 
     64 N          -1.8563  -11.6571  -47.2312 N.am      2 UNK        -0.5000 
     65 C          -1.8424  -12.8499  -47.8444 C.2       1 UNK         0.5000 
     66 O          -1.9610  -13.9135  -47.2397 O.2       1 UNK        -0.5000 
     67 C          -1.8852  -20.5871  -46.9682 C.2       11 UNK         0.5000 
     68 O          -2.8280  -20.5084  -47.7545 O.2       11 UNK        -0.5000 
     69 N          -2.0304  -20.4786  -45.6369 N.am      12 UNK        -0.5000 
     70 CA         -3.3221  -20.3461  -44.9563 C.3       12 UNK         0.1400 
     71 CB         -3.1183  -20.0136  -43.4722 C.3       12 UNK        -0.1800 
     72 C          -4.2011  -21.5961  -45.1372 C.2       12 UNK         0.5000 
     73 O          -5.3924  -21.4592  -45.4143 O.2       12 UNK        -0.5000 
     74 N          -3.5804  -22.7832  -45.0673 N.am      13 UNK        -0.5000 
     75 CA         -4.1945  -24.0771  -45.3804 C.3       13 UNK         0.1400 
     76 CB         -3.2366  -25.2061  -44.9722 C.3       13 UNK        -0.1800 
     77 C          -4.6156  -24.2211  -46.8592 C.2       13 UNK         0.5000 
     78 O          -5.5358  -24.9845  -47.1506 O.2       13 UNK        -0.5000 
     79 N          -3.9888  -23.4452  -47.7555 N.am      14 UNK        -0.5000 
     80 CA         -4.3674  -23.2778  -49.1619 C.3       14 UNK         0.1400 
     81 CB         -3.0981  -23.0441  -50.0050 C.3       14 UNK        -0.1800 
     82 C          -5.4122  -22.1523  -49.3491 C.2       14 UNK         0.5000 
     83 O          -5.4464  -21.5191  -50.4055 O.2       14 UNK        -0.5000 
     84 N          -6.2384  -21.9117  -48.3191 N.am      15 UNK        -0.5000 
     85 CA         -7.3195  -20.9246  -48.2425 C.3       15 UNK         0.1400 
     86 CB         -8.4581  -21.2975  -49.2153 C.3       15 UNK        -0.1800 
     87 C          -6.8146  -19.4779  -48.4125 C.2       15 UNK         0.5000 
     88 O          -7.4084  -18.6993  -49.1573 O.2       15 UNK        -0.5000 
     89 N          -5.6981  -19.1640  -47.7383 N.am      16 UNK        -0.5000 
     90 CA         -4.9253  -17.9183  -47.8470 C.3       16 UNK         0.1400 
     91 CB         -5.7136  -16.7143  -47.2920 C.3       16 UNK        -0.1800 
     92 C          -4.3990  -17.7018  -49.2799 C.2       16 UNK         0.5000 
     93 O          -4.5429  -16.6184  -49.8459 O.2       16 UNK        -0.5000 
     94 N          -3.8250  -18.7774  -49.8362 N.am      17 UNK        -0.5000 
     95 CA         -3.2803  -18.9117  -51.1887 C.3       17 UNK         0.1400 
     96 CB         -2.0343  -18.0230  -51.3531 C.3       17 UNK        -0.1800 
     97 C          -4.3117  -18.7128  -52.3227 C.2       17 UNK         0.5000 
     98 O          -3.9259  -18.3956  -53.4492 O.2       17 UNK        -0.5000 
     99 N          -5.6028  -18.9178  -52.0261 N.am      18 UNK        -0.5000 
    100 CA        -6.6782  -18.9084  -53.0181 C.3       18 UNK         0.1400 
    101 CB        -8.0195  -18.6146  -52.3323 C.3       18 UNK        -0.1800 
    102 C         -6.7462  -20.2302  -53.8037 C.2       18 UNK         0.5000 
    103 O         -7.1439  -20.2166  -54.9699 O.2       18 UNK        -0.5000 
    104 N         -6.3523  -21.3423  -53.1671 N.am      19 UNK        -0.5000 
    105 CA        -6.1957  -22.6433  -53.8123 C.3       19 UNK         0.1400 
    106 CB        -6.2454  -23.7480  -52.7456 C.3       19 UNK        -0.1800 
    107 C         -4.8737  -22.7047  -54.5989 C.2       19 UNK         0.5000 
    108 O         -3.9095  -22.0178  -54.2498 O.2       19 UNK        -0.5000 
    109 N         -4.8528  -23.5445  -55.6403 N.am      20 UNK        -0.5000 
    110 CA        -3.6856  -23.7960  -56.4857 C.3       20 UNK         0.1400 
    111 CB        -4.1276  -24.6279  -57.7004 C.3       20 UNK        -0.1800 
    112 C         -2.5486  -24.5103  -55.7287 C.2       20 UNK         0.5000 
    113 O         -2.8089  -25.2341  -54.7641 O.2       20 UNK        -0.5000 
    114 N         -1.3153  -24.3126  -56.2159 N.am      21 UNK        -0.5000 
    115 CA        -0.0610  -24.8688  -55.6931 C.3       21 UNK         0.1400 
    116 CB        -0.0274  -26.4044  -55.8510 C.3       21 UNK        -0.1800 
    117 C          0.2594  -24.3938  -54.2590 C.2       21 UNK         0.5000 
    118 O          0.7030  -25.1860  -53.4248 O.2       21 UNK        -0.5000 
    119 N          0.0299  -23.0991  -54.0047 N.am      22 UNK        -0.5000 
    120 CA         0.4095  -22.3986  -52.7693 C.3       22 UNK         0.1400 
    121 C          1.9464  -22.3539  -52.5231 C.2       22 UNK         0.5000 
    122 N          2.3767  -22.2448  -51.2734 N.am      22 UNK        -0.7600 
    123 O          2.7533  -22.3917  -53.4500 O.2       22 UNK        -0.5000 
    124 C124       -0.2379  -20.9890  -52.6826 C.3       23 UNK        -0.0398 
    125 S125       -0.0372  -19.9242  -54.1615 S.3       23 UNK        -0.2404 
    126 C126        1.5068  -19.0019  -53.8487 C.3       23 UNK        -0.0205 
    127 H127       -4.7803  -13.8837  -50.3367 H         1 UNK         0.0600 
    128 H128       -4.3579  -13.4971  -48.6635 H         1 UNK         0.0600 
    129 H129       -5.7713  -12.7728  -49.3999 H         1 UNK         0.0600 
    130 H130       -2.1207  -11.0812  -50.4140 H         1 UNK         0.3000 
    131 H131       -0.6775  -12.4338  -49.5433 H         1 UNK         0.0600 
    132 H132       -2.6195  -14.7734  -49.8381 H         1 UNK         0.0800 
    133 H133       -0.9246  -14.8956  -49.5109 H         1 UNK         0.0800 
    134 H134        0.9378  -13.8237  -51.0842 H         1 UNK         0.0800 
    135 H135        0.8391  -14.0908  -52.8003 H         1 UNK         0.0800 
    136 H136        0.5851  -16.4228  -53.7292 H         1 UNK         0.1150 
    137 H137        2.3342  -19.4945  -51.3169 H         1 UNK         0.1150 
    138 H138        1.3800  -15.6997  -49.5759 H         1 UNK         0.1150 
    139 H139        3.5290  -18.1078  -49.0122 H         1 UNK         0.0800 
    140 H140        2.1596  -17.4570  -48.1470 H         1 UNK         0.0800 
    141 H141        0.3731  -18.9551  -46.9485 H         1 UNK         0.0800 
    142 H142       -0.3057  -18.9558  -48.5651 H         1 UNK         0.0800 
    143 H143       -0.5854  -21.4253  -48.4406 H         1 UNK         0.0600 
    144 H144        0.9945  -21.2203  -46.0171 H         1 UNK         0.3000 
    145 H145        0.4067  -24.5676  -44.9674 H         1 UNK         0.0600 
    146 H146        2.8961  -24.5087  -44.9633 H         1 UNK         0.0600 
    147 H147        2.2862  -24.6906  -46.6019 H         1 UNK         0.0600 
    148 H148        2.8881  -23.1283  -46.0592 H         1 UNK         0.0600 
    149 H149        1.9034  -22.3066  -43.9554 H         1 UNK         0.3000 
    150 H150       -0.1607  -20.5944  -42.3518 H         1 UNK         0.0600 
    151 H151       -1.5063  -22.0703  -40.9156 H         1 UNK         0.0600 
    152 H152       -0.2362  -21.3244  -39.9606 H         1 UNK         0.0600 
    153 H153       -0.0895  -23.0075  -40.4685 H         1 UNK         0.0600 
    154 H154        1.9908  -20.3443  -42.0517 H         1 UNK         0.3000 
    155 H155        4.4484  -21.4570  -40.6160 H         1 UNK         0.0600 
    156 H156        5.0710  -23.6247  -41.6253 H         1 UNK         0.0600 
    157 H157        6.0844  -22.3595  -42.2960 H         1 UNK         0.0600 
    158 H158        4.7479  -23.0133  -43.2419 H         1 UNK         0.0600 
    159 H159        4.6890  -19.6255  -41.8375 H         1 UNK         0.3000 
    160 H160        5.2867  -18.5109  -44.1034 H         1 UNK         0.0600 
    161 H161        2.6113  -18.5266  -45.5952 H         1 UNK         0.0600 
    162 H162        4.1575  -19.0559  -46.2440 H         1 UNK         0.0600 
    163 H163        3.9113  -17.3629  -45.8434 H         1 UNK         0.0600 
    164 H164        2.8026  -17.1584  -43.5568 H         1 UNK         0.3000 
    165 H165        3.2550  -16.6026  -40.1214 H         1 UNK         0.0600 
    166 H166        4.7309  -14.8164  -40.9825 H         1 UNK         0.0600 
    167 H167        3.6871  -14.5660  -42.3731 H         1 UNK         0.0600 
    168 H168        3.1058  -14.1913  -40.7511 H         1 UNK         0.0600 
    169 H169        1.4656  -15.6931  -42.2396 H         1 UNK         0.3000 
    170 H170       -0.9220  -18.2798  -41.7921 H         1 UNK         0.0600 
    171 H171       -1.4159  -16.8230  -39.8320 H         1 UNK         0.0600 
    172 H172       -1.0690  -15.3878  -40.7899 H         1 UNK         0.0600 
    173 H173       -2.4426  -16.4163  -41.1980 H         1 UNK         0.0600 
    174 H174       -0.8339  -15.7419  -43.2104 H         1 UNK         0.3000 
    175 H175        0.6712  -16.9704  -46.1303 H         1 UNK         0.0600 
    176 H176       -2.2911  -16.2422  -45.8652 H         1 UNK         0.0600 
    177 H177       -1.3666  -16.4805  -47.3512 H         1 UNK         0.0600 
    178 H178       -1.7519  -17.8423  -46.3226 H         1 UNK         0.0600 
    179 H179       -0.5799  -14.5269  -45.8480 H         1 UNK         0.3000 
    180 H180        1.4755  -12.7316  -43.8547 H         1 UNK         0.0600 
    181 H181        2.6076  -13.0069  -46.6912 H         1 UNK         0.0600 
    182 H182        2.8147  -11.6104  -45.6330 H         1 UNK         0.0600 
    183 H183        3.5267  -13.1541  -45.1982 H         1 UNK         0.0600 
    184 H184        0.3677  -12.0426  -46.4456 H         1 UNK         0.3000 
    185 H185       -2.9852  -11.8980  -45.5032 H         1 UNK         0.0600 
    186 H186       -2.9158   -9.4778  -46.0292 H         1 UNK         0.0600 
    187 H187       -2.2462   -9.7609  -44.4311 H         1 UNK         0.0600 
    188 H188       -1.1686   -9.4440  -45.7856 H         1 UNK         0.0600 
    189 H189       -1.7749  -10.8225  -47.7942 H         1 UNK         0.3000 
    190 H190       -1.2086  -20.5270  -45.0523 H         1 UNK         0.3000 
    191 H191       -3.8507  -19.5048  -45.4055 H         1 UNK         0.0600 
    192 H192       -4.0773  -19.8660  -42.9739 H         1 UNK         0.0600 
    193 H193       -2.5494  -19.0932  -43.3517 H         1 UNK         0.0600 
    194 H194       -2.5977  -20.8083  -42.9410 H         1 UNK         0.0600 
    195 H195       -2.6123  -22.8083  -44.7620 H         1 UNK         0.3000 
    196 H196       -5.0993  -24.1668  -44.7759 H         1 UNK         0.0600 
    197 H197       -3.6858  -26.1838  -45.1506 H         1 UNK         0.0600 
    198 H198       -2.9904  -25.1500  -43.9116 H         1 UNK         0.0600 
    199 H199       -2.3035  -25.1667  -45.5338 H         1 UNK         0.0600 
    200 H200       -3.2520  -22.8383  -47.4241 H         1 UNK         0.3000 
    201 H201       -4.8317  -24.1993  -49.5182 H         1 UNK         0.0600 
    202 H202       -2.3641  -23.8328  -49.8391 H         1 UNK         0.0600 
    203 H203       -2.6228  -22.0927  -49.7728 H         1 UNK         0.0600 
    204 H204       -3.3265  -23.0359  -51.0713 H         1 UNK         0.0600 
    205 H205       -6.0923  -22.4466  -47.4741 H         1 UNK         0.3000 
    206 H206       -7.7205  -20.9848  -47.2297 H         1 UNK         0.0600 
    207 H207       -8.8437  -22.2942  -49.0013 H         1 UNK         0.0600 
    208 H208       -9.2941  -20.6025  -49.1292 H         1 UNK         0.0600 
    209 H209       -8.1267  -21.2873  -50.2533 H         1 UNK         0.0600 
    210 H210       -5.2783  -19.8982  -47.1834 H         1 UNK         0.3000 
    211 H211       -4.0431  -18.0417  -47.2203 H         1 UNK         0.0600 
    212 H212       -6.5885  -16.4838  -47.9003 H         1 UNK         0.0600 
    213 H213       -5.0887  -15.8204  -47.2691 H         1 UNK         0.0600 
    214 H214       -6.0516  -16.9007  -46.2729 H         1 UNK         0.0600 
    215 H215       -3.7421  -19.6051  -49.2539 H         1 UNK         0.3000 
    216 H216       -2.9576  -19.9496  -51.2720 H         1 UNK         0.0600 
    217 H217       -2.2841  -16.9668  -51.2738 H         1 UNK         0.0600 
    218 H218       -1.5707  -18.1702  -52.3273 H         1 UNK         0.0600 
    219 H219       -1.2796  -18.2476  -50.6011 H         1 UNK         0.0600 
    220 H220       -5.8468  -19.1919  -51.0832 H         1 UNK         0.3000 
    221 H221       -6.4898  -18.1046  -53.7329 H         1 UNK         0.0600 
    222 H222       -8.2980  -19.4042  -51.6357 H         1 UNK         0.0600 
    223 H223       -7.9828  -17.6760  -51.7789 H         1 UNK         0.0600 
    224 H224       -8.8214  -18.5295  -53.0665 H         1 UNK         0.0600 
    225 H225       -5.9983  -21.2686  -52.2168 H         1 UNK         0.3000 
    226 H226       -7.0279  -22.7956  -54.5030 H         1 UNK         0.0600 
    227 H227       -7.1447  -23.6704  -52.1341 H         1 UNK         0.0600 
    228 H228       -6.2481  -24.7357  -53.2079 H         1 UNK         0.0600 
    229 H229       -5.3827  -23.7043  -52.0822 H         1 UNK         0.0600 
    230 H230       -5.6720  -24.1005  -55.8362 H         1 UNK         0.3000 
    231 H231       -3.3138  -22.8319  -56.8393 H         1 UNK         0.0600 
    232 H232       -4.5224  -25.5993  -57.3998 H         1 UNK         0.0600 
    233 H233       -4.8999  -24.1131  -58.2724 H         1 UNK         0.0600 
    234 H234       -3.2920  -24.8098  -58.3775 H         1 UNK         0.0600 
    235 H235       -1.2133  -23.7063  -57.0181 H         1 UNK         0.3000 
    236 H236        0.7334  -24.4646  -56.3221 H         1 UNK         0.0600 
    237 H237       -0.2398  -26.7000  -56.8784 H         1 UNK         0.0600 
    238 H238        0.9565  -26.8007  -55.5975 H         1 UNK         0.0600 
    239 H239       -0.7529  -26.8971  -55.2032 H         1 UNK         0.0600 
    240 H240       -0.3298  -22.5135  -54.7440 H         1 UNK         0.3000 
    241 H241       -0.0093  -22.9885  -51.9511 H         1 UNK         0.0600 
    242 H242        3.3698  -22.2110  -51.1057 H         1 UNK         0.3800 
    243 H243        1.7460  -22.2071  -50.4889 H         1 UNK         0.3800 
    244 H244        0.0819  -20.4601  -51.7853 H         1 UNK         0.0800 
    245 H245       -1.3127  -21.1237  -52.5562 H         1 UNK         0.0800 
    246 H246        2.3348  -19.7019  -53.7361 H         1 UNK         0.0800 
    247 H247        1.7396  -18.4143  -54.7378 H         1 UNK         0.0800 
@<TRIPOS>BOND
     1    1    2 1    
     2    1  127 1    
     3    1  128 1    
     4    1  129 1    
     5    2    3 2    
     6    2    4 am   BACKBONE|DICT|INTERRES
     7    4    5 1    
     8    4  130 1    
     9    5    6 1    
    10    5   65 1    
    11    5  131 1    
    12    6    7 1    
    13    6  132 1    
    14    6  133 1    
    15    7    8 1    
    16    8    9 1    
    17    8  134 1    
    18    8  135 1    
    19    9   10 ar   
    20    9   14 ar   
    21   10   11 ar   
    22   10  136 1    
    23   11   12 ar   
    24   11  126 1    
    25   12   13 ar   
    26   12  137 1    
    27   13   14 ar   
    28   13   15 1    
    29   14  138 1    
    30   15   16 1    
    31   15  139 1    
    32   15  140 1    
    33   16   17 1    
    34   17   18 1    
    35   17  141 1    
    36   17  142 1    
    37   18   19 1    
    38   18   67 1    
    39   18  143 1    
    40   19   20 am   BACKBONE|DICT|INTERRES
    41   19  144 1    
    42   20   21 2    
    43   20   22 1    
    44   22   23 1    
    45   22   24 1    
    46   22  145 1    
    47   23  146 1    
    48   23  147 1    
    49   23  148 1    
    50   24   25 am   BACKBONE|DICT|INTERRES
    51   24  149 1    
    52   25   26 2    
    53   25   27 1    
    54   27   28 1    
    55   27   29 1    
    56   27  150 1    
    57   28  151 1    
    58   28  152 1    
    59   28  153 1    
    60   29   30 am   BACKBONE|DICT|INTERRES
    61   29  154 1    
    62   30   31 2    
    63   30   32 1    
    64   32   33 1    
    65   32   34 1    
    66   32  155 1    
    67   33  156 1    
    68   33  157 1    
    69   33  158 1    
    70   34   35 am   BACKBONE|DICT|INTERRES
    71   34  159 1    
    72   35   36 2    
    73   35   37 1    
    74   37   38 1    
    75   37   39 1    
    76   37  160 1    
    77   38  161 1    
    78   38  162 1    
    79   38  163 1    
    80   39   40 am   BACKBONE|DICT|INTERRES
    81   39  164 1    
    82   40   41 2    
    83   40   42 1    
    84   42   43 1    
    85   42   44 1    
    86   42  165 1    
    87   43  166 1    
    88   43  167 1    
    89   43  168 1    
    90   44   45 am   BACKBONE|DICT|INTERRES
    91   44  169 1    
    92   45   46 2    
    93   45   47 1    
    94   47   48 1    
    95   47   49 1    
    96   47  170 1    
    97   48  171 1    
    98   48  172 1    
    99   48  173 1    
   100   49   50 am   BACKBONE|DICT|INTERRES
   101   49  174 1    
   102   50   51 2    
   103   50   52 1    
   104   52   53 1    
   105   52   54 1    
   106   52  175 1    
   107   53  176 1    
   108   53  177 1    
   109   53  178 1    
   110   54   55 am   BACKBONE|DICT|INTERRES
   111   54  179 1    
   112   55   56 2    
   113   55   57 1    
   114   57   58 1    
   115   57   59 1    
   116   57  180 1    
   117   58  181 1    
   118   58  182 1    
   119   58  183 1    
   120   59   60 am   BACKBONE|DICT|INTERRES
   121   59  184 1    
   122   60   61 2    
   123   60   62 1    
   124   62   63 1    
   125   62   64 1    
   126   62  185 1    
   127   63  186 1    
   128   63  187 1    
   129   63  188 1    
   130   64   65 am   BACKBONE|DICT|INTERRES
   131   64  189 1    
   132   65   66 2    
   133   67   68 2    
   134   67   69 am   BACKBONE|DICT|INTERRES
   135   69   70 1    
   136   69  190 1    
   137   70   71 1    
   138   70   72 1    
   139   70  191 1    
   140   71  192 1    
   141   71  193 1    
   142   71  194 1    
   143   72   73 2    
   144   72   74 am   BACKBONE|DICT|INTERRES
   145   74   75 1    
   146   74  195 1    
   147   75   76 1    
   148   75   77 1    
   149   75  196 1    
   150   76  197 1    
   151   76  198 1    
   152   76  199 1    
   153   77   78 2    
   154   77   79 am   BACKBONE|DICT|INTERRES
   155   79   80 1    
   156   79  200 1    
   157   80   81 1    
   158   80   82 1    
   159   80  201 1    
   160   81  202 1    
   161   81  203 1    
   162   81  204 1    
   163   82   83 2    
   164   82   84 am   BACKBONE|DICT|INTERRES
   165   84   85 1    
   166   84  205 1    
   167   85   86 1    
   168   85   87 1    
   169   85  206 1    
   170   86  207 1    
   171   86  208 1    
   172   86  209 1    
   173   87   88 2    
   174   87   89 am   BACKBONE|DICT|INTERRES
   175   89   90 1    
   176   89  210 1    
   177   90   91 1    
   178   90   92 1    
   179   90  211 1    
   180   91  212 1    
   181   91  213 1    
   182   91  214 1    
   183   92   93 2    
   184   92   94 am   BACKBONE|DICT|INTERRES
   185   94   95 1    
   186   94  215 1    
   187   95   96 1    
   188   95   97 1    
   189   95  216 1    
   190   96  217 1    
   191   96  218 1    
   192   96  219 1    
   193   97   98 2    
   194   97   99 am   BACKBONE|DICT|INTERRES
   195   99  100 1    
   196   99  220 1    
   197  100  101 1    
   198  100  102 1    
   199  100  221 1    
   200  101  222 1    
   201  101  223 1    
   202  101  224 1    
   203  102  103 2    
   204  102  104 am   BACKBONE|DICT|INTERRES
   205  104  105 1    
   206  104  225 1    
   207  105  106 1    
   208  105  107 1    
   209  105  226 1    
   210  106  227 1    
   211  106  228 1    
   212  106  229 1    
   213  107  108 2    
   214  107  109 am   BACKBONE|DICT|INTERRES
   215  109  110 1    
   216  109  230 1    
   217  110  111 1    
   218  110  112 1    
   219  110  231 1    
   220  111  232 1    
   221  111  233 1    
   222  111  234 1    
   223  112  113 2    
   224  112  114 am   BACKBONE|DICT|INTERRES
   225  114  115 1    
   226  114  235 1    
   227  115  116 1    
   228  115  117 1    
   229  115  236 1    
   230  116  237 1    
   231  116  238 1    
   232  116  239 1    
   233  117  118 2    
   234  117  119 am   BACKBONE|DICT|INTERRES
   235  119  120 1    
   236  119  240 1    
   237  120  121 1    
   238  120  124 1    
   239  120  241 1    
   240  121  122 am   BACKBONE|DICT|INTERRES
   241  121  123 2    
   242  122  242 1    
   243  122  243 1    
   244  124  125 1    
   245  124  244 1    
   246  124  245 1    
   247  125  126 1    
   248  126  246 1    
   249  126  247 1    
@<TRIPOS>SUBSTRUCTURE
     1 UNK         1 GROUP             0       ****    0 ROOT    
