@<TRIPOS>MOLECULE
3R540
247   249    1
SMALL
USER_CHARGES


@<TRIPOS>ATOM
      1 CA         -3.8660  -14.5617  -48.9249 C.3       0 UNK        -0.1800 
      2 C          -2.8436  -13.5051  -48.5337 C.2       0 UNK         0.5000 
      3 O          -3.2219  -12.4391  -48.0461 O.2       0 UNK        -0.5000 
      4 N          -1.5497  -13.7894  -48.7345 N.am      1 UNK        -0.5000 
      5 CA         -0.4265  -12.9142  -48.3838 C.3       1 UNK         0.1400 
      6 C6          0.8017  -13.1537  -49.3036 C.3       23 UNK        -0.0398 
      7 S7          1.5233  -14.8358  -49.2404 S.3       23 UNK        -0.2404 
      8 C8          0.8873  -15.6179  -50.7520 C.3       23 UNK        -0.0205 
      9 C9          0.3008  -16.9811  -50.4308 C.ar      23 UNK        -0.0193 
     10 C10        -1.0828  -17.1719  -50.4358 C.ar      23 UNK        -0.1150 
     11 C11        -1.6256  -18.4232  -50.1357 C.ar      23 UNK        -0.0193 
     12 C12        -0.7736  -19.4861  -49.8295 C.ar      23 UNK        -0.1150 
     13 C13         0.6129  -19.3088  -49.8166 C.ar      23 UNK        -0.0193 
     14 C14         1.1437  -18.0539  -50.1256 C.ar      23 UNK        -0.1150 
     15 C15         1.5377  -20.4798  -49.5139 C.3       23 UNK        -0.0205 
     16 S16         2.5039  -20.2597  -47.9814 S.3       23 UNK        -0.2404 
     17 C17         1.2244  -20.2496  -46.6809 C.3       23 UNK        -0.0398 
     18 CA          0.6231  -21.6596  -46.4150 C.3       11 UNK         0.1400 
     19 N           0.7228  -22.0846  -45.0155 N.am      11 UNK        -0.5000 
     20 C           0.5078  -23.3440  -44.6025 C.2       10 UNK         0.5000 
     21 O           0.2560  -24.2810  -45.3615 O.2       10 UNK        -0.5000 
     22 CA          0.5242  -23.5847  -43.0819 C.3       10 UNK         0.1400 
     23 CB          1.9629  -23.7635  -42.5753 C.3       10 UNK        -0.1800 
     24 N          -0.1258  -22.5155  -42.3213 N.am      10 UNK        -0.5000 
     25 C          -1.4035  -22.1362  -42.4478 C.2       9 UNK         0.5000 
     26 O          -2.1841  -22.6524  -43.2453 O.2       9 UNK        -0.5000 
     27 CA         -1.8976  -20.9624  -41.5835 C.3       9 UNK         0.1400 
     28 CB         -2.5988  -21.4663  -40.3084 C.3       9 UNK        -0.1800 
     29 N          -0.8797  -19.9493  -41.2787 N.am      9 UNK        -0.5000 
     30 C           0.1955  -20.0315  -40.4781 C.2       8 UNK         0.5000 
     31 O           0.5351  -21.0643  -39.9006 O.2       8 UNK        -0.5000 
     32 CA          1.0644  -18.7650  -40.3211 C.3       8 UNK         0.1400 
     33 CB          2.4786  -19.0090  -40.8721 C.3       8 UNK        -0.1800 
     34 N           0.4848  -17.5904  -40.9793 N.am      8 UNK        -0.5000 
     35 C          -0.5488  -16.8850  -40.4933 C.2       7 UNK         0.5000 
     36 O          -1.0473  -17.0939  -39.3868 O.2       7 UNK        -0.5000 
     37 CA         -1.1586  -15.7899  -41.3920 C.3       7 UNK         0.1400 
     38 CB         -0.8320  -14.3975  -40.8327 C.3       7 UNK        -0.1800 
     39 N          -0.7500  -15.8811  -42.8003 N.am      7 UNK        -0.5000 
     40 C          -1.1592  -16.8490  -43.6369 C.2       6 UNK         0.5000 
     41 O          -1.9297  -17.7485  -43.2982 O.2       6 UNK        -0.5000 
     42 CA         -0.5693  -16.8765  -45.0621 C.3       6 UNK         0.1400 
     43 CB         -1.5473  -16.3085  -46.1006 C.3       6 UNK        -0.1800 
     44 N           0.7513  -16.2473  -45.1978 N.am      6 UNK        -0.5000 
     45 C           1.8529  -16.7640  -44.6331 C.2       5 UNK         0.5000 
     46 O           1.8125  -17.6809  -43.8121 O.2       5 UNK        -0.5000 
     47 CA          3.2253  -16.2338  -45.0695 C.3       5 UNK         0.1400 
     48 CB          3.7200  -17.0277  -46.2941 C.3       5 UNK        -0.1800 
     49 N           3.2556  -14.7980  -45.3518 N.am      5 UNK        -0.5000 
     50 C           4.3875  -14.0780  -45.3562 C.2       4 UNK         0.5000 
     51 O           5.4908  -14.5347  -45.0517 O.2       4 UNK        -0.5000 
     52 CA          4.2875  -12.6031  -45.7747 C.3       4 UNK         0.1400 
     53 CB          4.1559  -12.4783  -47.2986 C.3       4 UNK        -0.1800 
     54 N           3.1693  -11.9268  -45.1241 N.am      4 UNK        -0.5000 
     55 C           3.2309  -11.3959  -43.8954 C.2       3 UNK         0.5000 
     56 O           4.2457  -11.4091  -43.1970 O.2       3 UNK        -0.5000 
     57 CA          1.9589  -10.7160  -43.3508 C.3       3 UNK         0.1400 
     58 CB          2.0692   -9.1888  -43.4812 C.3       3 UNK        -0.1800 
     59 N           0.7197  -11.1544  -43.9948 N.am      3 UNK        -0.5000 
     60 C           0.1944  -12.3782  -43.8673 C.2       2 UNK         0.5000 
     61 O           0.7337  -13.3038  -43.2613 O.2       2 UNK        -0.5000 
     62 CA         -1.1351  -12.6276  -44.5965 C.3       2 UNK         0.1400 
     63 CB         -2.2523  -11.7209  -44.0563 C.3       2 UNK        -0.1800 
     64 N          -1.0610  -12.4966  -46.0549 N.am      2 UNK        -0.5000 
     65 C          -0.1281  -13.0123  -46.8688 C.2       1 UNK         0.5000 
     66 O           0.8797  -13.5946  -46.4633 O.2       1 UNK        -0.5000 
     67 C          -0.8323  -21.7437  -46.9085 C.2       11 UNK         0.5000 
     68 O          -1.0732  -22.2890  -47.9823 O.2       11 UNK        -0.5000 
     69 N          -1.7778  -21.2371  -46.1047 N.am      12 UNK        -0.5000 
     70 CA         -3.2066  -21.2149  -46.4231 C.3       12 UNK         0.1400 
     71 CB         -3.9457  -20.3390  -45.4010 C.3       12 UNK        -0.1800 
     72 C          -3.8357  -22.6168  -46.5152 C.2       12 UNK         0.5000 
     73 O          -4.7056  -22.8309  -47.3583 O.2       12 UNK        -0.5000 
     74 N          -3.3578  -23.5501  -45.6809 N.am      13 UNK        -0.5000 
     75 CA         -3.7274  -24.9653  -45.7035 C.3       13 UNK         0.1400 
     76 CB         -3.1588  -25.6588  -44.4561 C.3       13 UNK        -0.1800 
     77 C          -3.2618  -25.6813  -46.9857 C.2       13 UNK         0.5000 
     78 O          -4.0057  -26.5012  -47.5253 O.2       13 UNK        -0.5000 
     79 N          -2.0537  -25.3460  -47.4609 N.am      14 UNK        -0.5000 
     80 CA         -1.5093  -25.8213  -48.7350 C.3       14 UNK         0.1400 
     81 CB          0.0153  -25.6301  -48.7317 C.3       14 UNK        -0.1800 
     82 C          -2.1345  -25.1039  -49.9470 C.2       14 UNK         0.5000 
     83 O          -2.1965  -25.6804  -51.0336 O.2       14 UNK        -0.5000 
     84 N          -2.5434  -23.8429  -49.7455 N.am      15 UNK        -0.5000 
     85 CA         -3.1487  -22.9116  -50.7024 C.3       15 UNK         0.1400 
     86 CB         -4.5386  -23.4184  -51.1288 C.3       15 UNK        -0.1800 
     87 C          -2.2316  -22.5749  -51.8990 C.2       15 UNK         0.5000 
     88 O          -2.7238  -22.2172  -52.9724 O.2       15 UNK        -0.5000 
     89 N          -0.9146  -22.7364  -51.6927 N.am      16 UNK        -0.5000 
     90 CA          0.1581  -22.7186  -52.6940 C.3       16 UNK         0.1400 
     91 CB          0.3503  -21.3036  -53.2738 C.3       16 UNK        -0.1800 
     92 C          -0.0587  -23.7900  -53.7852 C.2       16 UNK         0.5000 
     93 O           0.0615  -23.4951  -54.9735 O.2       16 UNK        -0.5000 
     94 N          -0.4381  -25.0049  -53.3573 N.am      17 UNK        -0.5000 
     95 CA         -0.8678  -26.1372  -54.1899 C.3       17 UNK         0.1400 
     96 CB          0.2880  -26.6596  -55.0691 C.3       17 UNK        -0.1800 
     97 C          -2.1470  -25.8069  -54.9893 C.2       17 UNK         0.5000 
     98 O          -2.2644  -26.1651  -56.1618 O.2       17 UNK        -0.5000 
     99 N          -3.0643  -25.0902  -54.3233 N.am      18 UNK        -0.5000 
    100 CA        -4.3349  -24.5442  -54.8141 C.3       18 UNK         0.1400 
    101 CB        -5.2771  -25.6688  -55.2899 C.3       18 UNK        -0.1800 
    102 C         -4.1997  -23.4125  -55.8567 C.2       18 UNK         0.5000 
    103 O         -5.2195  -22.9753  -56.3917 O.2       18 UNK        -0.5000 
    104 N         -2.9764  -22.9303  -56.1208 N.am      19 UNK        -0.5000 
    105 CA        -2.7131  -21.8597  -57.0836 C.3       19 UNK         0.1400 
    106 CB        -1.2378  -21.8975  -57.5084 C.3       19 UNK        -0.1800 
    107 C         -3.0767  -20.4657  -56.5430 C.2       19 UNK         0.5000 
    108 O         -3.5048  -19.6143  -57.3234 O.2       19 UNK        -0.5000 
    109 N         -2.8971  -20.2524  -55.2320 N.am      20 UNK        -0.5000 
    110 CA        -3.1756  -18.9787  -54.5631 C.3       20 UNK         0.1400 
    111 CB        -2.0553  -18.6846  -53.5586 C.3       20 UNK        -0.1800 
    112 C         -4.5475  -18.9725  -53.8669 C.2       20 UNK         0.5000 
    113 O         -5.0707  -17.8942  -53.5833 O.2       20 UNK        -0.5000 
    114 N         -5.1042  -20.1649  -53.6080 N.am      21 UNK        -0.5000 
    115 CA        -6.4313  -20.4680  -53.0549 C.3       21 UNK         0.1400 
    116 CB        -7.5535  -19.8986  -53.9437 C.3       21 UNK        -0.1800 
    117 C         -6.6359  -20.0700  -51.5788 C.2       21 UNK         0.5000 
    118 O         -7.1370  -20.8880  -50.8082 O.2       21 UNK        -0.5000 
    119 N         -6.2584  -18.8382  -51.2114 N.am      22 UNK        -0.5000 
    120 CA        -6.4180  -18.2273  -49.8752 C.3       22 UNK         0.1400 
    121 C         -7.9002  -17.9852  -49.4415 C.2       22 UNK         0.5000 
    122 N         -8.8720  -18.0291  -50.3450 N.am      22 UNK        -0.7600 
    123 O         -8.1782  -17.7078  -48.2780 O.2       22 UNK        -0.5000 
    124 C124       -5.5561  -18.9377  -48.7819 C.3       23 UNK        -0.0398 
    125 S125       -3.8965  -18.2065  -48.5905 S.3       23 UNK        -0.2404 
    126 C126       -3.1285  -18.6372  -50.1756 C.3       23 UNK        -0.0205 
    127 H127       -3.4206  -15.3543  -49.5229 H         1 UNK         0.0600 
    128 H128       -4.3007  -15.0111  -48.0320 H         1 UNK         0.0600 
    129 H129       -4.6695  -14.1122  -49.5081 H         1 UNK         0.0600 
    130 H130       -1.2863  -14.6968  -49.0903 H         1 UNK         0.3000 
    131 H131       -0.7346  -11.8818  -48.5640 H         1 UNK         0.0600 
    132 H132        1.5862  -12.4388  -49.0557 H         1 UNK         0.0800 
    133 H133        0.5323  -12.9180  -50.3335 H         1 UNK         0.0800 
    134 H134        1.7023  -15.7275  -51.4687 H         1 UNK         0.0800 
    135 H135        0.1387  -14.9868  -51.2324 H         1 UNK         0.0800 
    136 H136       -1.7381  -16.3525  -50.6902 H         1 UNK         0.1150 
    137 H137       -1.1965  -20.4552  -49.6204 H         1 UNK         0.1150 
    138 H138        2.2150  -17.9094  -50.1209 H         1 UNK         0.1150 
    139 H139        0.9805  -21.4152  -49.4613 H         1 UNK         0.0800 
    140 H140        2.2330  -20.5949  -50.3464 H         1 UNK         0.0800 
    141 H141        1.7016  -19.8620  -45.7799 H         1 UNK         0.0800 
    142 H142        0.4709  -19.5036  -46.9422 H         1 UNK         0.0800 
    143 H143        1.1864  -22.3948  -46.9947 H         1 UNK         0.0600 
    144 H144        0.9226  -21.3762  -44.3252 H         1 UNK         0.3000 
    145 H145       -0.0253  -24.5084  -42.8886 H         1 UNK         0.0600 
    146 H146        1.9780  -24.0233  -41.5166 H         1 UNK         0.0600 
    147 H147        2.4701  -24.5656  -43.1134 H         1 UNK         0.0600 
    148 H148        2.5525  -22.8551  -42.7054 H         1 UNK         0.0600 
    149 H149        0.4173  -22.0701  -41.5893 H         1 UNK         0.3000 
    150 H150       -2.6481  -20.4408  -42.1795 H         1 UNK         0.0600 
    151 H151       -3.4369  -22.1176  -40.5596 H         1 UNK         0.0600 
    152 H152       -2.9958  -20.6369  -39.7231 H         1 UNK         0.0600 
    153 H153       -1.9257  -22.0380  -39.6691 H         1 UNK         0.0600 
    154 H154       -1.0341  -19.0626  -41.7435 H         1 UNK         0.3000 
    155 H155        1.1505  -18.5578  -39.2525 H         1 UNK         0.0600 
    156 H156        2.9918  -19.7804  -40.2967 H         1 UNK         0.0600 
    157 H157        3.0877  -18.1065  -40.8198 H         1 UNK         0.0600 
    158 H158        2.4565  -19.3418  -41.9099 H         1 UNK         0.0600 
    159 H159        0.8390  -17.3757  -41.9047 H         1 UNK         0.3000 
    160 H160       -2.2429  -15.9144  -41.3517 H         1 UNK         0.0600 
    161 H161        0.2418  -14.2076  -40.8291 H         1 UNK         0.0600 
    162 H162       -1.3168  -13.6138  -41.4138 H         1 UNK         0.0600 
    163 H163       -1.1828  -14.2968  -39.8048 H         1 UNK         0.0600 
    164 H164       -0.0839  -15.1870  -43.1240 H         1 UNK         0.3000 
    165 H165       -0.4399  -17.9321  -45.3091 H         1 UNK         0.0600 
    166 H166       -2.4937  -16.8502  -46.0766 H         1 UNK         0.0600 
    167 H167       -1.7742  -15.2605  -45.9239 H         1 UNK         0.0600 
    168 H168       -1.1493  -16.4037  -47.1114 H         1 UNK         0.0600 
    169 H169        0.8293  -15.4674  -45.8417 H         1 UNK         0.3000 
    170 H170        3.9030  -16.4324  -44.2363 H         1 UNK         0.0600 
    171 H171        3.7096  -18.0997  -46.0944 H         1 UNK         0.0600 
    172 H172        3.0904  -16.8500  -47.1673 H         1 UNK         0.0600 
    173 H173        4.7431  -16.7636  -46.5605 H         1 UNK         0.0600 
    174 H174        2.3807  -14.3492  -45.6104 H         1 UNK         0.3000 
    175 H175        5.2175  -12.1072  -45.4874 H         1 UNK         0.0600 
    176 H176        3.2909  -13.0252  -47.6669 H         1 UNK         0.0600 
    177 H177        4.0585  -11.4376  -47.6078 H         1 UNK         0.0600 
    178 H178        5.0343  -12.8881  -47.7984 H         1 UNK         0.0600 
    179 H179        2.2818  -11.9397  -45.6064 H         1 UNK         0.3000 
    180 H180        1.8906  -10.9629  -42.2891 H         1 UNK         0.0600 
    181 H181        2.9657   -8.8169  -42.9834 H         1 UNK         0.0600 
    182 H182        2.1206   -8.8774  -44.5253 H         1 UNK         0.0600 
    183 H183        1.2151   -8.6902  -43.0224 H         1 UNK         0.0600 
    184 H184        0.2255  -10.4676  -44.5454 H         1 UNK         0.3000 
    185 H185       -1.4244  -13.6549  -44.3794 H         1 UNK         0.0600 
    186 H186       -2.3185  -11.7827  -42.9692 H         1 UNK         0.0600 
    187 H187       -2.0901  -10.6747  -44.3178 H         1 UNK         0.0600 
    188 H188       -3.2229  -12.0161  -44.4557 H         1 UNK         0.0600 
    189 H189       -1.8801  -12.1012  -46.5042 H         1 UNK         0.3000 
    190 H190       -1.5105  -20.8595  -45.2090 H         1 UNK         0.3000 
    191 H191       -3.3122  -20.7562  -47.4068 H         1 UNK         0.0600 
    192 H192       -5.0052  -20.2634  -45.6485 H         1 UNK         0.0600 
    193 H193       -3.5439  -19.3254  -45.3857 H         1 UNK         0.0600 
    194 H194       -3.8725  -20.7459  -44.3923 H         1 UNK         0.0600 
    195 H195       -2.7089  -23.2613  -44.9532 H         1 UNK         0.3000 
    196 H196       -4.8167  -25.0287  -45.6627 H         1 UNK         0.0600 
    197 H197       -3.4328  -26.7143  -44.4358 H         1 UNK         0.0600 
    198 H198       -3.5444  -25.2045  -43.5432 H         1 UNK         0.0600 
    199 H199       -2.0703  -25.5999  -44.4236 H         1 UNK         0.0600 
    200 H200       -1.4904  -24.6849  -46.9411 H         1 UNK         0.3000 
    201 H201       -1.7200  -26.8882  -48.8336 H         1 UNK         0.0600 
    202 H202        0.4775  -26.1783  -47.9104 H         1 UNK         0.0600 
    203 H203        0.2925  -24.5806  -48.6266 H         1 UNK         0.0600 
    204 H204        0.4587  -25.9974  -49.6580 H         1 UNK         0.0600 
    205 H205       -2.3245  -23.4337  -48.8420 H         1 UNK         0.3000 
    206 H206       -3.2926  -21.9771  -50.1608 H         1 UNK         0.0600 
    207 H207       -5.1939  -23.5236  -50.2639 H         1 UNK         0.0600 
    208 H208       -5.0205  -22.7220  -51.8109 H         1 UNK         0.0600 
    209 H209       -4.4873  -24.3868  -51.6251 H         1 UNK         0.0600 
    210 H210       -0.6365  -23.0136  -50.7621 H         1 UNK         0.3000 
    211 H211        1.0757  -22.9887  -52.1697 H         1 UNK         0.0600 
    212 H212       -0.4706  -21.0261  -53.9327 H         1 UNK         0.0600 
    213 H213        1.2670  -21.2471  -53.8614 H         1 UNK         0.0600 
    214 H214        0.4208  -20.5537  -52.4868 H         1 UNK         0.0600 
    215 H215       -0.5880  -25.1352  -52.3644 H         1 UNK         0.3000 
    216 H216       -1.1409  -26.9366  -53.4995 H         1 UNK         0.0600 
    217 H217        1.1723  -26.8756  -54.4697 H         1 UNK         0.0600 
    218 H218        0.5717  -25.9431  -55.8403 H         1 UNK         0.0600 
    219 H219        0.0048  -27.5840  -55.5737 H         1 UNK         0.0600 
    220 H220       -2.8404  -24.8500  -53.3672 H         1 UNK         0.3000 
    221 H221       -4.8077  -24.0769  -53.9512 H         1 UNK         0.0600 
    222 H222       -4.9212  -26.1371  -56.2077 H         1 UNK         0.0600 
    223 H223       -5.3779  -26.4460  -54.5323 H         1 UNK         0.0600 
    224 H224       -6.2774  -25.2832  -55.4903 H         1 UNK         0.0600 
    225 H225       -2.1765  -23.3189  -55.6381 H         1 UNK         0.3000 
    226 H226       -3.3193  -22.0422  -57.9737 H         1 UNK         0.0600 
    227 H227       -0.9491  -22.8894  -57.8567 H         1 UNK         0.0600 
    228 H228       -1.0517  -21.1977  -58.3240 H         1 UNK         0.0600 
    229 H229       -0.5748  -21.6217  -56.6880 H         1 UNK         0.0600 
    230 H230       -2.5798  -21.0164  -54.6444 H         1 UNK         0.3000 
    231 H231       -3.1821  -18.1652  -55.2915 H         1 UNK         0.0600 
    232 H232       -1.9952  -19.4531  -52.7882 H         1 UNK         0.0600 
    233 H233       -1.0859  -18.6276  -54.0533 H         1 UNK         0.0600 
    234 H234       -2.2185  -17.7266  -53.0648 H         1 UNK         0.0600 
    235 H235       -4.5411  -20.9752  -53.8282 H         1 UNK         0.3000 
    236 H236       -6.5224  -21.5538  -53.1009 H         1 UNK         0.0600 
    237 H237       -7.4531  -20.2459  -54.9722 H         1 UNK         0.0600 
    238 H238       -8.5325  -20.2209  -53.5869 H         1 UNK         0.0600 
    239 H239       -7.5556  -18.8085  -53.9571 H         1 UNK         0.0600 
    240 H240       -5.8685  -18.2421  -51.9376 H         1 UNK         0.3000 
    241 H241       -6.0363  -17.2119  -49.9869 H         1 UNK         0.0600 
    242 H242       -9.8228  -17.8563  -50.0584 H         1 UNK         0.3800 
    243 H243       -8.6675  -18.2314  -51.3099 H         1 UNK         0.3800 
    244 H244       -5.4555  -20.0065  -48.9723 H         1 UNK         0.0800 
    245 H245       -6.0161  -18.8737  -47.7953 H         1 UNK         0.0800 
    246 H246       -3.3573  -19.6713  -50.4309 H         1 UNK         0.0800 
    247 H247       -3.5669  -18.0215  -50.9612 H         1 UNK         0.0800 
@<TRIPOS>BOND
     1    1    2 1    
     2    1  127 1    
     3    1  128 1    
     4    1  129 1    
     5    2    3 2    
     6    2    4 am   BACKBONE|DICT|INTERRES
     7    4    5 1    
     8    4  130 1    
     9    5    6 1    
    10    5   65 1    
    11    5  131 1    
    12    6    7 1    
    13    6  132 1    
    14    6  133 1    
    15    7    8 1    
    16    8    9 1    
    17    8  134 1    
    18    8  135 1    
    19    9   10 ar   
    20    9   14 ar   
    21   10   11 ar   
    22   10  136 1    
    23   11   12 ar   
    24   11  126 1    
    25   12   13 ar   
    26   12  137 1    
    27   13   14 ar   
    28   13   15 1    
    29   14  138 1    
    30   15   16 1    
    31   15  139 1    
    32   15  140 1    
    33   16   17 1    
    34   17   18 1    
    35   17  141 1    
    36   17  142 1    
    37   18   19 1    
    38   18   67 1    
    39   18  143 1    
    40   19   20 am   BACKBONE|DICT|INTERRES
    41   19  144 1    
    42   20   21 2    
    43   20   22 1    
    44   22   23 1    
    45   22   24 1    
    46   22  145 1    
    47   23  146 1    
    48   23  147 1    
    49   23  148 1    
    50   24   25 am   BACKBONE|DICT|INTERRES
    51   24  149 1    
    52   25   26 2    
    53   25   27 1    
    54   27   28 1    
    55   27   29 1    
    56   27  150 1    
    57   28  151 1    
    58   28  152 1    
    59   28  153 1    
    60   29   30 am   BACKBONE|DICT|INTERRES
    61   29  154 1    
    62   30   31 2    
    63   30   32 1    
    64   32   33 1    
    65   32   34 1    
    66   32  155 1    
    67   33  156 1    
    68   33  157 1    
    69   33  158 1    
    70   34   35 am   BACKBONE|DICT|INTERRES
    71   34  159 1    
    72   35   36 2    
    73   35   37 1    
    74   37   38 1    
    75   37   39 1    
    76   37  160 1    
    77   38  161 1    
    78   38  162 1    
    79   38  163 1    
    80   39   40 am   BACKBONE|DICT|INTERRES
    81   39  164 1    
    82   40   41 2    
    83   40   42 1    
    84   42   43 1    
    85   42   44 1    
    86   42  165 1    
    87   43  166 1    
    88   43  167 1    
    89   43  168 1    
    90   44   45 am   BACKBONE|DICT|INTERRES
    91   44  169 1    
    92   45   46 2    
    93   45   47 1    
    94   47   48 1    
    95   47   49 1    
    96   47  170 1    
    97   48  171 1    
    98   48  172 1    
    99   48  173 1    
   100   49   50 am   BACKBONE|DICT|INTERRES
   101   49  174 1    
   102   50   51 2    
   103   50   52 1    
   104   52   53 1    
   105   52   54 1    
   106   52  175 1    
   107   53  176 1    
   108   53  177 1    
   109   53  178 1    
   110   54   55 am   BACKBONE|DICT|INTERRES
   111   54  179 1    
   112   55   56 2    
   113   55   57 1    
   114   57   58 1    
   115   57   59 1    
   116   57  180 1    
   117   58  181 1    
   118   58  182 1    
   119   58  183 1    
   120   59   60 am   BACKBONE|DICT|INTERRES
   121   59  184 1    
   122   60   61 2    
   123   60   62 1    
   124   62   63 1    
   125   62   64 1    
   126   62  185 1    
   127   63  186 1    
   128   63  187 1    
   129   63  188 1    
   130   64   65 am   BACKBONE|DICT|INTERRES
   131   64  189 1    
   132   65   66 2    
   133   67   68 2    
   134   67   69 am   BACKBONE|DICT|INTERRES
   135   69   70 1    
   136   69  190 1    
   137   70   71 1    
   138   70   72 1    
   139   70  191 1    
   140   71  192 1    
   141   71  193 1    
   142   71  194 1    
   143   72   73 2    
   144   72   74 am   BACKBONE|DICT|INTERRES
   145   74   75 1    
   146   74  195 1    
   147   75   76 1    
   148   75   77 1    
   149   75  196 1    
   150   76  197 1    
   151   76  198 1    
   152   76  199 1    
   153   77   78 2    
   154   77   79 am   BACKBONE|DICT|INTERRES
   155   79   80 1    
   156   79  200 1    
   157   80   81 1    
   158   80   82 1    
   159   80  201 1    
   160   81  202 1    
   161   81  203 1    
   162   81  204 1    
   163   82   83 2    
   164   82   84 am   BACKBONE|DICT|INTERRES
   165   84   85 1    
   166   84  205 1    
   167   85   86 1    
   168   85   87 1    
   169   85  206 1    
   170   86  207 1    
   171   86  208 1    
   172   86  209 1    
   173   87   88 2    
   174   87   89 am   BACKBONE|DICT|INTERRES
   175   89   90 1    
   176   89  210 1    
   177   90   91 1    
   178   90   92 1    
   179   90  211 1    
   180   91  212 1    
   181   91  213 1    
   182   91  214 1    
   183   92   93 2    
   184   92   94 am   BACKBONE|DICT|INTERRES
   185   94   95 1    
   186   94  215 1    
   187   95   96 1    
   188   95   97 1    
   189   95  216 1    
   190   96  217 1    
   191   96  218 1    
   192   96  219 1    
   193   97   98 2    
   194   97   99 am   BACKBONE|DICT|INTERRES
   195   99  100 1    
   196   99  220 1    
   197  100  101 1    
   198  100  102 1    
   199  100  221 1    
   200  101  222 1    
   201  101  223 1    
   202  101  224 1    
   203  102  103 2    
   204  102  104 am   BACKBONE|DICT|INTERRES
   205  104  105 1    
   206  104  225 1    
   207  105  106 1    
   208  105  107 1    
   209  105  226 1    
   210  106  227 1    
   211  106  228 1    
   212  106  229 1    
   213  107  108 2    
   214  107  109 am   BACKBONE|DICT|INTERRES
   215  109  110 1    
   216  109  230 1    
   217  110  111 1    
   218  110  112 1    
   219  110  231 1    
   220  111  232 1    
   221  111  233 1    
   222  111  234 1    
   223  112  113 2    
   224  112  114 am   BACKBONE|DICT|INTERRES
   225  114  115 1    
   226  114  235 1    
   227  115  116 1    
   228  115  117 1    
   229  115  236 1    
   230  116  237 1    
   231  116  238 1    
   232  116  239 1    
   233  117  118 2    
   234  117  119 am   BACKBONE|DICT|INTERRES
   235  119  120 1    
   236  119  240 1    
   237  120  121 1    
   238  120  124 1    
   239  120  241 1    
   240  121  122 am   BACKBONE|DICT|INTERRES
   241  121  123 2    
   242  122  242 1    
   243  122  243 1    
   244  124  125 1    
   245  124  244 1    
   246  124  245 1    
   247  125  126 1    
   248  126  246 1    
   249  126  247 1    
@<TRIPOS>SUBSTRUCTURE
     1 UNK         1 GROUP             0       ****    0 ROOT    
