@<TRIPOS>MOLECULE
3R540
247   249    1
SMALL
USER_CHARGES


@<TRIPOS>ATOM
      1 CA         -5.3839  -11.3098  -45.9026 C.3       0 UNK        -0.1800 
      2 C          -3.9391  -11.7056  -46.1662 C.2       0 UNK         0.5000 
      3 O          -3.0243  -10.9702  -45.7969 O.2       0 UNK        -0.5000 
      4 N          -3.7217  -12.8734  -46.7843 N.am      1 UNK        -0.5000 
      5 CA         -2.3981  -13.4117  -47.1244 C.3       1 UNK         0.1400 
      6 C6         -2.4804  -14.6280  -48.0772 C.3       23 UNK        -0.0398 
      7 S7         -3.5734  -15.9741  -47.4980 S.3       23 UNK        -0.2404 
      8 C8         -3.6687  -17.0169  -48.9879 C.3       23 UNK        -0.0205 
      9 C9         -2.3443  -17.6986  -49.3033 C.ar      23 UNK        -0.0193 
     10 C10        -1.4193  -17.0793  -50.1497 C.ar      23 UNK        -0.1150 
     11 C11        -0.2025  -17.6976  -50.4481 C.ar      23 UNK        -0.0193 
     12 C12         0.0786  -18.9530  -49.9023 C.ar      23 UNK        -0.1150 
     13 C13        -0.8528  -19.6028  -49.0891 C.ar      23 UNK        -0.0193 
     14 C14        -2.0570  -18.9631  -48.7781 C.ar      23 UNK        -0.1150 
     15 C15        -0.5665  -21.0131  -48.5985 C.3       23 UNK        -0.0205 
     16 S16         0.1640  -21.0147  -46.9346 S.3       23 UNK        -0.2404 
     17 C17        -1.3124  -21.2753  -45.8922 C.3       23 UNK        -0.0398 
     18 CA         -1.4133  -22.7431  -45.4164 C.3       11 UNK         0.1400 
     19 N          -0.2533  -23.1556  -44.6137 N.am      11 UNK        -0.5000 
     20 C           0.0506  -24.4251  -44.3045 C.2       10 UNK         0.5000 
     21 O          -0.6554  -25.3796  -44.6289 O.2       10 UNK        -0.5000 
     22 CA          1.3211  -24.6858  -43.4716 C.3       10 UNK         0.1400 
     23 CB          2.4673  -25.1428  -44.3857 C.3       10 UNK        -0.1800 
     24 N           1.7681  -23.5303  -42.6938 N.am      10 UNK        -0.5000 
     25 C           1.0973  -22.9693  -41.6774 C.2       9 UNK         0.5000 
     26 O           0.0303  -23.4030  -41.2417 O.2       9 UNK        -0.5000 
     27 CA          1.6983  -21.6749  -41.0876 C.3       9 UNK         0.1400 
     28 CB          2.5737  -21.9964  -39.8671 C.3       9 UNK        -0.1800 
     29 N           2.4843  -20.8929  -42.0531 N.am      9 UNK        -0.5000 
     30 C           1.9948  -20.3844  -43.1921 C.2       8 UNK         0.5000 
     31 O           0.8187  -20.5195  -43.5362 O.2       8 UNK        -0.5000 
     32 CA          2.9909  -19.6676  -44.1194 C.3       8 UNK         0.1400 
     33 CB          3.9668  -20.6813  -44.7405 C.3       8 UNK        -0.1800 
     34 N           2.2566  -19.0212  -45.2032 N.am      8 UNK        -0.5000 
     35 C           2.0728  -17.7077  -45.3487 C.2       7 UNK         0.5000 
     36 O           2.6014  -16.8490  -44.6372 O.2       7 UNK        -0.5000 
     37 CA          1.0820  -17.3003  -46.4521 C.3       7 UNK         0.1400 
     38 CB         -0.3542  -17.3374  -45.9140 C.3       7 UNK        -0.1800 
     39 N           1.3643  -15.9583  -46.9490 N.am      7 UNK        -0.5000 
     40 C           2.3204  -15.6644  -47.8395 C.2       6 UNK         0.5000 
     41 O           3.0129  -16.5061  -48.4120 O.2       6 UNK        -0.5000 
     42 CA          2.5535  -14.1699  -48.1176 C.3       6 UNK         0.1400 
     43 CB          1.5640  -13.6505  -49.1729 C.3       6 UNK        -0.1800 
     44 N           2.4049  -13.3873  -46.8935 N.am      6 UNK        -0.5000 
     45 C           3.3518  -13.2394  -45.9584 C.2       5 UNK         0.5000 
     46 O           4.5088  -13.6426  -46.0908 O.2       5 UNK        -0.5000 
     47 CA          2.9173  -12.5361  -44.6541 C.3       5 UNK         0.1400 
     48 CB          4.0932  -11.8986  -43.8852 C.3       5 UNK        -0.1800 
     49 N           1.8298  -11.5720  -44.8548 N.am      5 UNK        -0.5000 
     50 C           1.8550  -10.4378  -45.5722 C.2       4 UNK         0.5000 
     51 O           2.8559  -10.0077  -46.1461 O.2       4 UNK        -0.5000 
     52 CA          0.5282   -9.6585  -45.6935 C.3       4 UNK         0.1400 
     53 CB         -0.0551   -9.8273  -47.1052 C.3       4 UNK        -0.1800 
     54 N          -0.4831  -10.0731  -44.7188 N.am      4 UNK        -0.5000 
     55 C          -0.4468   -9.8058  -43.4061 C.2       3 UNK         0.5000 
     56 O           0.4120   -9.1035  -42.8720 O.2       3 UNK        -0.5000 
     57 CA         -1.5281  -10.4801  -42.5429 C.3       3 UNK         0.1400 
     58 CB         -2.8177   -9.6449  -42.5235 C.3       3 UNK        -0.1800 
     59 N          -1.8288  -11.8378  -43.0049 N.am      3 UNK        -0.5000 
     60 C          -1.0164  -12.8923  -42.8419 C.2       2 UNK         0.5000 
     61 O           0.0649  -12.8366  -42.2572 O.2       2 UNK        -0.5000 
     62 CA         -1.4680  -14.2240  -43.4679 C.3       2 UNK         0.1400 
     63 CB         -2.3990  -14.9885  -42.5159 C.3       2 UNK        -0.1800 
     64 N          -2.1406  -14.0338  -44.7529 N.am      2 UNK        -0.5000 
     65 C          -1.5155  -13.7083  -45.8924 C.2       1 UNK         0.5000 
     66 O          -0.2916  -13.6101  -45.9921 O.2       1 UNK        -0.5000 
     67 C          -2.7642  -23.0108  -44.7175 C.2       11 UNK         0.5000 
     68 O          -3.7921  -23.0434  -45.3932 O.2       11 UNK        -0.5000 
     69 N          -2.7442  -23.2315  -43.3949 N.am      12 UNK        -0.5000 
     70 CA         -3.8951  -23.6895  -42.6176 C.3       12 UNK         0.1400 
     71 CB         -3.6185  -23.4372  -41.1276 C.3       12 UNK        -0.1800 
     72 C          -4.2286  -25.1771  -42.8590 C.2       12 UNK         0.5000 
     73 O          -5.3809  -25.5692  -42.6712 O.2       12 UNK        -0.5000 
     74 N          -3.2263  -25.9757  -43.2536 N.am      13 UNK        -0.5000 
     75 CA         -3.3531  -27.4092  -43.5183 C.3       13 UNK         0.1400 
     76 CB         -2.1445  -28.1361  -42.9068 C.3       13 UNK        -0.1800 
     77 C          -3.4529  -27.7121  -45.0236 C.2       13 UNK         0.5000 
     78 O          -4.1470  -28.6573  -45.4018 O.2       13 UNK        -0.5000 
     79 N          -2.7510  -26.9260  -45.8520 N.am      14 UNK        -0.5000 
     80 CA         -2.7112  -27.0554  -47.3093 C.3       14 UNK         0.1400 
     81 CB         -1.6336  -26.1099  -47.8644 C.3       14 UNK        -0.1800 
     82 C          -4.0667  -26.7680  -47.9851 C.2       14 UNK         0.5000 
     83 O          -4.9011  -26.0429  -47.4371 O.2       14 UNK        -0.5000 
     84 N          -4.2398  -27.3271  -49.1884 N.am      15 UNK        -0.5000 
     85 CA         -5.3875  -27.0909  -50.0632 C.3       15 UNK         0.1400 
     86 CB         -5.3810  -28.1545  -51.1734 C.3       15 UNK        -0.1800 
     87 C          -5.3615  -25.6796  -50.6800 C.2       15 UNK         0.5000 
     88 O          -4.2990  -25.0580  -50.7648 O.2       15 UNK        -0.5000 
     89 N          -6.5257  -25.2269  -51.1662 N.am      16 UNK        -0.5000 
     90 CA         -6.7339  -23.9204  -51.8048 C.3       16 UNK         0.1400 
     91 CB         -8.2212  -23.7624  -52.1531 C.3       16 UNK        -0.1800 
     92 C          -5.8624  -23.6676  -53.0518 C.2       16 UNK         0.5000 
     93 O          -5.5939  -22.5112  -53.3749 O.2       16 UNK        -0.5000 
     94 N          -5.3911  -24.7429  -53.6983 N.am      17 UNK        -0.5000 
     95 CA         -4.4293  -24.7125  -54.8012 C.3       17 UNK         0.1400 
     96 CB         -4.2210  -26.1428  -55.3207 C.3       17 UNK        -0.1800 
     97 C          -3.0757  -24.0736  -54.4256 C.2       17 UNK         0.5000 
     98 O          -2.4410  -23.4654  -55.2878 O.2       17 UNK        -0.5000 
     99 N          -2.6697  -24.1928  -53.1510 N.am      18 UNK        -0.5000 
    100 CA        -1.4633  -23.5589  -52.6159 C.3       18 UNK         0.1400 
    101 CB        -1.1043  -24.1868  -51.2597 C.3       18 UNK        -0.1800 
    102 C         -1.6231  -22.0347  -52.4800 C.2       18 UNK         0.5000 
    103 O         -0.6641  -21.3040  -52.7206 O.2       18 UNK        -0.5000 
    104 N         -2.8351  -21.5877  -52.1225 N.am      19 UNK        -0.5000 
    105 CA        -3.1965  -20.1753  -52.0269 C.3       19 UNK         0.1400 
    106 CB        -4.4585  -20.0222  -51.1642 C.3       19 UNK        -0.1800 
    107 C         -3.3975  -19.5424  -53.4114 C.2       19 UNK         0.5000 
    108 O         -2.9193  -18.4345  -53.6500 O.2       19 UNK        -0.5000 
    109 N         -4.0644  -20.2693  -54.3189 N.am      20 UNK        -0.5000 
    110 CA        -4.3594  -19.8486  -55.6931 C.3       20 UNK         0.1400 
    111 CB        -5.2265  -20.9231  -56.3660 C.3       20 UNK        -0.1800 
    112 C         -3.1127  -19.5514  -56.5526 C.2       20 UNK         0.5000 
    113 O         -3.2148  -18.8153  -57.5347 O.2       20 UNK        -0.5000 
    114 N         -1.9621  -20.1141  -56.1639 N.am      21 UNK        -0.5000 
    115 CA        -0.6629  -19.9027  -56.7956 C.3       21 UNK         0.1400 
    116 CB         0.2907  -21.0113  -56.3226 C.3       21 UNK        -0.1800 
    117 C         -0.0440  -18.5143  -56.5254 C.2       21 UNK         0.5000 
    118 O          0.8778  -18.1339  -57.2497 O.2       21 UNK        -0.5000 
    119 N         -0.5159  -17.7915  -55.4995 N.am      22 UNK        -0.5000 
    120 CA         0.1089  -16.5420  -55.0251 C.3       22 UNK         0.1400 
    121 C         -0.8524  -15.5122  -54.3684 C.2       22 UNK         0.5000 
    122 N         -2.0778  -15.8547  -53.9980 N.am      22 UNK        -0.7600 
    123 O         -0.4824  -14.3514  -54.2137 O.2       22 UNK        -0.5000 
    124 C124        1.3741  -16.8003  -54.1572 C.3       23 UNK        -0.0398 
    125 S125        1.1180  -18.0477  -52.8472 S.3       23 UNK        -0.2404 
    126 C126        0.7959  -17.0227  -51.3778 C.3       23 UNK        -0.0205 
    127 H127       -5.5451  -11.1718  -44.8335 H         1 UNK         0.0600 
    128 H128       -6.0830  -12.0669  -46.2586 H         1 UNK         0.0600 
    129 H129       -5.6117  -10.3707  -46.4066 H         1 UNK         0.0600 
    130 H130       -4.5062  -13.4516  -47.0520 H         1 UNK         0.3000 
    131 H131       -1.8791  -12.6235  -47.6731 H         1 UNK         0.0600 
    132 H132       -2.8449  -14.2922  -49.0489 H         1 UNK         0.0800 
    133 H133       -1.4846  -15.0354  -48.2586 H         1 UNK         0.0800 
    134 H134       -4.4420  -17.7707  -48.8340 H         1 UNK         0.0800 
    135 H135       -3.9979  -16.4165  -49.8374 H         1 UNK         0.0800 
    136 H136       -1.6492  -16.1146  -50.5791 H         1 UNK         0.1150 
    137 H137        1.0116  -19.4414  -50.1461 H         1 UNK         0.1150 
    138 H138       -2.7816  -19.4558  -48.1466 H         1 UNK         0.1150 
    139 H139       -1.4757  -21.6157  -48.6230 H         1 UNK         0.0800 
    140 H140        0.1292  -21.5046  -49.2804 H         1 UNK         0.0800 
    141 H141       -2.2029  -20.9871  -46.4521 H         1 UNK         0.0800 
    142 H142       -1.2691  -20.5986  -45.0387 H         1 UNK         0.0800 
    143 H143       -1.4137  -23.3676  -46.3103 H         1 UNK         0.0600 
    144 H144        0.3397  -22.4035  -44.2813 H         1 UNK         0.3000 
    145 H145        1.0930  -25.4944  -42.7742 H         1 UNK         0.0600 
    146 H146        3.3512  -25.4116  -43.8071 H         1 UNK         0.0600 
    147 H147        2.1795  -26.0223  -44.9637 H         1 UNK         0.0600 
    148 H148        2.7520  -24.3634  -45.0939 H         1 UNK         0.0600 
    149 H149        2.6355  -23.1024  -42.9810 H         1 UNK         0.3000 
    150 H150        0.8647  -21.0520  -40.7566 H         1 UNK         0.0600 
    151 H151        3.4428  -22.5955  -40.1416 H         1 UNK         0.0600 
    152 H152        2.0109  -22.5574  -39.1196 H         1 UNK         0.0600 
    153 H153        2.9306  -21.0856  -39.3861 H         1 UNK         0.0600 
    154 H154        3.4594  -20.7529  -41.8305 H         1 UNK         0.3000 
    155 H155        3.5510  -18.9367  -43.5330 H         1 UNK         0.0600 
    156 H156        3.4409  -21.4611  -45.2936 H         1 UNK         0.0600 
    157 H157        4.5733  -21.1697  -43.9771 H         1 UNK         0.0600 
    158 H158        4.6536  -20.1906  -45.4305 H         1 UNK         0.0600 
    159 H159        1.7009  -19.6479  -45.7722 H         1 UNK         0.3000 
    160 H160        1.1610  -18.0092  -47.2791 H         1 UNK         0.0600 
    161 H161       -0.5018  -16.6290  -45.1004 H         1 UNK         0.0600 
    162 H162       -0.6086  -18.3266  -45.5349 H         1 UNK         0.0600 
    163 H163       -1.0657  -17.1023  -46.7015 H         1 UNK         0.0600 
    164 H164        0.8761  -15.1955  -46.4952 H         1 UNK         0.3000 
    165 H165        3.5665  -14.0468  -48.5066 H         1 UNK         0.0600 
    166 H166        1.6559  -14.2115  -50.1036 H         1 UNK         0.0600 
    167 H167        0.5307  -13.7372  -48.8368 H         1 UNK         0.0600 
    168 H168        1.7522  -12.6021  -49.4048 H         1 UNK         0.0600 
    169 H169        1.4634  -13.0902  -46.6590 H         1 UNK         0.3000 
    170 H170        2.5024  -13.3216  -44.0205 H         1 UNK         0.0600 
    171 H171        4.8242  -12.6538  -43.5942 H         1 UNK         0.0600 
    172 H172        4.6160  -11.1539  -44.4856 H         1 UNK         0.0600 
    173 H173        3.7489  -11.4134  -42.9718 H         1 UNK         0.0600 
    174 H174        0.9456  -11.8328  -44.4416 H         1 UNK         0.3000 
    175 H175        0.7484   -8.6010  -45.5342 H         1 UNK         0.0600 
    176 H176       -0.9834   -9.2672  -47.2199 H         1 UNK         0.0600 
    177 H177        0.6403   -9.4638  -47.8627 H         1 UNK         0.0600 
    178 H178       -0.2645  -10.8736  -47.3282 H         1 UNK         0.0600 
    179 H179       -1.2809  -10.5876  -45.0829 H         1 UNK         0.3000 
    180 H180       -1.1495  -10.5403  -41.5202 H         1 UNK         0.0600 
    181 H181       -3.2515   -9.5428  -43.5185 H         1 UNK         0.0600 
    182 H182       -2.6237   -8.6397  -42.1471 H         1 UNK         0.0600 
    183 H183       -3.5690  -10.0950  -41.8746 H         1 UNK         0.0600 
    184 H184       -2.6737  -11.9534  -43.5448 H         1 UNK         0.3000 
    185 H185       -0.5734  -14.8294  -43.6261 H         1 UNK         0.0600 
    186 H186       -1.9165  -15.1602  -41.5527 H         1 UNK         0.0600 
    187 H187       -3.3235  -14.4412  -42.3278 H         1 UNK         0.0600 
    188 H188       -2.6630  -15.9642  -42.9247 H         1 UNK         0.0600 
    189 H189       -3.1469  -14.1134  -44.7635 H         1 UNK         0.3000 
    190 H190       -1.8603  -23.1749  -42.9065 H         1 UNK         0.3000 
    191 H191       -4.7684  -23.1011  -42.9069 H         1 UNK         0.0600 
    192 H192       -3.4344  -22.3804  -40.9335 H         1 UNK         0.0600 
    193 H193       -4.4704  -23.7366  -40.5157 H         1 UNK         0.0600 
    194 H194       -2.7502  -23.9982  -40.7792 H         1 UNK         0.0600 
    195 H195       -2.3169  -25.5687  -43.4346 H         1 UNK         0.3000 
    196 H196       -4.2535  -27.8020  -43.0413 H         1 UNK         0.0600 
    197 H197       -2.2131  -29.2125  -43.0696 H         1 UNK         0.0600 
    198 H198       -2.0913  -27.9732  -41.8302 H         1 UNK         0.0600 
    199 H199       -1.2043  -27.7973  -43.3435 H         1 UNK         0.0600 
    200 H200       -2.1539  -26.2116  -45.4487 H         1 UNK         0.3000 
    201 H201       -2.4218  -28.0832  -47.5380 H         1 UNK         0.0600 
    202 H202       -1.4794  -26.2776  -48.9308 H         1 UNK         0.0600 
    203 H203       -1.9185  -25.0655  -47.7409 H         1 UNK         0.0600 
    204 H204       -0.6736  -26.2611  -47.3702 H         1 UNK         0.0600 
    205 H205       -3.4888  -27.8743  -49.5823 H         1 UNK         0.3000 
    206 H206       -6.3013  -27.1976  -49.4749 H         1 UNK         0.0600 
    207 H207       -5.4140  -29.1609  -50.7553 H         1 UNK         0.0600 
    208 H208       -6.2483  -28.0501  -51.8264 H         1 UNK         0.0600 
    209 H209       -4.4894  -28.0800  -51.7979 H         1 UNK         0.0600 
    210 H210       -7.3461  -25.8092  -51.0760 H         1 UNK         0.3000 
    211 H211       -6.4714  -23.1541  -51.0726 H         1 UNK         0.0600 
    212 H212       -8.5519  -24.5247  -52.8596 H         1 UNK         0.0600 
    213 H213       -8.4157  -22.7889  -52.6057 H         1 UNK         0.0600 
    214 H214       -8.8458  -23.8344  -51.2625 H         1 UNK         0.0600 
    215 H215       -5.6657  -25.6539  -53.3634 H         1 UNK         0.3000 
    216 H216       -4.8653  -24.1166  -55.6049 H         1 UNK         0.0600 
    217 H217       -3.5252  -26.1556  -56.1608 H         1 UNK         0.0600 
    218 H218       -5.1580  -26.5767  -55.6702 H         1 UNK         0.0600 
    219 H219       -3.8148  -26.7964  -54.5475 H         1 UNK         0.0600 
    220 H220       -3.2618  -24.6733  -52.4813 H         1 UNK         0.3000 
    221 H221       -0.6395  -23.7505  -53.3070 H         1 UNK         0.0600 
    222 H222       -1.8676  -23.9893  -50.5064 H         1 UNK         0.0600 
    223 H223       -0.9860  -25.2672  -51.3427 H         1 UNK         0.0600 
    224 H224       -0.1638  -23.7838  -50.8821 H         1 UNK         0.0600 
    225 H225       -3.5768  -22.2587  -51.9856 H         1 UNK         0.3000 
    226 H226       -2.3797  -19.6407  -51.5410 H         1 UNK         0.0600 
    227 H227       -4.7331  -18.9718  -51.0645 H         1 UNK         0.0600 
    228 H228       -5.3139  -20.5423  -51.5950 H         1 UNK         0.0600 
    229 H229       -4.2992  -20.4149  -50.1600 H         1 UNK         0.0600 
    230 H230       -4.4701  -21.1536  -54.0225 H         1 UNK         0.3000 
    231 H231       -4.9399  -18.9259  -55.6346 H         1 UNK         0.0600 
    232 H232       -4.6912  -21.8688  -56.4523 H         1 UNK         0.0600 
    233 H233       -5.5182  -20.6181  -57.3718 H         1 UNK         0.0600 
    234 H234       -6.1423  -21.1042  -55.8030 H         1 UNK         0.0600 
    235 H235       -1.9776  -20.7174  -55.3535 H         1 UNK         0.3000 
    236 H236       -0.7892  -20.0000  -57.8758 H         1 UNK         0.0600 
    237 H237        1.2599  -20.9325  -56.8167 H         1 UNK         0.0600 
    238 H238        0.4655  -20.9562  -55.2472 H         1 UNK         0.0600 
    239 H239       -0.1093  -22.0005  -56.5470 H         1 UNK         0.0600 
    240 H240       -1.2724  -18.1586  -54.9351 H         1 UNK         0.3000 
    241 H241        0.4503  -16.0095  -55.9152 H         1 UNK         0.0600 
    242 H242       -2.3951  -16.8231  -53.9994 H         1 UNK         0.3800 
    243 H243       -2.6748  -15.1489  -53.5996 H         1 UNK         0.3800 
    244 H244        1.7657  -15.8769  -53.7270 H         1 UNK         0.0800 
    245 H245        2.1715  -17.1755  -54.7998 H         1 UNK         0.0800 
    246 H246        1.7326  -16.8526  -50.8463 H         1 UNK         0.0800 
    247 H247        0.4264  -16.0425  -51.6814 H         1 UNK         0.0800 
@<TRIPOS>BOND
     1    1    2 1    
     2    1  127 1    
     3    1  128 1    
     4    1  129 1    
     5    2    3 2    
     6    2    4 am   BACKBONE|DICT|INTERRES
     7    4    5 1    
     8    4  130 1    
     9    5    6 1    
    10    5   65 1    
    11    5  131 1    
    12    6    7 1    
    13    6  132 1    
    14    6  133 1    
    15    7    8 1    
    16    8    9 1    
    17    8  134 1    
    18    8  135 1    
    19    9   10 ar   
    20    9   14 ar   
    21   10   11 ar   
    22   10  136 1    
    23   11   12 ar   
    24   11  126 1    
    25   12   13 ar   
    26   12  137 1    
    27   13   14 ar   
    28   13   15 1    
    29   14  138 1    
    30   15   16 1    
    31   15  139 1    
    32   15  140 1    
    33   16   17 1    
    34   17   18 1    
    35   17  141 1    
    36   17  142 1    
    37   18   19 1    
    38   18   67 1    
    39   18  143 1    
    40   19   20 am   BACKBONE|DICT|INTERRES
    41   19  144 1    
    42   20   21 2    
    43   20   22 1    
    44   22   23 1    
    45   22   24 1    
    46   22  145 1    
    47   23  146 1    
    48   23  147 1    
    49   23  148 1    
    50   24   25 am   BACKBONE|DICT|INTERRES
    51   24  149 1    
    52   25   26 2    
    53   25   27 1    
    54   27   28 1    
    55   27   29 1    
    56   27  150 1    
    57   28  151 1    
    58   28  152 1    
    59   28  153 1    
    60   29   30 am   BACKBONE|DICT|INTERRES
    61   29  154 1    
    62   30   31 2    
    63   30   32 1    
    64   32   33 1    
    65   32   34 1    
    66   32  155 1    
    67   33  156 1    
    68   33  157 1    
    69   33  158 1    
    70   34   35 am   BACKBONE|DICT|INTERRES
    71   34  159 1    
    72   35   36 2    
    73   35   37 1    
    74   37   38 1    
    75   37   39 1    
    76   37  160 1    
    77   38  161 1    
    78   38  162 1    
    79   38  163 1    
    80   39   40 am   BACKBONE|DICT|INTERRES
    81   39  164 1    
    82   40   41 2    
    83   40   42 1    
    84   42   43 1    
    85   42   44 1    
    86   42  165 1    
    87   43  166 1    
    88   43  167 1    
    89   43  168 1    
    90   44   45 am   BACKBONE|DICT|INTERRES
    91   44  169 1    
    92   45   46 2    
    93   45   47 1    
    94   47   48 1    
    95   47   49 1    
    96   47  170 1    
    97   48  171 1    
    98   48  172 1    
    99   48  173 1    
   100   49   50 am   BACKBONE|DICT|INTERRES
   101   49  174 1    
   102   50   51 2    
   103   50   52 1    
   104   52   53 1    
   105   52   54 1    
   106   52  175 1    
   107   53  176 1    
   108   53  177 1    
   109   53  178 1    
   110   54   55 am   BACKBONE|DICT|INTERRES
   111   54  179 1    
   112   55   56 2    
   113   55   57 1    
   114   57   58 1    
   115   57   59 1    
   116   57  180 1    
   117   58  181 1    
   118   58  182 1    
   119   58  183 1    
   120   59   60 am   BACKBONE|DICT|INTERRES
   121   59  184 1    
   122   60   61 2    
   123   60   62 1    
   124   62   63 1    
   125   62   64 1    
   126   62  185 1    
   127   63  186 1    
   128   63  187 1    
   129   63  188 1    
   130   64   65 am   BACKBONE|DICT|INTERRES
   131   64  189 1    
   132   65   66 2    
   133   67   68 2    
   134   67   69 am   BACKBONE|DICT|INTERRES
   135   69   70 1    
   136   69  190 1    
   137   70   71 1    
   138   70   72 1    
   139   70  191 1    
   140   71  192 1    
   141   71  193 1    
   142   71  194 1    
   143   72   73 2    
   144   72   74 am   BACKBONE|DICT|INTERRES
   145   74   75 1    
   146   74  195 1    
   147   75   76 1    
   148   75   77 1    
   149   75  196 1    
   150   76  197 1    
   151   76  198 1    
   152   76  199 1    
   153   77   78 2    
   154   77   79 am   BACKBONE|DICT|INTERRES
   155   79   80 1    
   156   79  200 1    
   157   80   81 1    
   158   80   82 1    
   159   80  201 1    
   160   81  202 1    
   161   81  203 1    
   162   81  204 1    
   163   82   83 2    
   164   82   84 am   BACKBONE|DICT|INTERRES
   165   84   85 1    
   166   84  205 1    
   167   85   86 1    
   168   85   87 1    
   169   85  206 1    
   170   86  207 1    
   171   86  208 1    
   172   86  209 1    
   173   87   88 2    
   174   87   89 am   BACKBONE|DICT|INTERRES
   175   89   90 1    
   176   89  210 1    
   177   90   91 1    
   178   90   92 1    
   179   90  211 1    
   180   91  212 1    
   181   91  213 1    
   182   91  214 1    
   183   92   93 2    
   184   92   94 am   BACKBONE|DICT|INTERRES
   185   94   95 1    
   186   94  215 1    
   187   95   96 1    
   188   95   97 1    
   189   95  216 1    
   190   96  217 1    
   191   96  218 1    
   192   96  219 1    
   193   97   98 2    
   194   97   99 am   BACKBONE|DICT|INTERRES
   195   99  100 1    
   196   99  220 1    
   197  100  101 1    
   198  100  102 1    
   199  100  221 1    
   200  101  222 1    
   201  101  223 1    
   202  101  224 1    
   203  102  103 2    
   204  102  104 am   BACKBONE|DICT|INTERRES
   205  104  105 1    
   206  104  225 1    
   207  105  106 1    
   208  105  107 1    
   209  105  226 1    
   210  106  227 1    
   211  106  228 1    
   212  106  229 1    
   213  107  108 2    
   214  107  109 am   BACKBONE|DICT|INTERRES
   215  109  110 1    
   216  109  230 1    
   217  110  111 1    
   218  110  112 1    
   219  110  231 1    
   220  111  232 1    
   221  111  233 1    
   222  111  234 1    
   223  112  113 2    
   224  112  114 am   BACKBONE|DICT|INTERRES
   225  114  115 1    
   226  114  235 1    
   227  115  116 1    
   228  115  117 1    
   229  115  236 1    
   230  116  237 1    
   231  116  238 1    
   232  116  239 1    
   233  117  118 2    
   234  117  119 am   BACKBONE|DICT|INTERRES
   235  119  120 1    
   236  119  240 1    
   237  120  121 1    
   238  120  124 1    
   239  120  241 1    
   240  121  122 am   BACKBONE|DICT|INTERRES
   241  121  123 2    
   242  122  242 1    
   243  122  243 1    
   244  124  125 1    
   245  124  244 1    
   246  124  245 1    
   247  125  126 1    
   248  126  246 1    
   249  126  247 1    
@<TRIPOS>SUBSTRUCTURE
     1 UNK         1 GROUP             0       ****    0 ROOT    
