@<TRIPOS>MOLECULE
3R540
247   249    1
SMALL
USER_CHARGES


@<TRIPOS>ATOM
      1 CA         -1.1479  -14.8984  -51.5287 C.3       0 UNK        -0.1800 
      2 C          -0.4133  -13.9221  -50.6243 C.2       0 UNK         0.5000 
      3 O          -0.6242  -12.7130  -50.7270 O.2       0 UNK        -0.5000 
      4 N           0.4401  -14.4367  -49.7305 N.am      1 UNK        -0.5000 
      5 CA          1.2476  -13.6718  -48.7717 C.3       1 UNK         0.1400 
      6 C6          2.4796  -14.4794  -48.2877 C.3       23 UNK        -0.0398 
      7 S7          3.6710  -14.7903  -49.6318 S.3       23 UNK        -0.2404 
      8 C8          3.8415  -16.6043  -49.5853 C.3       23 UNK        -0.0205 
      9 C9          2.6847  -17.3430  -50.2483 C.ar      23 UNK        -0.0193 
     10 C10         2.3134  -17.0435  -51.5635 C.ar      23 UNK        -0.1150 
     11 C11         1.3078  -17.7662  -52.2124 C.ar      23 UNK        -0.0193 
     12 C12         0.6746  -18.8076  -51.5220 C.ar      23 UNK        -0.1150 
     13 C13         1.0445  -19.1319  -50.2149 C.ar      23 UNK        -0.0193 
     14 C14         2.0358  -18.3820  -49.5747 C.ar      23 UNK        -0.1150 
     15 C15         0.3865  -20.3105  -49.5132 C.3       23 UNK        -0.0205 
     16 S16         1.5830  -21.6505  -49.1931 S.3       23 UNK        -0.2404 
     17 C17         1.6736  -21.6381  -47.3637 C.3       23 UNK        -0.0398 
     18 CA          1.0063  -22.8278  -46.6136 C.3       11 UNK         0.1400 
     19 N           0.7482  -22.4897  -45.2122 N.am      11 UNK        -0.5000 
     20 C           0.3364  -23.3437  -44.2650 C.2       10 UNK         0.5000 
     21 O           0.1956  -24.5537  -44.4441 O.2       10 UNK        -0.5000 
     22 CA         -0.0352  -22.7263  -42.9037 C.3       10 UNK         0.1400 
     23 CB          1.2198  -22.4493  -42.0629 C.3       10 UNK        -0.1800 
     24 N          -0.8188  -21.4961  -43.0441 N.am      10 UNK        -0.5000 
     25 C          -2.0419  -21.4423  -43.5925 C.2       9 UNK         0.5000 
     26 O          -2.6555  -22.4326  -43.9885 O.2       9 UNK        -0.5000 
     27 CA         -2.6713  -20.0496  -43.7698 C.3       9 UNK         0.1400 
     28 CB         -3.2858  -19.5587  -42.4507 C.3       9 UNK        -0.1800 
     29 N          -1.7214  -19.0589  -44.2775 N.am      9 UNK        -0.5000 
     30 C          -1.1310  -19.1177  -45.4796 C.2       8 UNK         0.5000 
     31 O          -1.3607  -19.9949  -46.3090 O.2       8 UNK        -0.5000 
     32 CA         -0.0594  -18.0581  -45.7910 C.3       8 UNK         0.1400 
     33 CB         -0.6991  -16.7446  -46.2560 C.3       8 UNK        -0.1800 
     34 N           0.8306  -17.8129  -44.6562 N.am      8 UNK        -0.5000 
     35 C           1.6383  -18.7376  -44.1163 C.2       7 UNK         0.5000 
     36 O           1.7642  -19.8791  -44.5581 O.2       7 UNK        -0.5000 
     37 CA          2.3877  -18.3403  -42.8358 C.3       7 UNK         0.1400 
     38 CB          3.6701  -17.5616  -43.1660 C.3       7 UNK        -0.1800 
     39 N           1.5375  -17.5523  -41.9445 N.am      7 UNK        -0.5000 
     40 C           0.5230  -18.0597  -41.2304 C.2       6 UNK         0.5000 
     41 O           0.2267  -19.2550  -41.2207 O.2       6 UNK        -0.5000 
     42 CA         -0.3232  -17.0585  -40.4206 C.3       6 UNK         0.1400 
     43 CB          0.3380  -16.7618  -39.0665 C.3       6 UNK        -0.1800 
     44 N          -0.5554  -15.8003  -41.1336 N.am      6 UNK        -0.5000 
     45 C          -1.2967  -15.6922  -42.2447 C.2       5 UNK         0.5000 
     46 O          -1.8850  -16.6387  -42.7638 O.2       5 UNK        -0.5000 
     47 CA         -1.3636  -14.3084  -42.9176 C.3       5 UNK         0.1400 
     48 CB         -2.5038  -13.4760  -42.3131 C.3       5 UNK        -0.1800 
     49 N          -0.1216  -13.5311  -42.8721 N.am      5 UNK        -0.5000 
     50 C           1.0879  -13.9523  -43.2694 C.2       4 UNK         0.5000 
     51 O           1.3321  -15.1100  -43.6125 O.2       4 UNK        -0.5000 
     52 CA          2.1799  -12.8739  -43.3342 C.3       4 UNK         0.1400 
     53 CB          3.5349  -13.4201  -43.8197 C.3       4 UNK        -0.1800 
     54 N           1.7228  -11.8409  -44.2565 N.am      4 UNK        -0.5000 
     55 C           1.6479  -10.5290  -44.0018 C.2       3 UNK         0.5000 
     56 O           2.0239  -10.0173  -42.9465 O.2       3 UNK        -0.5000 
     57 CA          1.0449   -9.6290  -45.1030 C.3       3 UNK         0.1400 
     58 CB          2.1596   -8.8907  -45.8601 C.3       3 UNK        -0.1800 
     59 N           0.2226  -10.3581  -46.0721 N.am      3 UNK        -0.5000 
     60 C          -0.9656  -10.9201  -45.8086 C.2       2 UNK         0.5000 
     61 O          -1.5501  -10.8004  -44.7319 O.2       2 UNK        -0.5000 
     62 CA         -1.5913  -11.7918  -46.9186 C.3       2 UNK         0.1400 
     63 CB         -2.6611  -11.0008  -47.6859 C.3       2 UNK        -0.1800 
     64 N          -0.6310  -12.3470  -47.8810 N.am      2 UNK        -0.5000 
     65 C           0.3956  -13.1562  -47.5888 C.2       1 UNK         0.5000 
     66 O           0.6796  -13.4807  -46.4370 O.2       1 UNK        -0.5000 
     67 C          -0.2656  -23.3851  -47.2915 C.2       11 UNK         0.5000 
     68 O          -0.2044  -24.4560  -47.8942 O.2       11 UNK        -0.5000 
     69 N          -1.3970  -22.6818  -47.1448 N.am      12 UNK        -0.5000 
     70 CA         -2.6933  -23.0757  -47.6956 C.3       12 UNK         0.1400 
     71 CB         -3.7176  -21.9552  -47.4631 C.3       12 UNK        -0.1800 
     72 C          -3.2095  -24.4149  -47.1391 C.2       12 UNK         0.5000 
     73 O          -3.7261  -25.2319  -47.9016 O.2       12 UNK        -0.5000 
     74 N          -3.0243  -24.6372  -45.8305 N.am      13 UNK        -0.5000 
     75 CA         -3.3470  -25.8909  -45.1498 C.3       13 UNK         0.1400 
     76 CB         -3.2009  -25.7069  -43.6318 C.3       13 UNK        -0.1800 
     77 C          -2.4931  -27.0736  -45.6437 C.2       13 UNK         0.5000 
     78 O          -3.0298  -28.1649  -45.8364 O.2       13 UNK        -0.5000 
     79 N          -1.1930  -26.8327  -45.8650 N.am      14 UNK        -0.5000 
     80 CA         -0.2523  -27.8115  -46.4122 C.3       14 UNK         0.1400 
     81 CB          1.1857  -27.3073  -46.2157 C.3       14 UNK        -0.1800 
     82 C          -0.5253  -28.1336  -47.8940 C.2       14 UNK         0.5000 
     83 O          -0.4659  -29.3008  -48.2827 O.2       14 UNK        -0.5000 
     84 N          -0.8312  -27.0990  -48.6886 N.am      15 UNK        -0.5000 
     85 CA         -1.1698  -27.2025  -50.1096 C.3       15 UNK         0.1400 
     86 CB         -1.1060  -25.8025  -50.7414 C.3       15 UNK        -0.1800 
     87 C          -2.5523  -27.8311  -50.3669 C.2       15 UNK         0.5000 
     88 O          -2.7618  -28.4021  -51.4377 O.2       15 UNK        -0.5000 
     89 N          -3.4644  -27.6922  -49.3936 N.am      16 UNK        -0.5000 
     90 CA         -4.8828  -28.0605  -49.4341 C.3       16 UNK         0.1400 
     91 CB         -5.0634  -29.5858  -49.5806 C.3       16 UNK        -0.1800 
     92 C          -5.6680  -27.2422  -50.4824 C.2       16 UNK         0.5000 
     93 O          -6.5733  -27.7665  -51.1342 O.2       16 UNK        -0.5000 
     94 N          -5.3023  -25.9634  -50.6210 N.am      17 UNK        -0.5000 
     95 CA         -5.8855  -24.9893  -51.5361 C.3       17 UNK         0.1400 
     96 CB         -5.3242  -25.1915  -52.9547 C.3       17 UNK        -0.1800 
     97 C          -5.5496  -23.5901  -51.0073 C.2       17 UNK         0.5000 
     98 O          -4.4975  -23.4175  -50.3910 O.2       17 UNK        -0.5000 
     99 N          -6.4399  -22.6201  -51.2457 N.am      18 UNK        -0.5000 
    100 CA        -6.3030  -21.2395  -50.7778 C.3       18 UNK         0.1400 
    101 CB        -7.5927  -20.4696  -51.1029 C.3       18 UNK        -0.1800 
    102 C         -5.0872  -20.5182  -51.3889 C.2       18 UNK         0.5000 
    103 O         -4.8391  -20.6473  -52.5897 O.2       18 UNK        -0.5000 
    104 N         -4.3944  -19.7207  -50.5630 N.am      19 UNK        -0.5000 
    105 CA        -3.2376  -18.9060  -50.9545 C.3       19 UNK         0.1400 
    106 CB        -2.6201  -18.2752  -49.6957 C.3       19 UNK        -0.1800 
    107 C         -3.5823  -17.8156  -51.9883 C.2       19 UNK         0.5000 
    108 O         -2.7234  -17.4270  -52.7781 O.2       19 UNK        -0.5000 
    109 N         -4.8500  -17.3769  -51.9932 N.am      20 UNK        -0.5000 
    110 CA        -5.4248  -16.3994  -52.9195 C.3       20 UNK         0.1400 
    111 CB        -6.8911  -16.1557  -52.5320 C.3       20 UNK        -0.1800 
    112 C         -5.3206  -16.7887  -54.4086 C.2       20 UNK         0.5000 
    113 O         -5.3391  -15.8977  -55.2585 O.2       20 UNK        -0.5000 
    114 N         -5.1602  -18.0892  -54.7017 N.am      21 UNK        -0.5000 
    115 CA        -4.9315  -18.6396  -56.0418 C.3       21 UNK         0.1400 
    116 CB        -4.9024  -20.1727  -55.9501 C.3       21 UNK        -0.1800 
    117 C         -3.6524  -18.1178  -56.7334 C.2       21 UNK         0.5000 
    118 O         -3.5843  -18.1404  -57.9632 O.2       21 UNK        -0.5000 
    119 N         -2.6847  -17.6386  -55.9437 N.am      22 UNK        -0.5000 
    120 CA        -1.4635  -16.9539  -56.3921 C.3       22 UNK         0.1400 
    121 C         -1.3388  -15.5116  -55.8177 C.2       22 UNK         0.5000 
    122 N         -2.4118  -14.8970  -55.3318 N.am      22 UNK        -0.7600 
    123 O         -0.2635  -14.9193  -55.8406 O.2       22 UNK        -0.5000 
    124 C124       -0.1891  -17.8262  -56.2063 C.3       23 UNK        -0.0398 
    125 S125       -0.0187  -18.6265  -54.5735 S.3       23 UNK        -0.2404 
    126 C126        0.9415  -17.3795  -53.6471 C.3       23 UNK        -0.0205 
    127 H127       -2.2200  -14.8568  -51.3376 H         1 UNK         0.0600 
    128 H128       -0.8146  -15.9236  -51.3710 H         1 UNK         0.0600 
    129 H129       -0.9787  -14.6448  -52.5750 H         1 UNK         0.0600 
    130 H130        0.5757  -15.4370  -49.7042 H         1 UNK         0.3000 
    131 H131        1.6239  -12.7817  -49.2807 H         1 UNK         0.0600 
    132 H132        3.0202  -13.9324  -47.5128 H         1 UNK         0.0800 
    133 H133        2.1681  -15.4209  -47.8321 H         1 UNK         0.0800 
    134 H134        4.7594  -16.8755  -50.1083 H         1 UNK         0.0800 
    135 H135        3.9761  -16.9274  -48.5517 H         1 UNK         0.0800 
    136 H136        2.8209  -16.2469  -52.0896 H         1 UNK         0.1150 
    137 H137       -0.1030  -19.3840  -51.9996 H         1 UNK         0.1150 
    138 H138        2.3305  -18.6400  -48.5671 H         1 UNK         0.1150 
    139 H139       -0.0858  -19.9642  -48.5959 H         1 UNK         0.0800 
    140 H140       -0.4214  -20.7193  -50.1220 H         1 UNK         0.0800 
    141 H141        1.2535  -20.6989  -47.0094 H         1 UNK         0.0800 
    142 H142        2.7269  -21.5906  -47.0848 H         1 UNK         0.0800 
    143 H143        1.7289  -23.6467  -46.6112 H         1 UNK         0.0600 
    144 H144        0.8853  -21.5160  -44.9544 H         1 UNK         0.3000 
    145 H145       -0.6486  -23.4529  -42.3669 H         1 UNK         0.0600 
    146 H146        0.9559  -22.0760  -41.0733 H         1 UNK         0.0600 
    147 H147        1.8038  -23.3597  -41.9227 H         1 UNK         0.0600 
    148 H148        1.8692  -21.7121  -42.5350 H         1 UNK         0.0600 
    149 H149       -0.3950  -20.6411  -42.7017 H         1 UNK         0.3000 
    150 H150       -3.4760  -20.1416  -44.5018 H         1 UNK         0.0600 
    151 H151       -3.9959  -20.2861  -42.0552 H         1 UNK         0.0600 
    152 H152       -3.8260  -18.6227  -42.5931 H         1 UNK         0.0600 
    153 H153       -2.5247  -19.3929  -41.6879 H         1 UNK         0.0600 
    154 H154       -1.5326  -18.2630  -43.6740 H         1 UNK         0.3000 
    155 H155        0.5524  -18.4353  -46.6121 H         1 UNK         0.0600 
    156 H156        0.0651  -16.0204  -46.5310 H         1 UNK         0.0600 
    157 H157       -1.3278  -16.9040  -47.1329 H         1 UNK         0.0600 
    158 H158       -1.3213  -16.3000  -45.4803 H         1 UNK         0.0600 
    159 H159        0.8240  -16.8810  -44.2505 H         1 UNK         0.3000 
    160 H160        2.6753  -19.2565  -42.3157 H         1 UNK         0.0600 
    161 H161        3.4622  -16.6521  -43.7296 H         1 UNK         0.0600 
    162 H162        4.3462  -18.1691  -43.7688 H         1 UNK         0.0600 
    163 H163        4.2062  -17.2802  -42.2597 H         1 UNK         0.0600 
    164 H164        1.6510  -16.5482  -41.9872 H         1 UNK         0.3000 
    165 H165       -1.2929  -17.5236  -40.2302 H         1 UNK         0.0600 
    166 H166       -0.2927  -16.1188  -38.4523 H         1 UNK         0.0600 
    167 H167        0.5065  -17.6818  -38.5051 H         1 UNK         0.0600 
    168 H168        1.3036  -16.2694  -39.1877 H         1 UNK         0.0600 
    169 H169       -0.0981  -14.9750  -40.7755 H         1 UNK         0.3000 
    170 H170       -1.5914  -14.4723  -43.9722 H         1 UNK         0.0600 
    171 H171       -2.6467  -12.5445  -42.8607 H         1 UNK         0.0600 
    172 H172       -2.3097  -13.2260  -41.2694 H         1 UNK         0.0600 
    173 H173       -3.4486  -14.0201  -42.3509 H         1 UNK         0.0600 
    174 H174       -0.2239  -12.5543  -42.6373 H         1 UNK         0.3000 
    175 H175        2.3046  -12.4742  -42.3260 H         1 UNK         0.0600 
    176 H176        3.9101  -14.1901  -43.1447 H         1 UNK         0.0600 
    177 H177        3.4573  -13.8609  -44.8146 H         1 UNK         0.0600 
    178 H178        4.2847  -12.6301  -43.8614 H         1 UNK         0.0600 
    179 H179        1.3376  -12.1983  -45.1268 H         1 UNK         0.3000 
    180 H180        0.4138   -8.8863  -44.6106 H         1 UNK         0.0600 
    181 H181        2.8175   -9.5850  -46.3846 H         1 UNK         0.0600 
    182 H182        2.7769   -8.3070  -45.1759 H         1 UNK         0.0600 
    183 H183        1.7470   -8.1979  -46.5938 H         1 UNK         0.0600 
    184 H184        0.6217  -10.5009  -46.9879 H         1 UNK         0.3000 
    185 H185       -2.0785  -12.6347  -46.4243 H         1 UNK         0.0600 
    186 H186       -3.4137  -10.5979  -47.0067 H         1 UNK         0.0600 
    187 H187       -2.2257  -10.1618  -48.2302 H         1 UNK         0.0600 
    188 H188       -3.1801  -11.6346  -48.4052 H         1 UNK         0.0600 
    189 H189       -0.8031  -12.1565  -48.8642 H         1 UNK         0.3000 
    190 H190       -1.3645  -21.7842  -46.6660 H         1 UNK         0.3000 
    191 H191       -2.5536  -23.1964  -48.7703 H         1 UNK         0.0600 
    192 H192       -3.8502  -21.7447  -46.4021 H         1 UNK         0.0600 
    193 H193       -4.6924  -22.2278  -47.8684 H         1 UNK         0.0600 
    194 H194       -3.4067  -21.0330  -47.9525 H         1 UNK         0.0600 
    195 H195       -2.6463  -23.8890  -45.2556 H         1 UNK         0.3000 
    196 H196       -4.3919  -26.1252  -45.3630 H         1 UNK         0.0600 
    197 H197       -3.4515  -26.6257  -43.1004 H         1 UNK         0.0600 
    198 H198       -3.8672  -24.9262  -43.2644 H         1 UNK         0.0600 
    199 H199       -2.1825  -25.4335  -43.3548 H         1 UNK         0.0600 
    200 H200       -0.8199  -25.9150  -45.6450 H         1 UNK         0.3000 
    201 H201       -0.3629  -28.7386  -45.8457 H         1 UNK         0.0600 
    202 H202        1.4059  -27.1488  -45.1598 H         1 UNK         0.0600 
    203 H203        1.3591  -26.3654  -46.7366 H         1 UNK         0.0600 
    204 H204        1.9086  -28.0307  -46.5946 H         1 UNK         0.0600 
    205 H205       -0.7838  -26.1578  -48.3024 H         1 UNK         0.3000 
    206 H206       -0.4217  -27.8327  -50.5947 H         1 UNK         0.0600 
    207 H207       -0.1153  -25.3619  -50.6276 H         1 UNK         0.0600 
    208 H208       -1.3240  -25.8432  -51.8093 H         1 UNK         0.0600 
    209 H209       -1.8280  -25.1236  -50.2852 H         1 UNK         0.0600 
    210 H210       -3.1980  -27.1316  -48.5920 H         1 UNK         0.3000 
    211 H211       -5.2911  -27.7756  -48.4633 H         1 UNK         0.0600 
    212 H212       -4.7478  -29.9420  -50.5613 H         1 UNK         0.0600 
    213 H213       -6.1092  -29.8676  -49.4534 H         1 UNK         0.0600 
    214 H214       -4.4889  -30.1237  -48.8263 H         1 UNK         0.0600 
    215 H215       -4.5899  -25.5818  -50.0054 H         1 UNK         0.3000 
    216 H216       -6.9706  -25.1111  -51.5470 H         1 UNK         0.0600 
    217 H217       -4.2372  -25.1002  -52.9702 H         1 UNK         0.0600 
    218 H218       -5.7272  -24.4491  -53.6446 H         1 UNK         0.0600 
    219 H219       -5.5824  -26.1747  -53.3480 H         1 UNK         0.0600 
    220 H220       -7.2615  -22.8292  -51.7934 H         1 UNK         0.3000 
    221 H221       -6.1846  -21.2689  -49.6928 H         1 UNK         0.0600 
    222 H222       -8.4598  -20.9345  -50.6333 H         1 UNK         0.0600 
    223 H223       -7.7752  -20.4263  -52.1776 H         1 UNK         0.0600 
    224 H224       -7.5399  -19.4429  -50.7382 H         1 UNK         0.0600 
    225 H225       -4.6731  -19.6604  -49.5947 H         1 UNK         0.3000 
    226 H226       -2.4994  -19.5695  -51.4090 H         1 UNK         0.0600 
    227 H227       -2.3372  -19.0351  -48.9677 H         1 UNK         0.0600 
    228 H228       -1.7187  -17.7133  -49.9418 H         1 UNK         0.0600 
    229 H229       -3.3117  -17.5872  -49.2081 H         1 UNK         0.0600 
    230 H230       -5.4799  -17.7626  -51.3064 H         1 UNK         0.3000 
    231 H231       -4.8738  -15.4655  -52.7911 H         1 UNK         0.0600 
    232 H232       -7.4838  -17.0683  -52.6090 H         1 UNK         0.0600 
    233 H233       -7.3498  -15.4103  -53.1832 H         1 UNK         0.0600 
    234 H234       -6.9739  -15.7855  -51.5099 H         1 UNK         0.0600 
    235 H235       -5.1254  -18.7531  -53.9384 H         1 UNK         0.3000 
    236 H236       -5.7793  -18.3490  -56.6651 H         1 UNK         0.0600 
    237 H237       -4.0763  -20.5201  -55.3281 H         1 UNK         0.0600 
    238 H238       -5.8278  -20.5618  -55.5248 H         1 UNK         0.0600 
    239 H239       -4.7832  -20.6225  -56.9366 H         1 UNK         0.0600 
    240 H240       -2.8097  -17.6640  -54.9371 H         1 UNK         0.3000 
    241 H241       -1.5447  -16.7724  -57.4650 H         1 UNK         0.0600 
    242 H242       -2.3209  -13.9578  -54.9796 H         1 UNK         0.3800 
    243 H243       -3.3240  -15.3340  -55.3659 H         1 UNK         0.3800 
    244 H244        0.7173  -17.2655  -56.4395 H         1 UNK         0.0800 
    245 H245       -0.2177  -18.6314  -56.9412 H         1 UNK         0.0800 
    246 H246        1.8542  -17.1642  -54.2047 H         1 UNK         0.0800 
    247 H247        0.3697  -16.4530  -53.6111 H         1 UNK         0.0800 
@<TRIPOS>BOND
     1    1    2 1    
     2    1  127 1    
     3    1  128 1    
     4    1  129 1    
     5    2    3 2    
     6    2    4 am   BACKBONE|DICT|INTERRES
     7    4    5 1    
     8    4  130 1    
     9    5    6 1    
    10    5   65 1    
    11    5  131 1    
    12    6    7 1    
    13    6  132 1    
    14    6  133 1    
    15    7    8 1    
    16    8    9 1    
    17    8  134 1    
    18    8  135 1    
    19    9   10 ar   
    20    9   14 ar   
    21   10   11 ar   
    22   10  136 1    
    23   11   12 ar   
    24   11  126 1    
    25   12   13 ar   
    26   12  137 1    
    27   13   14 ar   
    28   13   15 1    
    29   14  138 1    
    30   15   16 1    
    31   15  139 1    
    32   15  140 1    
    33   16   17 1    
    34   17   18 1    
    35   17  141 1    
    36   17  142 1    
    37   18   19 1    
    38   18   67 1    
    39   18  143 1    
    40   19   20 am   BACKBONE|DICT|INTERRES
    41   19  144 1    
    42   20   21 2    
    43   20   22 1    
    44   22   23 1    
    45   22   24 1    
    46   22  145 1    
    47   23  146 1    
    48   23  147 1    
    49   23  148 1    
    50   24   25 am   BACKBONE|DICT|INTERRES
    51   24  149 1    
    52   25   26 2    
    53   25   27 1    
    54   27   28 1    
    55   27   29 1    
    56   27  150 1    
    57   28  151 1    
    58   28  152 1    
    59   28  153 1    
    60   29   30 am   BACKBONE|DICT|INTERRES
    61   29  154 1    
    62   30   31 2    
    63   30   32 1    
    64   32   33 1    
    65   32   34 1    
    66   32  155 1    
    67   33  156 1    
    68   33  157 1    
    69   33  158 1    
    70   34   35 am   BACKBONE|DICT|INTERRES
    71   34  159 1    
    72   35   36 2    
    73   35   37 1    
    74   37   38 1    
    75   37   39 1    
    76   37  160 1    
    77   38  161 1    
    78   38  162 1    
    79   38  163 1    
    80   39   40 am   BACKBONE|DICT|INTERRES
    81   39  164 1    
    82   40   41 2    
    83   40   42 1    
    84   42   43 1    
    85   42   44 1    
    86   42  165 1    
    87   43  166 1    
    88   43  167 1    
    89   43  168 1    
    90   44   45 am   BACKBONE|DICT|INTERRES
    91   44  169 1    
    92   45   46 2    
    93   45   47 1    
    94   47   48 1    
    95   47   49 1    
    96   47  170 1    
    97   48  171 1    
    98   48  172 1    
    99   48  173 1    
   100   49   50 am   BACKBONE|DICT|INTERRES
   101   49  174 1    
   102   50   51 2    
   103   50   52 1    
   104   52   53 1    
   105   52   54 1    
   106   52  175 1    
   107   53  176 1    
   108   53  177 1    
   109   53  178 1    
   110   54   55 am   BACKBONE|DICT|INTERRES
   111   54  179 1    
   112   55   56 2    
   113   55   57 1    
   114   57   58 1    
   115   57   59 1    
   116   57  180 1    
   117   58  181 1    
   118   58  182 1    
   119   58  183 1    
   120   59   60 am   BACKBONE|DICT|INTERRES
   121   59  184 1    
   122   60   61 2    
   123   60   62 1    
   124   62   63 1    
   125   62   64 1    
   126   62  185 1    
   127   63  186 1    
   128   63  187 1    
   129   63  188 1    
   130   64   65 am   BACKBONE|DICT|INTERRES
   131   64  189 1    
   132   65   66 2    
   133   67   68 2    
   134   67   69 am   BACKBONE|DICT|INTERRES
   135   69   70 1    
   136   69  190 1    
   137   70   71 1    
   138   70   72 1    
   139   70  191 1    
   140   71  192 1    
   141   71  193 1    
   142   71  194 1    
   143   72   73 2    
   144   72   74 am   BACKBONE|DICT|INTERRES
   145   74   75 1    
   146   74  195 1    
   147   75   76 1    
   148   75   77 1    
   149   75  196 1    
   150   76  197 1    
   151   76  198 1    
   152   76  199 1    
   153   77   78 2    
   154   77   79 am   BACKBONE|DICT|INTERRES
   155   79   80 1    
   156   79  200 1    
   157   80   81 1    
   158   80   82 1    
   159   80  201 1    
   160   81  202 1    
   161   81  203 1    
   162   81  204 1    
   163   82   83 2    
   164   82   84 am   BACKBONE|DICT|INTERRES
   165   84   85 1    
   166   84  205 1    
   167   85   86 1    
   168   85   87 1    
   169   85  206 1    
   170   86  207 1    
   171   86  208 1    
   172   86  209 1    
   173   87   88 2    
   174   87   89 am   BACKBONE|DICT|INTERRES
   175   89   90 1    
   176   89  210 1    
   177   90   91 1    
   178   90   92 1    
   179   90  211 1    
   180   91  212 1    
   181   91  213 1    
   182   91  214 1    
   183   92   93 2    
   184   92   94 am   BACKBONE|DICT|INTERRES
   185   94   95 1    
   186   94  215 1    
   187   95   96 1    
   188   95   97 1    
   189   95  216 1    
   190   96  217 1    
   191   96  218 1    
   192   96  219 1    
   193   97   98 2    
   194   97   99 am   BACKBONE|DICT|INTERRES
   195   99  100 1    
   196   99  220 1    
   197  100  101 1    
   198  100  102 1    
   199  100  221 1    
   200  101  222 1    
   201  101  223 1    
   202  101  224 1    
   203  102  103 2    
   204  102  104 am   BACKBONE|DICT|INTERRES
   205  104  105 1    
   206  104  225 1    
   207  105  106 1    
   208  105  107 1    
   209  105  226 1    
   210  106  227 1    
   211  106  228 1    
   212  106  229 1    
   213  107  108 2    
   214  107  109 am   BACKBONE|DICT|INTERRES
   215  109  110 1    
   216  109  230 1    
   217  110  111 1    
   218  110  112 1    
   219  110  231 1    
   220  111  232 1    
   221  111  233 1    
   222  111  234 1    
   223  112  113 2    
   224  112  114 am   BACKBONE|DICT|INTERRES
   225  114  115 1    
   226  114  235 1    
   227  115  116 1    
   228  115  117 1    
   229  115  236 1    
   230  116  237 1    
   231  116  238 1    
   232  116  239 1    
   233  117  118 2    
   234  117  119 am   BACKBONE|DICT|INTERRES
   235  119  120 1    
   236  119  240 1    
   237  120  121 1    
   238  120  124 1    
   239  120  241 1    
   240  121  122 am   BACKBONE|DICT|INTERRES
   241  121  123 2    
   242  122  242 1    
   243  122  243 1    
   244  124  125 1    
   245  124  244 1    
   246  124  245 1    
   247  125  126 1    
   248  126  246 1    
   249  126  247 1    
@<TRIPOS>SUBSTRUCTURE
     1 UNK         1 GROUP             0       ****    0 ROOT    
