@<TRIPOS>MOLECULE
3R540
247   249    1
SMALL
USER_CHARGES


@<TRIPOS>ATOM
      1 CA          0.5271  -13.5954  -42.5387 C.3       0 UNK        -0.1800 
      2 C          -0.4131  -13.7315  -43.7275 C.2       0 UNK         0.5000 
      3 O          -0.2118  -14.6116  -44.5607 O.2       0 UNK        -0.5000 
      4 N          -1.4370  -12.8685  -43.8005 N.am      1 UNK        -0.5000 
      5 CA         -2.4721  -12.8343  -44.8484 C.3       1 UNK         0.1400 
      6 C6         -3.3524  -14.1158  -44.9071 C.3       23 UNK        -0.0398 
      7 S7         -4.0363  -14.5864  -43.2779 S.3       23 UNK        -0.2404 
      8 C8         -3.2378  -16.2064  -43.0089 C.3       23 UNK        -0.0205 
      9 C9         -4.1349  -17.3732  -43.4049 C.ar      23 UNK        -0.0193 
     10 C10        -4.7102  -17.4420  -44.6788 C.ar      23 UNK        -0.1150 
     11 C11        -5.5501  -18.5037  -45.0247 C.ar      23 UNK        -0.0193 
     12 C12        -5.8014  -19.5135  -44.0940 C.ar      23 UNK        -0.1150 
     13 C13        -5.2076  -19.4753  -42.8295 C.ar      23 UNK        -0.0193 
     14 C14        -4.3836  -18.3996  -42.4884 C.ar      23 UNK        -0.1150 
     15 C15        -5.4445  -20.6022  -41.8362 C.3       23 UNK        -0.0205 
     16 S16        -4.0659  -21.7938  -41.8304 S.3       23 UNK        -0.2404 
     17 C17        -4.1313  -22.4463  -43.5361 C.3       23 UNK        -0.0398 
     18 CA         -3.0366  -21.8266  -44.4605 C.3       11 UNK         0.1400 
     19 N          -1.6826  -22.0528  -43.9381 N.am      11 UNK        -0.5000 
     20 C          -1.0960  -23.2462  -43.7859 C.2       10 UNK         0.5000 
     21 O          -1.5309  -24.2881  -44.2828 O.2       10 UNK        -0.5000 
     22 CA          0.1716  -23.2724  -42.9147 C.3       10 UNK         0.1400 
     23 CB          0.7653  -24.6927  -42.7628 C.3       10 UNK        -0.1800 
     24 N           1.1714  -22.3191  -43.4023 N.am      10 UNK        -0.5000 
     25 C           2.2376  -21.9143  -42.6983 C.2       9 UNK         0.5000 
     26 O           2.4647  -22.2604  -41.5380 O.2       9 UNK        -0.5000 
     27 CA          3.2202  -20.9612  -43.3994 C.3       9 UNK         0.1400 
     28 CB          4.0543  -21.6963  -44.4590 C.3       9 UNK        -0.1800 
     29 N           2.5546  -19.8086  -44.0032 N.am      9 UNK        -0.5000 
     30 C           2.1073  -18.7563  -43.3006 C.2       8 UNK         0.5000 
     31 O           2.1724  -18.6802  -42.0729 O.2       8 UNK        -0.5000 
     32 CA          1.5192  -17.5695  -44.0884 C.3       8 UNK         0.1400 
     33 CB          2.6072  -16.5094  -44.3145 C.3       8 UNK        -0.1800 
     34 N           0.9577  -17.9375  -45.3852 N.am      8 UNK        -0.5000 
     35 C          -0.0979  -18.7410  -45.5722 C.2       7 UNK         0.5000 
     36 O          -0.7408  -19.2485  -44.6527 O.2       7 UNK        -0.5000 
     37 CA         -0.4800  -19.0529  -47.0341 C.3       7 UNK         0.1400 
     38 CB         -1.5810  -18.0854  -47.4896 C.3       7 UNK        -0.1800 
     39 N           0.6305  -18.9845  -47.9912 N.am      7 UNK        -0.5000 
     40 C           1.8082  -19.6200  -47.8882 C.2       6 UNK         0.5000 
     41 O           2.0856  -20.3980  -46.9752 O.2       6 UNK        -0.5000 
     42 CA          2.8862  -19.2848  -48.9390 C.3       6 UNK         0.1400 
     43 CB          3.0049  -20.4038  -49.9808 C.3       6 UNK        -0.1800 
     44 N           2.6798  -18.0078  -49.6292 N.am      6 UNK        -0.5000 
     45 C           2.7515  -16.8037  -49.0467 C.2       5 UNK         0.5000 
     46 O           2.9374  -16.6397  -47.8384 O.2       5 UNK        -0.5000 
     47 CA          2.5321  -15.5955  -49.9740 C.3       5 UNK         0.1400 
     48 CB          1.0322  -15.3188  -50.1425 C.3       5 UNK        -0.1800 
     49 N           3.1789  -14.3941  -49.4531 N.am      5 UNK        -0.5000 
     50 C           4.4868  -14.1226  -49.5653 C.2       4 UNK         0.5000 
     51 O           5.2777  -14.8361  -50.1847 O.2       4 UNK        -0.5000 
     52 CA          5.0081  -12.8364  -48.8878 C.3       4 UNK         0.1400 
     53 CB          5.0968  -11.6903  -49.9073 C.3       4 UNK        -0.1800 
     54 N           4.1811  -12.4031  -47.7613 N.am      4 UNK        -0.5000 
     55 C           4.0948  -13.0474  -46.5908 C.2       3 UNK         0.5000 
     56 O           4.8242  -13.9905  -46.2833 O.2       3 UNK        -0.5000 
     57 CA          3.0219  -12.5720  -45.5876 C.3       3 UNK         0.1400 
     58 CB          3.6833  -11.8768  -44.3867 C.3       3 UNK        -0.1800 
     59 N           1.9622  -11.6960  -46.1052 N.am      3 UNK        -0.5000 
     60 C           1.1266  -11.9489  -47.1232 C.2       2 UNK         0.5000 
     61 O           1.2484  -12.8957  -47.8988 O.2       2 UNK        -0.5000 
     62 CA         -0.0766  -10.9960  -47.2332 C.3       2 UNK         0.1400 
     63 CB         -0.6626  -10.9031  -48.6590 C.3       2 UNK        -0.1800 
     64 N          -1.0732  -11.3824  -46.2276 N.am      2 UNK        -0.5000 
     65 C          -1.8467  -12.4816  -46.2176 C.2       1 UNK         0.5000 
     66 O          -2.0357  -13.2130  -47.1905 O.2       1 UNK        -0.5000 
     67 C          -3.1815  -22.2332  -45.9490 C.2       11 UNK         0.5000 
     68 O          -2.1970  -22.2172  -46.6919 O.2       11 UNK        -0.5000 
     69 N          -4.4055  -22.5881  -46.3716 N.am      12 UNK        -0.5000 
     70 CA         -4.7624  -22.9490  -47.7461 C.3       12 UNK         0.1400 
     71 CB         -6.2801  -23.1595  -47.8359 C.3       12 UNK        -0.1800 
     72 C          -4.0127  -24.1782  -48.2985 C.2       12 UNK         0.5000 
     73 O          -3.8401  -24.2825  -49.5144 O.2       12 UNK        -0.5000 
     74 N          -3.5658  -25.0685  -47.4009 N.am      13 UNK        -0.5000 
     75 CA         -2.7293  -26.2243  -47.7157 C.3       13 UNK         0.1400 
     76 CB         -2.6508  -27.1525  -46.4940 C.3       13 UNK        -0.1800 
     77 C          -1.3262  -25.8008  -48.1816 C.2       13 UNK         0.5000 
     78 O          -0.8817  -26.2429  -49.2418 O.2       13 UNK        -0.5000 
     79 N          -0.6786  -24.9067  -47.4181 N.am      14 UNK        -0.5000 
     80 CA          0.6133  -24.3107  -47.7747 C.3       14 UNK         0.1400 
     81 CB          1.1854  -23.5389  -46.5853 C.3       14 UNK        -0.1800 
     82 C           0.5232  -23.3922  -49.0031 C.2       14 UNK         0.5000 
     83 O           1.4680  -23.3354  -49.7884 O.2       14 UNK        -0.5000 
     84 N          -0.6402  -22.7536  -49.1856 N.am      15 UNK        -0.5000 
     85 CA         -1.0088  -21.9849  -50.3739 C.3       15 UNK         0.1400 
     86 CB         -2.2722  -21.1696  -50.0708 C.3       15 UNK        -0.1800 
     87 C          -1.2181  -22.8405  -51.6451 C.2       15 UNK         0.5000 
     88 O          -1.5763  -22.2747  -52.6770 O.2       15 UNK        -0.5000 
     89 N          -1.0190  -24.1655  -51.5634 N.am      16 UNK        -0.5000 
     90 CA         -1.1219  -25.1536  -52.6400 C.3       16 UNK         0.1400 
     91 CB         -0.0811  -24.8799  -53.7466 C.3       16 UNK        -0.1800 
     92 C          -2.5625  -25.2772  -53.1668 C.2       16 UNK         0.5000 
     93 O          -2.8012  -25.1493  -54.3685 O.2       16 UNK        -0.5000 
     94 N          -3.4934  -25.5063  -52.2291 N.am      17 UNK        -0.5000 
     95 CA         -4.9457  -25.5668  -52.4179 C.3       17 UNK         0.1400 
     96 CB         -5.3520  -26.7217  -53.3583 C.3       17 UNK        -0.1800 
     97 C          -5.5146  -24.1967  -52.8334 C.2       17 UNK         0.5000 
     98 O          -6.3055  -24.1062  -53.7741 O.2       17 UNK        -0.5000 
     99 N          -5.0850  -23.1598  -52.0995 N.am      18 UNK        -0.5000 
    100 CA        -5.4668  -21.7524  -52.2449 C.3       18 UNK         0.1400 
    101 CB        -6.9434  -21.5520  -51.8441 C.3       18 UNK        -0.1800 
    102 C         -5.1243  -21.1558  -53.6283 C.2       18 UNK         0.5000 
    103 O         -5.9657  -20.5005  -54.2475 O.2       18 UNK        -0.5000 
    104 N         -3.8914  -21.3984  -54.0895 N.am      19 UNK        -0.5000 
    105 CA        -3.3280  -20.8074  -55.3009 C.3       19 UNK         0.1400 
    106 CB        -2.5192  -21.8731  -56.0582 C.3       19 UNK        -0.1800 
    107 C         -2.4501  -19.5963  -54.9426 C.2       19 UNK         0.5000 
    108 O         -2.6485  -18.5108  -55.4905 O.2       19 UNK        -0.5000 
    109 N         -1.5057  -19.7953  -54.0145 N.am      20 UNK        -0.5000 
    110 CA        -0.5956  -18.7769  -53.4954 C.3       20 UNK         0.1400 
    111 CB         0.7504  -19.4391  -53.1533 C.3       20 UNK        -0.1800 
    112 C         -1.2427  -18.0738  -52.2895 C.2       20 UNK         0.5000 
    113 O         -0.8679  -18.3390  -51.1453 O.2       20 UNK        -0.5000 
    114 N         -2.2237  -17.2151  -52.5981 N.am      21 UNK        -0.5000 
    115 CA        -3.1754  -16.5564  -51.6965 C.3       21 UNK         0.1400 
    116 CB        -2.4753  -15.7584  -50.5753 C.3       21 UNK        -0.1800 
    117 C         -4.2656  -17.5264  -51.1927 C.2       21 UNK         0.5000 
    118 O         -4.3862  -18.6362  -51.7116 O.2       21 UNK        -0.5000 
    119 N         -5.0969  -17.0536  -50.2546 N.am      22 UNK        -0.5000 
    120 CA        -6.3394  -17.6974  -49.7782 C.3       22 UNK         0.1400 
    121 C         -7.5093  -17.6999  -50.8121 C.2       22 UNK         0.5000 
    122 N         -7.4284  -16.9673  -51.9161 N.am      22 UNK        -0.7600 
    123 O         -8.5320  -18.3433  -50.5936 O.2       22 UNK        -0.5000 
    124 C124       -6.1311  -19.0966  -49.1259 C.3       23 UNK        -0.0398 
    125 S125       -5.0266  -19.0652  -47.6800 S.3       23 UNK        -0.2404 
    126 C126       -6.2031  -18.5481  -46.3948 C.3       23 UNK        -0.0205 
    127 H127        0.3583  -12.6674  -41.9921 H         1 UNK         0.0600 
    128 H128        1.5639  -13.6092  -42.8735 H         1 UNK         0.0600 
    129 H129        0.3816  -14.4298  -41.8525 H         1 UNK         0.0600 
    130 H130       -1.5466  -12.1811  -43.0683 H         1 UNK         0.3000 
    131 H131       -3.1317  -12.0031  -44.5940 H         1 UNK         0.0600 
    132 H132       -2.7867  -14.9500  -45.3251 H         1 UNK         0.0800 
    133 H133       -4.1919  -13.9592  -45.5862 H         1 UNK         0.0800 
    134 H134       -2.9784  -16.2739  -41.9515 H         1 UNK         0.0800 
    135 H135       -2.2938  -16.2752  -43.5510 H         1 UNK         0.0800 
    136 H136       -4.5176  -16.6635  -45.4023 H         1 UNK         0.1150 
    137 H137       -6.4535  -20.3336  -44.3585 H         1 UNK         0.1150 
    138 H138       -3.9292  -18.3698  -41.5079 H         1 UNK         0.1150 
    139 H139       -5.5579  -20.1875  -40.8335 H         1 UNK         0.0800 
    140 H140       -6.3778  -21.1227  -42.0567 H         1 UNK         0.0800 
    141 H141       -5.1362  -22.2718  -43.9177 H         1 UNK         0.0800 
    142 H142       -4.0216  -23.5307  -43.4865 H         1 UNK         0.0800 
    143 H143       -3.1699  -20.7442  -44.4563 H         1 UNK         0.0600 
    144 H144       -1.2179  -21.2223  -43.5940 H         1 UNK         0.3000 
    145 H145       -0.1470  -22.9429  -41.9235 H         1 UNK         0.0600 
    146 H146        1.5816  -24.7159  -42.0416 H         1 UNK         0.0600 
    147 H147        0.0107  -25.3927  -42.4019 H         1 UNK         0.0600 
    148 H148        1.1451  -25.0837  -43.7048 H         1 UNK         0.0600 
    149 H149        1.0353  -21.9621  -44.3379 H         1 UNK         0.3000 
    150 H150        3.9161  -20.5940  -42.6416 H         1 UNK         0.0600 
    151 H151        4.5683  -22.5551  -44.0255 H         1 UNK         0.0600 
    152 H152        4.8152  -21.0415  -44.8840 H         1 UNK         0.0600 
    153 H153        3.4374  -22.0623  -45.2772 H         1 UNK         0.0600 
    154 H154        2.4370  -19.8202  -45.0110 H         1 UNK         0.3000 
    155 H155        0.7188  -17.1283  -43.4909 H         1 UNK         0.0600 
    156 H156        3.4635  -16.9182  -44.8528 H         1 UNK         0.0600 
    157 H157        2.9697  -16.1085  -43.3673 H         1 UNK         0.0600 
    158 H158        2.2229  -15.6758  -44.8988 H         1 UNK         0.0600 
    159 H159        1.4297  -17.5657  -46.1994 H         1 UNK         0.3000 
    160 H160       -0.8701  -20.0697  -47.0605 H         1 UNK         0.0600 
    161 H161       -1.9820  -18.3682  -48.4627 H         1 UNK         0.0600 
    162 H162       -1.2112  -17.0616  -47.5602 H         1 UNK         0.0600 
    163 H163       -2.4117  -18.0812  -46.7832 H         1 UNK         0.0600 
    164 H164        0.4873  -18.3871  -48.7934 H         1 UNK         0.3000 
    165 H165        3.8380  -19.2199  -48.4076 H         1 UNK         0.0600 
    166 H166        3.7953  -20.1950  -50.7018 H         1 UNK         0.0600 
    167 H167        3.2494  -21.3521  -49.5011 H         1 UNK         0.0600 
    168 H168        2.0746  -20.5429  -50.5302 H         1 UNK         0.0600 
    169 H169        2.4940  -18.0617  -50.6197 H         1 UNK         0.3000 
    170 H170        2.9532  -15.8224  -50.9559 H         1 UNK         0.0600 
    171 H171        0.5393  -16.1551  -50.6357 H         1 UNK         0.0600 
    172 H172        0.5370  -15.1671  -49.1822 H         1 UNK         0.0600 
    173 H173        0.8570  -14.4330  -50.7531 H         1 UNK         0.0600 
    174 H174        2.5935  -13.7919  -48.8792 H         1 UNK         0.3000 
    175 H175        6.0142  -13.0427  -48.5168 H         1 UNK         0.0600 
    176 H176        4.1153  -11.4291  -50.3050 H         1 UNK         0.0600 
    177 H177        5.5278  -10.7951  -49.4588 H         1 UNK         0.0600 
    178 H178        5.7301  -11.9668  -50.7514 H         1 UNK         0.0600 
    179 H179        3.5394  -11.6436  -47.9329 H         1 UNK         0.3000 
    180 H180        2.5238  -13.4697  -45.2230 H         1 UNK         0.0600 
    181 H181        4.1805  -10.9528  -44.6842 H         1 UNK         0.0600 
    182 H182        4.4339  -12.5195  -43.9246 H         1 UNK         0.0600 
    183 H183        2.9524  -11.6319  -43.6159 H         1 UNK         0.0600 
    184 H184        1.7821  -10.8742  -45.5472 H         1 UNK         0.3000 
    185 H185        0.2666   -9.9960  -46.9633 H         1 UNK         0.0600 
    186 H186       -1.5486  -10.2689  -48.6805 H         1 UNK         0.0600 
    187 H187        0.0666  -10.4682  -49.3431 H         1 UNK         0.0600 
    188 H188       -0.9366  -11.8769  -49.0651 H         1 UNK         0.0600 
    189 H189       -1.0119  -10.8691  -45.3596 H         1 UNK         0.3000 
    190 H190       -5.1702  -22.5759  -45.7146 H         1 UNK         0.3000 
    191 H191       -4.5148  -22.0938  -48.3726 H         1 UNK         0.0600 
    192 H192       -6.5797  -23.4149  -48.8534 H         1 UNK         0.0600 
    193 H193       -6.8202  -22.2538  -47.5586 H         1 UNK         0.0600 
    194 H194       -6.6145  -23.9666  -47.1830 H         1 UNK         0.0600 
    195 H195       -3.7413  -24.8898  -46.4233 H         1 UNK         0.3000 
    196 H196       -3.2025  -26.7750  -48.5316 H         1 UNK         0.0600 
    197 H197       -2.0356  -28.0274  -46.7082 H         1 UNK         0.0600 
    198 H198       -3.6395  -27.5129  -46.2099 H         1 UNK         0.0600 
    199 H199       -2.2166  -26.6498  -45.6289 H         1 UNK         0.0600 
    200 H200       -1.1226  -24.5650  -46.5742 H         1 UNK         0.3000 
    201 H201        1.3039  -25.1214  -48.0166 H         1 UNK         0.0600 
    202 H202        0.5343  -22.7160  -46.2895 H         1 UNK         0.0600 
    203 H203        2.1562  -23.1162  -46.8432 H         1 UNK         0.0600 
    204 H204        1.3351  -24.1927  -45.7301 H         1 UNK         0.0600 
    205 H205       -1.3321  -22.8068  -48.4449 H         1 UNK         0.3000 
    206 H206       -0.1990  -21.2836  -50.5736 H         1 UNK         0.0600 
    207 H207       -2.1964  -20.6368  -49.1241 H         1 UNK         0.0600 
    208 H208       -2.4566  -20.4297  -50.8486 H         1 UNK         0.0600 
    209 H209       -3.1490  -21.8078  -50.0343 H         1 UNK         0.0600 
    210 H210       -0.7720  -24.5484  -50.6596 H         1 UNK         0.3000 
    211 H211       -0.8747  -26.1179  -52.1935 H         1 UNK         0.0600 
    212 H212        0.9256  -24.8213  -53.3329 H         1 UNK         0.0600 
    213 H213       -0.2797  -23.9481  -54.2761 H         1 UNK         0.0600 
    214 H214       -0.0823  -25.6805  -54.4870 H         1 UNK         0.0600 
    215 H215       -3.1937  -25.5120  -51.2615 H         1 UNK         0.3000 
    216 H216       -5.3695  -25.7857  -51.4366 H         1 UNK         0.0600 
    217 H217       -6.4355  -26.8437  -53.3749 H         1 UNK         0.0600 
    218 H218       -4.9242  -27.6681  -53.0279 H         1 UNK         0.0600 
    219 H219       -5.0307  -26.5478  -54.3854 H         1 UNK         0.0600 
    220 H220       -4.4451  -23.3716  -51.3424 H         1 UNK         0.3000 
    221 H221       -4.8593  -21.2032  -51.5282 H         1 UNK         0.0600 
    222 H222       -7.6226  -22.0774  -52.5157 H         1 UNK         0.0600 
    223 H223       -7.1301  -21.9064  -50.8307 H         1 UNK         0.0600 
    224 H224       -7.2133  -20.4966  -51.8723 H         1 UNK         0.0600 
    225 H225       -3.2409  -21.9250  -53.5137 H         1 UNK         0.3000 
    226 H226       -4.1244  -20.4625  -55.9635 H         1 UNK         0.0600 
    227 H227       -2.0856  -21.4600  -56.9696 H         1 UNK         0.0600 
    228 H228       -1.7024  -22.2707  -55.4554 H         1 UNK         0.0600 
    229 H229       -3.1526  -22.7117  -56.3481 H         1 UNK         0.0600 
    230 H230       -1.4545  -20.7092  -53.5693 H         1 UNK         0.3000 
    231 H231       -0.4040  -18.0223  -54.2612 H         1 UNK         0.0600 
    232 H232        1.2268  -19.8394  -54.0482 H         1 UNK         0.0600 
    233 H233        0.6296  -20.2608  -52.4498 H         1 UNK         0.0600 
    234 H234        1.4408  -18.7203  -52.7110 H         1 UNK         0.0600 
    235 H235       -2.4659  -17.1517  -53.5787 H         1 UNK         0.3000 
    236 H236       -3.6994  -15.8315  -52.3207 H         1 UNK         0.0600 
    237 H237       -1.7191  -15.0918  -50.9882 H         1 UNK         0.0600 
    238 H238       -3.1790  -15.1309  -50.0282 H         1 UNK         0.0600 
    239 H239       -1.9904  -16.4079  -49.8489 H         1 UNK         0.0600 
    240 H240       -4.9251  -16.1304  -49.8844 H         1 UNK         0.3000 
    241 H241       -6.7035  -17.0366  -48.9916 H         1 UNK         0.0600 
    242 H242       -6.6105  -16.4148  -52.1120 H         1 UNK         0.3800 
    243 H243       -8.1983  -16.9700  -52.5665 H         1 UNK         0.3800 
    244 H244       -7.0817  -19.5281  -48.8088 H         1 UNK         0.0800 
    245 H245       -5.7188  -19.8001  -49.8462 H         1 UNK         0.0800 
    246 H246       -6.5990  -17.5609  -46.6359 H         1 UNK         0.0800 
    247 H247       -7.0549  -19.2299  -46.3869 H         1 UNK         0.0800 
@<TRIPOS>BOND
     1    1    2 1    
     2    1  127 1    
     3    1  128 1    
     4    1  129 1    
     5    2    3 2    
     6    2    4 am   BACKBONE|DICT|INTERRES
     7    4    5 1    
     8    4  130 1    
     9    5    6 1    
    10    5   65 1    
    11    5  131 1    
    12    6    7 1    
    13    6  132 1    
    14    6  133 1    
    15    7    8 1    
    16    8    9 1    
    17    8  134 1    
    18    8  135 1    
    19    9   10 ar   
    20    9   14 ar   
    21   10   11 ar   
    22   10  136 1    
    23   11   12 ar   
    24   11  126 1    
    25   12   13 ar   
    26   12  137 1    
    27   13   14 ar   
    28   13   15 1    
    29   14  138 1    
    30   15   16 1    
    31   15  139 1    
    32   15  140 1    
    33   16   17 1    
    34   17   18 1    
    35   17  141 1    
    36   17  142 1    
    37   18   19 1    
    38   18   67 1    
    39   18  143 1    
    40   19   20 am   BACKBONE|DICT|INTERRES
    41   19  144 1    
    42   20   21 2    
    43   20   22 1    
    44   22   23 1    
    45   22   24 1    
    46   22  145 1    
    47   23  146 1    
    48   23  147 1    
    49   23  148 1    
    50   24   25 am   BACKBONE|DICT|INTERRES
    51   24  149 1    
    52   25   26 2    
    53   25   27 1    
    54   27   28 1    
    55   27   29 1    
    56   27  150 1    
    57   28  151 1    
    58   28  152 1    
    59   28  153 1    
    60   29   30 am   BACKBONE|DICT|INTERRES
    61   29  154 1    
    62   30   31 2    
    63   30   32 1    
    64   32   33 1    
    65   32   34 1    
    66   32  155 1    
    67   33  156 1    
    68   33  157 1    
    69   33  158 1    
    70   34   35 am   BACKBONE|DICT|INTERRES
    71   34  159 1    
    72   35   36 2    
    73   35   37 1    
    74   37   38 1    
    75   37   39 1    
    76   37  160 1    
    77   38  161 1    
    78   38  162 1    
    79   38  163 1    
    80   39   40 am   BACKBONE|DICT|INTERRES
    81   39  164 1    
    82   40   41 2    
    83   40   42 1    
    84   42   43 1    
    85   42   44 1    
    86   42  165 1    
    87   43  166 1    
    88   43  167 1    
    89   43  168 1    
    90   44   45 am   BACKBONE|DICT|INTERRES
    91   44  169 1    
    92   45   46 2    
    93   45   47 1    
    94   47   48 1    
    95   47   49 1    
    96   47  170 1    
    97   48  171 1    
    98   48  172 1    
    99   48  173 1    
   100   49   50 am   BACKBONE|DICT|INTERRES
   101   49  174 1    
   102   50   51 2    
   103   50   52 1    
   104   52   53 1    
   105   52   54 1    
   106   52  175 1    
   107   53  176 1    
   108   53  177 1    
   109   53  178 1    
   110   54   55 am   BACKBONE|DICT|INTERRES
   111   54  179 1    
   112   55   56 2    
   113   55   57 1    
   114   57   58 1    
   115   57   59 1    
   116   57  180 1    
   117   58  181 1    
   118   58  182 1    
   119   58  183 1    
   120   59   60 am   BACKBONE|DICT|INTERRES
   121   59  184 1    
   122   60   61 2    
   123   60   62 1    
   124   62   63 1    
   125   62   64 1    
   126   62  185 1    
   127   63  186 1    
   128   63  187 1    
   129   63  188 1    
   130   64   65 am   BACKBONE|DICT|INTERRES
   131   64  189 1    
   132   65   66 2    
   133   67   68 2    
   134   67   69 am   BACKBONE|DICT|INTERRES
   135   69   70 1    
   136   69  190 1    
   137   70   71 1    
   138   70   72 1    
   139   70  191 1    
   140   71  192 1    
   141   71  193 1    
   142   71  194 1    
   143   72   73 2    
   144   72   74 am   BACKBONE|DICT|INTERRES
   145   74   75 1    
   146   74  195 1    
   147   75   76 1    
   148   75   77 1    
   149   75  196 1    
   150   76  197 1    
   151   76  198 1    
   152   76  199 1    
   153   77   78 2    
   154   77   79 am   BACKBONE|DICT|INTERRES
   155   79   80 1    
   156   79  200 1    
   157   80   81 1    
   158   80   82 1    
   159   80  201 1    
   160   81  202 1    
   161   81  203 1    
   162   81  204 1    
   163   82   83 2    
   164   82   84 am   BACKBONE|DICT|INTERRES
   165   84   85 1    
   166   84  205 1    
   167   85   86 1    
   168   85   87 1    
   169   85  206 1    
   170   86  207 1    
   171   86  208 1    
   172   86  209 1    
   173   87   88 2    
   174   87   89 am   BACKBONE|DICT|INTERRES
   175   89   90 1    
   176   89  210 1    
   177   90   91 1    
   178   90   92 1    
   179   90  211 1    
   180   91  212 1    
   181   91  213 1    
   182   91  214 1    
   183   92   93 2    
   184   92   94 am   BACKBONE|DICT|INTERRES
   185   94   95 1    
   186   94  215 1    
   187   95   96 1    
   188   95   97 1    
   189   95  216 1    
   190   96  217 1    
   191   96  218 1    
   192   96  219 1    
   193   97   98 2    
   194   97   99 am   BACKBONE|DICT|INTERRES
   195   99  100 1    
   196   99  220 1    
   197  100  101 1    
   198  100  102 1    
   199  100  221 1    
   200  101  222 1    
   201  101  223 1    
   202  101  224 1    
   203  102  103 2    
   204  102  104 am   BACKBONE|DICT|INTERRES
   205  104  105 1    
   206  104  225 1    
   207  105  106 1    
   208  105  107 1    
   209  105  226 1    
   210  106  227 1    
   211  106  228 1    
   212  106  229 1    
   213  107  108 2    
   214  107  109 am   BACKBONE|DICT|INTERRES
   215  109  110 1    
   216  109  230 1    
   217  110  111 1    
   218  110  112 1    
   219  110  231 1    
   220  111  232 1    
   221  111  233 1    
   222  111  234 1    
   223  112  113 2    
   224  112  114 am   BACKBONE|DICT|INTERRES
   225  114  115 1    
   226  114  235 1    
   227  115  116 1    
   228  115  117 1    
   229  115  236 1    
   230  116  237 1    
   231  116  238 1    
   232  116  239 1    
   233  117  118 2    
   234  117  119 am   BACKBONE|DICT|INTERRES
   235  119  120 1    
   236  119  240 1    
   237  120  121 1    
   238  120  124 1    
   239  120  241 1    
   240  121  122 am   BACKBONE|DICT|INTERRES
   241  121  123 2    
   242  122  242 1    
   243  122  243 1    
   244  124  125 1    
   245  124  244 1    
   246  124  245 1    
   247  125  126 1    
   248  126  246 1    
   249  126  247 1    
@<TRIPOS>SUBSTRUCTURE
     1 UNK         1 GROUP             0       ****    0 ROOT    
