@<TRIPOS>MOLECULE
3R540
247   249    1
SMALL
USER_CHARGES


@<TRIPOS>ATOM
      1 CA          0.7645   -9.1011  -47.3341 C.3       0 UNK        -0.1800 
      2 C           1.6380  -10.2599  -47.7922 C.2       0 UNK         0.5000 
      3 O           2.8327  -10.2838  -47.4918 O.2       0 UNK        -0.5000 
      4 N           1.0512  -11.2204  -48.5183 N.am      1 UNK        -0.5000 
      5 CA          1.7062  -12.4483  -48.9796 C.3       1 UNK         0.1400 
      6 C6          0.8357  -13.2565  -49.9766 C.3       23 UNK        -0.0398 
      7 S7         -0.9147  -13.5020  -49.4907 S.3       23 UNK        -0.2404 
      8 C8         -0.9286  -15.1877  -48.7941 C.3       23 UNK        -0.0205 
      9 C9         -0.4126  -16.2360  -49.7677 C.ar      23 UNK        -0.0193 
     10 C10        -1.1170  -16.5289  -50.9390 C.ar      23 UNK        -0.1150 
     11 C11        -0.6226  -17.4665  -51.8521 C.ar      23 UNK        -0.0193 
     12 C12         0.5810  -18.1233  -51.5725 C.ar      23 UNK        -0.1150 
     13 C13         1.2785  -17.8591  -50.3902 C.ar      23 UNK        -0.0193 
     14 C14         0.7806  -16.9087  -49.4964 C.ar      23 UNK        -0.1150 
     15 C15         2.5753  -18.5916  -50.0826 C.3       23 UNK        -0.0205 
     16 S16         2.2809  -20.2953  -49.5144 S.3       23 UNK        -0.2404 
     17 C17         1.5143  -20.0265  -47.8784 C.3       23 UNK        -0.0398 
     18 CA          0.7150  -21.2599  -47.3972 C.3       11 UNK         0.1400 
     19 N           0.5121  -21.2564  -45.9481 N.am      11 UNK        -0.5000 
     20 C           0.0547  -22.3022  -45.2455 C.2       10 UNK         0.5000 
     21 O          -0.2177  -23.3952  -45.7430 O.2       10 UNK        -0.5000 
     22 CA         -0.1802  -22.0770  -43.7418 C.3       10 UNK         0.1400 
     23 CB          1.1454  -22.1261  -42.9679 C.3       10 UNK        -0.1800 
     24 N          -0.8734  -20.8187  -43.4620 N.am      10 UNK        -0.5000 
     25 C          -2.1150  -20.5324  -43.8804 C.2       9 UNK         0.5000 
     26 O          -2.8170  -21.3128  -44.5223 O.2       9 UNK        -0.5000 
     27 CA         -2.6524  -19.1261  -43.5657 C.3       9 UNK         0.1400 
     28 CB         -3.1282  -19.0368  -42.1082 C.3       9 UNK        -0.1800 
     29 N          -1.6746  -18.0720  -43.8303 N.am      9 UNK        -0.5000 
     30 C          -1.1510  -17.7977  -45.0342 C.2       8 UNK         0.5000 
     31 O          -1.4452  -18.3949  -46.0684 O.2       8 UNK        -0.5000 
     32 CA         -0.0715  -16.7054  -45.0781 C.3       8 UNK         0.1400 
     33 CB         -0.7019  -15.3147  -44.9075 C.3       8 UNK        -0.1800 
     34 N           0.9575  -16.9103  -44.0598 N.am      8 UNK        -0.5000 
     35 C           1.7365  -17.9974  -43.9597 C.2       7 UNK         0.5000 
     36 O           1.7159  -18.9342  -44.7571 O.2       7 UNK        -0.5000 
     37 CA          2.6534  -18.0774  -42.7286 C.3       7 UNK         0.1400 
     38 CB          3.9456  -17.2783  -42.9482 C.3       7 UNK        -0.1800 
     39 N           1.9788  -17.6089  -41.5184 N.am      7 UNK        -0.5000 
     40 C           0.9661  -18.2541  -40.9217 C.2       6 UNK         0.5000 
     41 O           0.5155  -19.3316  -41.3102 O.2       6 UNK        -0.5000 
     42 CA          0.3224  -17.5523  -39.7129 C.3       6 UNK         0.1400 
     43 CB          1.1504  -17.7892  -38.4410 C.3       6 UNK        -0.1800 
     44 N           0.1608  -16.1140  -39.9288 N.am      6 UNK        -0.5000 
     45 C          -0.6722  -15.5769  -40.8313 C.2       5 UNK         0.5000 
     46 O          -1.4243  -16.2396  -41.5452 O.2       5 UNK        -0.5000 
     47 CA         -0.6246  -14.0459  -40.9919 C.3       5 UNK         0.1400 
     48 CB         -1.5741  -13.3689  -39.9924 C.3       5 UNK        -0.1800 
     49 N           0.7223  -13.4865  -40.8397 N.am      5 UNK        -0.5000 
     50 C           1.7520  -13.7580  -41.6521 C.2       4 UNK         0.5000 
     51 O           1.6886  -14.5485  -42.5951 O.2       4 UNK        -0.5000 
     52 CA          3.0892  -13.0814  -41.3174 C.3       4 UNK         0.1400 
     53 CB          3.9878  -14.0372  -40.5178 C.3       4 UNK        -0.1800 
     54 N           3.7861  -12.6821  -42.5365 N.am      4 UNK        -0.5000 
     55 C           3.5374  -11.5664  -43.2295 C.2       3 UNK         0.5000 
     56 O           2.6995  -10.7283  -42.8930 O.2       3 UNK        -0.5000 
     57 CA          4.3780  -11.3276  -44.4990 C.3       3 UNK         0.1400 
     58 CB          5.8692  -11.1241  -44.1653 C.3       3 UNK        -0.1800 
     59 N           4.1951  -12.3367  -45.5477 N.am      3 UNK        -0.5000 
     60 C           4.4988  -13.6442  -45.5327 C.2       2 UNK         0.5000 
     61 O           5.0259  -14.2079  -44.5723 O.2       2 UNK        -0.5000 
     62 CA          4.2160  -14.4589  -46.8186 C.3       2 UNK         0.1400 
     63 CB          3.5702  -15.8245  -46.5112 C.3       2 UNK        -0.1800 
     64 N           3.4628  -13.7364  -47.8557 N.am      2 UNK        -0.5000 
     65 C           2.1948  -13.3040  -47.7914 C.2       1 UNK         0.5000 
     66 O           1.4449  -13.5065  -46.8372 O.2       1 UNK        -0.5000 
     67 C          -0.6165  -21.4320  -48.1574 C.2       11 UNK         0.5000 
     68 O          -0.6840  -22.2621  -49.0617 O.2       11 UNK        -0.5000 
     69 N          -1.6647  -20.7045  -47.7424 N.am      12 UNK        -0.5000 
     70 CA         -3.0156  -20.8104  -48.2965 C.3       12 UNK         0.1400 
     71 CB         -3.9201  -19.7375  -47.6722 C.3       12 UNK        -0.1800 
     72 C          -3.6370  -22.2066  -48.1169 C.2       12 UNK         0.5000 
     73 O          -4.2690  -22.7060  -49.0480 O.2       12 UNK        -0.5000 
     74 N          -3.4282  -22.8124  -46.9391 N.am      13 UNK        -0.5000 
     75 CA         -3.8531  -24.1732  -46.6183 C.3       13 UNK         0.1400 
     76 CB         -3.6656  -24.4408  -45.1178 C.3       13 UNK        -0.1800 
     77 C          -3.1226  -25.2313  -47.4622 C.2       13 UNK         0.5000 
     78 O          -3.7698  -26.1380  -47.9895 O.2       13 UNK        -0.5000 
     79 N          -1.7967  -25.0821  -47.5957 N.am      14 UNK        -0.5000 
     80 CA         -0.9451  -25.9369  -48.4236 C.3       14 UNK         0.1400 
     81 CB          0.5308  -25.5889  -48.1778 C.3       14 UNK        -0.1800 
     82 C          -1.2904  -25.8389  -49.9202 C.2       14 UNK         0.5000 
     83 O          -1.3729  -26.8651  -50.5967 O.2       14 UNK        -0.5000 
     84 N          -1.5384  -24.6146  -50.4014 N.am      15 UNK        -0.5000 
     85 CA         -1.9467  -24.2963  -51.7678 C.3       15 UNK         0.1400 
     86 CB         -1.5537  -22.8441  -52.0785 C.3       15 UNK        -0.1800 
     87 C          -3.4447  -24.5697  -52.0211 C.2       15 UNK         0.5000 
     88 O          -4.1614  -23.6936  -52.5103 O.2       15 UNK        -0.5000 
     89 N          -3.8745  -25.8017  -51.7235 N.am      16 UNK        -0.5000 
     90 CA         -5.2201  -26.3446  -51.9083 C.3       16 UNK         0.1400 
     91 CB         -5.5796  -26.4357  -53.4058 C.3       16 UNK        -0.1800 
     92 C          -6.2819  -25.6138  -51.0636 C.2       16 UNK         0.5000 
     93 O          -7.2174  -25.0219  -51.6057 O.2       16 UNK        -0.5000 
     94 N          -6.1123  -25.6980  -49.7376 N.am      17 UNK        -0.5000 
     95 CA         -7.0522  -25.3651  -48.6592 C.3       17 UNK         0.1400 
     96 CB         -8.3485  -26.1887  -48.7856 C.3       17 UNK        -0.1800 
     97 C          -7.3777  -23.8730  -48.4580 C.2       17 UNK         0.5000 
     98 O          -7.5483  -23.4589  -47.3103 O.2       17 UNK        -0.5000 
     99 N          -7.4825  -23.0984  -49.5406 N.am      18 UNK        -0.5000 
    100 CA        -7.9176  -21.7039  -49.5181 C.3       18 UNK         0.1400 
    101 CB        -9.4569  -21.6451  -49.5887 C.3       18 UNK        -0.1800 
    102 C         -7.2286  -20.8790  -50.6164 C.2       18 UNK         0.5000 
    103 O         -7.8809  -20.0497  -51.2531 O.2       18 UNK        -0.5000 
    104 N         -5.9211  -21.1106  -50.8121 N.am      19 UNK        -0.5000 
    105 CA        -5.0392  -20.3984  -51.7485 C.3       19 UNK         0.1400 
    106 CB        -4.8518  -18.9305  -51.3016 C.3       19 UNK        -0.1800 
    107 C         -5.4878  -20.5169  -53.2221 C.2       19 UNK         0.5000 
    108 O         -5.3812  -19.5567  -53.9873 O.2       19 UNK        -0.5000 
    109 N         -6.0076  -21.6933  -53.5896 N.am      20 UNK        -0.5000 
    110 CA        -6.5327  -21.9789  -54.9205 C.3       20 UNK         0.1400 
    111 CB        -7.6160  -23.0625  -54.8136 C.3       20 UNK        -0.1800 
    112 C         -5.4291  -22.3936  -55.9075 C.2       20 UNK         0.5000 
    113 O         -5.5162  -22.0434  -57.0851 O.2       20 UNK        -0.5000 
    114 N         -4.4121  -23.1246  -55.4271 N.am      21 UNK        -0.5000 
    115 CA        -3.3347  -23.6551  -56.2702 C.3       21 UNK         0.1400 
    116 CB        -2.6958  -24.8725  -55.5872 C.3       21 UNK        -0.1800 
    117 C         -2.2567  -22.6095  -56.6085 C.2       21 UNK         0.5000 
    118 O         -1.5978  -22.7356  -57.6412 O.2       21 UNK        -0.5000 
    119 N         -2.0876  -21.6098  -55.7353 N.am      22 UNK        -0.5000 
    120 CA        -1.0999  -20.5262  -55.8710 C.3       22 UNK         0.1400 
    121 C         -1.5766  -19.3177  -56.7314 C.2       22 UNK         0.5000 
    122 N         -2.8024  -19.3030  -57.2418 N.am      22 UNK        -0.7600 
    123 O         -0.8120  -18.3838  -56.9579 O.2       22 UNK        -0.5000 
    124 C124       -0.5374  -20.0957  -54.4905 C.3       23 UNK        -0.0398 
    125 S125       -1.8204  -19.4988  -53.3348 S.3       23 UNK        -0.2404 
    126 C126       -1.3807  -17.7412  -53.1455 C.3       23 UNK        -0.0205 
    127 H127        1.1526   -8.1609  -47.7257 H         1 UNK         0.0600 
    128 H128        0.7609   -9.0434  -46.2456 H         1 UNK         0.0600 
    129 H129       -0.2660   -9.2119  -47.6726 H         1 UNK         0.0600 
    130 H130        0.0591  -11.1712  -48.7027 H         1 UNK         0.3000 
    131 H131        2.5932  -12.1276  -49.5307 H         1 UNK         0.0600 
    132 H132        0.8130  -12.7167  -50.9241 H         1 UNK         0.0800 
    133 H133        1.3071  -14.2099  -50.2160 H         1 UNK         0.0800 
    134 H134       -1.9479  -15.4436  -48.5018 H         1 UNK         0.0800 
    135 H135       -0.3391  -15.1927  -47.8779 H         1 UNK         0.0800 
    136 H136       -2.0410  -16.0073  -51.1461 H         1 UNK         0.1150 
    137 H137        0.9709  -18.8519  -52.2684 H         1 UNK         0.1150 
    138 H138        1.3230  -16.6907  -48.5877 H         1 UNK         0.1150 
    139 H139        3.1920  -18.6224  -50.9819 H         1 UNK         0.0800 
    140 H140        3.1581  -18.0553  -49.3324 H         1 UNK         0.0800 
    141 H141        0.8827  -19.1379  -47.8821 H         1 UNK         0.0800 
    142 H142        2.3282  -19.8150  -47.1840 H         1 UNK         0.0800 
    143 H143        1.3193  -22.1445  -47.6112 H         1 UNK         0.0600 
    144 H144        0.7436  -20.3948  -45.4594 H         1 UNK         0.3000 
    145 H145       -0.8124  -22.8909  -43.3809 H         1 UNK         0.0600 
    146 H146        0.9762  -22.0586  -41.8931 H         1 UNK         0.0600 
    147 H147        1.6733  -23.0619  -43.1558 H         1 UNK         0.0600 
    148 H148        1.8097  -21.3103  -43.2535 H         1 UNK         0.0600 
    149 H149       -0.3719  -20.1375  -42.9003 H         1 UNK         0.3000 
    150 H150       -3.5125  -18.9480  -44.2142 H         1 UNK         0.0600 
    151 H151       -3.8649  -19.8106  -41.8888 H         1 UNK         0.0600 
    152 H152       -3.5976  -18.0739  -41.9061 H         1 UNK         0.0600 
    153 H153       -2.3026  -19.1589  -41.4063 H         1 UNK         0.0600 
    154 H154       -1.3951  -17.5054  -43.0344 H         1 UNK         0.3000 
    155 H155        0.4143  -16.7487  -46.0546 H         1 UNK         0.0600 
    156 H156       -1.3970  -15.0975  -45.7186 H         1 UNK         0.0600 
    157 H157        0.0568  -14.5332  -44.9065 H         1 UNK         0.0600 
    158 H158       -1.2588  -15.2312  -43.9757 H         1 UNK         0.0600 
    159 H159        1.0938  -16.1527  -43.3953 H         1 UNK         0.3000 
    160 H160        2.9256  -19.1244  -42.5801 H         1 UNK         0.0600 
    161 H161        3.7424  -16.2269  -43.1527 H         1 UNK         0.0600 
    162 H162        4.5049  -17.6736  -43.7965 H         1 UNK         0.0600 
    163 H163        4.5986  -17.3328  -42.0772 H         1 UNK         0.0600 
    164 H164        2.2506  -16.7031  -41.1685 H         1 UNK         0.3000 
    165 H165       -0.6676  -17.9883  -39.5623 H         1 UNK         0.0600 
    166 H166        0.6613  -17.3590  -37.5669 H         1 UNK         0.0600 
    167 H167        1.2747  -18.8560  -38.2504 H         1 UNK         0.0600 
    168 H168        2.1463  -17.3511  -38.5184 H         1 UNK         0.0600 
    169 H169        0.7405  -15.4975  -39.3792 H         1 UNK         0.3000 
    170 H170       -0.9697  -13.8097  -42.0004 H         1 UNK         0.0600 
    171 H171       -2.5898  -13.7527  -40.0982 H         1 UNK         0.0600 
    172 H172       -1.2641  -13.5406  -38.9609 H         1 UNK         0.0600 
    173 H173       -1.6170  -12.2920  -40.1562 H         1 UNK         0.0600 
    174 H174        0.8552  -12.8360  -40.0787 H         1 UNK         0.3000 
    175 H175        2.8998  -12.1954  -40.7077 H         1 UNK         0.0600 
    176 H176        4.2360  -14.9319  -41.0891 H         1 UNK         0.0600 
    177 H177        4.9230  -13.5527  -40.2367 H         1 UNK         0.0600 
    178 H178        3.4996  -14.3585  -39.5969 H         1 UNK         0.0600 
    179 H179        4.4045  -13.3659  -42.9636 H         1 UNK         0.3000 
    180 H180        4.0196  -10.3930  -44.9334 H         1 UNK         0.0600 
    181 H181        6.3234  -12.0183  -43.7382 H         1 UNK         0.0600 
    182 H182        5.9978  -10.3180  -43.4419 H         1 UNK         0.0600 
    183 H183        6.4368  -10.8541  -45.0558 H         1 UNK         0.0600 
    184 H184        3.7438  -11.9793  -46.3811 H         1 UNK         0.3000 
    185 H185        5.1954  -14.6588  -47.2554 H         1 UNK         0.0600 
    186 H186        4.2181  -16.4295  -45.8775 H         1 UNK         0.0600 
    187 H187        2.6215  -15.7096  -45.9894 H         1 UNK         0.0600 
    188 H188        3.3913  -16.3938  -47.4222 H         1 UNK         0.0600 
    189 H189        4.0051  -13.4924  -48.6733 H         1 UNK         0.3000 
    190 H190       -1.5322  -20.0130  -47.0077 H         1 UNK         0.3000 
    191 H191       -2.9439  -20.6174  -49.3685 H         1 UNK         0.0600 
    192 H192       -3.9768  -19.8404  -46.5885 H         1 UNK         0.0600 
    193 H193       -4.9370  -19.8059  -48.0607 H         1 UNK         0.0600 
    194 H194       -3.5520  -18.7355  -47.8937 H         1 UNK         0.0600 
    195 H195       -2.9536  -22.2996  -46.2014 H         1 UNK         0.3000 
    196 H196       -4.9176  -24.2463  -46.8372 H         1 UNK         0.0600 
    197 H197       -3.9836  -25.4513  -44.8583 H         1 UNK         0.0600 
    198 H198       -4.2590  -23.7497  -44.5190 H         1 UNK         0.0600 
    199 H199       -2.6238  -24.3351  -44.8145 H         1 UNK         0.0600 
    200 H200       -1.3346  -24.3277  -47.0963 H         1 UNK         0.3000 
    201 H201       -1.1067  -26.9708  -48.1120 H         1 UNK         0.0600 
    202 H202        0.7989  -25.7287  -47.1304 H         1 UNK         0.0600 
    203 H203        0.7510  -24.5544  -48.4428 H         1 UNK         0.0600 
    204 H204        1.1870  -26.2275  -48.7704 H         1 UNK         0.0600 
    205 H205       -1.4172  -23.8165  -49.7814 H         1 UNK         0.3000 
    206 H206       -1.3863  -24.9387  -52.4494 H         1 UNK         0.0600 
    207 H207       -0.4824  -22.6872  -51.9524 H         1 UNK         0.0600 
    208 H208       -1.8006  -22.5846  -53.1067 H         1 UNK         0.0600 
    209 H209       -2.0710  -22.1412  -51.4254 H         1 UNK         0.0600 
    210 H210       -3.1915  -26.4352  -51.3203 H         1 UNK         0.3000 
    211 H211       -5.1889  -27.3672  -51.5292 H         1 UNK         0.0600 
    212 H212       -5.5603  -25.4628  -53.8932 H         1 UNK         0.0600 
    213 H213       -6.5781  -26.8518  -53.5448 H         1 UNK         0.0600 
    214 H214       -4.8833  -27.0863  -53.9345 H         1 UNK         0.0600 
    215 H215       -5.2401  -26.0946  -49.4017 H         1 UNK         0.3000 
    216 H216       -6.5601  -25.6952  -47.7437 H         1 UNK         0.0600 
    217 H217       -8.9982  -26.0261  -47.9247 H         1 UNK         0.0600 
    218 H218       -8.1351  -27.2565  -48.8334 H         1 UNK         0.0600 
    219 H219       -8.9174  -25.9188  -49.6759 H         1 UNK         0.0600 
    220 H220       -7.3429  -23.5310  -50.4504 H         1 UNK         0.3000 
    221 H221       -7.6056  -21.2445  -48.5778 H         1 UNK         0.0600 
    222 H222       -9.8291  -22.0730  -50.5202 H         1 UNK         0.0600 
    223 H223       -9.9126  -22.1922  -48.7633 H         1 UNK         0.0600 
    224 H224       -9.8167  -20.6173  -49.5285 H         1 UNK         0.0600 
    225 H225       -5.4696  -21.8285  -50.2485 H         1 UNK         0.3000 
    226 H226       -4.0691  -20.8910  -51.6883 H         1 UNK         0.0600 
    227 H227       -4.4706  -18.8676  -50.2849 H         1 UNK         0.0600 
    228 H228       -4.1392  -18.4084  -51.9385 H         1 UNK         0.0600 
    229 H229       -5.7857  -18.3701  -51.3437 H         1 UNK         0.0600 
    230 H230       -5.9808  -22.4582  -52.9270 H         1 UNK         0.3000 
    231 H231       -7.0074  -21.0786  -55.3169 H         1 UNK         0.0600 
    232 H232       -8.4463  -22.7252  -54.1928 H         1 UNK         0.0600 
    233 H233       -7.2302  -23.9824  -54.3765 H         1 UNK         0.0600 
    234 H234       -8.0227  -23.3087  -55.7953 H         1 UNK         0.0600 
    235 H235       -4.3892  -23.3502  -54.4366 H         1 UNK         0.3000 
    236 H236       -3.7683  -23.9972  -57.2126 H         1 UNK         0.0600 
    237 H237       -1.9712  -25.3506  -56.2475 H         1 UNK         0.0600 
    238 H238       -2.1666  -24.5900  -54.6794 H         1 UNK         0.0600 
    239 H239       -3.4421  -25.6229  -55.3296 H         1 UNK         0.0600 
    240 H240       -2.6946  -21.5552  -54.9309 H         1 UNK         0.3000 
    241 H241       -0.2487  -20.9298  -56.4227 H         1 UNK         0.0600 
    242 H242       -3.0973  -18.5187  -57.8016 H         1 UNK         0.3800 
    243 H243       -3.4394  -20.0648  -57.0696 H         1 UNK         0.3800 
    244 H244       -0.0444  -20.9478  -54.0214 H         1 UNK         0.0800 
    245 H245        0.2462  -19.3467  -54.6122 H         1 UNK         0.0800 
    246 H246       -2.3059  -17.1639  -53.1705 H         1 UNK         0.0800 
    247 H247       -0.7922  -17.3943  -53.9955 H         1 UNK         0.0800 
@<TRIPOS>BOND
     1    1    2 1    
     2    1  127 1    
     3    1  128 1    
     4    1  129 1    
     5    2    3 2    
     6    2    4 am   BACKBONE|DICT|INTERRES
     7    4    5 1    
     8    4  130 1    
     9    5    6 1    
    10    5   65 1    
    11    5  131 1    
    12    6    7 1    
    13    6  132 1    
    14    6  133 1    
    15    7    8 1    
    16    8    9 1    
    17    8  134 1    
    18    8  135 1    
    19    9   10 ar   
    20    9   14 ar   
    21   10   11 ar   
    22   10  136 1    
    23   11   12 ar   
    24   11  126 1    
    25   12   13 ar   
    26   12  137 1    
    27   13   14 ar   
    28   13   15 1    
    29   14  138 1    
    30   15   16 1    
    31   15  139 1    
    32   15  140 1    
    33   16   17 1    
    34   17   18 1    
    35   17  141 1    
    36   17  142 1    
    37   18   19 1    
    38   18   67 1    
    39   18  143 1    
    40   19   20 am   BACKBONE|DICT|INTERRES
    41   19  144 1    
    42   20   21 2    
    43   20   22 1    
    44   22   23 1    
    45   22   24 1    
    46   22  145 1    
    47   23  146 1    
    48   23  147 1    
    49   23  148 1    
    50   24   25 am   BACKBONE|DICT|INTERRES
    51   24  149 1    
    52   25   26 2    
    53   25   27 1    
    54   27   28 1    
    55   27   29 1    
    56   27  150 1    
    57   28  151 1    
    58   28  152 1    
    59   28  153 1    
    60   29   30 am   BACKBONE|DICT|INTERRES
    61   29  154 1    
    62   30   31 2    
    63   30   32 1    
    64   32   33 1    
    65   32   34 1    
    66   32  155 1    
    67   33  156 1    
    68   33  157 1    
    69   33  158 1    
    70   34   35 am   BACKBONE|DICT|INTERRES
    71   34  159 1    
    72   35   36 2    
    73   35   37 1    
    74   37   38 1    
    75   37   39 1    
    76   37  160 1    
    77   38  161 1    
    78   38  162 1    
    79   38  163 1    
    80   39   40 am   BACKBONE|DICT|INTERRES
    81   39  164 1    
    82   40   41 2    
    83   40   42 1    
    84   42   43 1    
    85   42   44 1    
    86   42  165 1    
    87   43  166 1    
    88   43  167 1    
    89   43  168 1    
    90   44   45 am   BACKBONE|DICT|INTERRES
    91   44  169 1    
    92   45   46 2    
    93   45   47 1    
    94   47   48 1    
    95   47   49 1    
    96   47  170 1    
    97   48  171 1    
    98   48  172 1    
    99   48  173 1    
   100   49   50 am   BACKBONE|DICT|INTERRES
   101   49  174 1    
   102   50   51 2    
   103   50   52 1    
   104   52   53 1    
   105   52   54 1    
   106   52  175 1    
   107   53  176 1    
   108   53  177 1    
   109   53  178 1    
   110   54   55 am   BACKBONE|DICT|INTERRES
   111   54  179 1    
   112   55   56 2    
   113   55   57 1    
   114   57   58 1    
   115   57   59 1    
   116   57  180 1    
   117   58  181 1    
   118   58  182 1    
   119   58  183 1    
   120   59   60 am   BACKBONE|DICT|INTERRES
   121   59  184 1    
   122   60   61 2    
   123   60   62 1    
   124   62   63 1    
   125   62   64 1    
   126   62  185 1    
   127   63  186 1    
   128   63  187 1    
   129   63  188 1    
   130   64   65 am   BACKBONE|DICT|INTERRES
   131   64  189 1    
   132   65   66 2    
   133   67   68 2    
   134   67   69 am   BACKBONE|DICT|INTERRES
   135   69   70 1    
   136   69  190 1    
   137   70   71 1    
   138   70   72 1    
   139   70  191 1    
   140   71  192 1    
   141   71  193 1    
   142   71  194 1    
   143   72   73 2    
   144   72   74 am   BACKBONE|DICT|INTERRES
   145   74   75 1    
   146   74  195 1    
   147   75   76 1    
   148   75   77 1    
   149   75  196 1    
   150   76  197 1    
   151   76  198 1    
   152   76  199 1    
   153   77   78 2    
   154   77   79 am   BACKBONE|DICT|INTERRES
   155   79   80 1    
   156   79  200 1    
   157   80   81 1    
   158   80   82 1    
   159   80  201 1    
   160   81  202 1    
   161   81  203 1    
   162   81  204 1    
   163   82   83 2    
   164   82   84 am   BACKBONE|DICT|INTERRES
   165   84   85 1    
   166   84  205 1    
   167   85   86 1    
   168   85   87 1    
   169   85  206 1    
   170   86  207 1    
   171   86  208 1    
   172   86  209 1    
   173   87   88 2    
   174   87   89 am   BACKBONE|DICT|INTERRES
   175   89   90 1    
   176   89  210 1    
   177   90   91 1    
   178   90   92 1    
   179   90  211 1    
   180   91  212 1    
   181   91  213 1    
   182   91  214 1    
   183   92   93 2    
   184   92   94 am   BACKBONE|DICT|INTERRES
   185   94   95 1    
   186   94  215 1    
   187   95   96 1    
   188   95   97 1    
   189   95  216 1    
   190   96  217 1    
   191   96  218 1    
   192   96  219 1    
   193   97   98 2    
   194   97   99 am   BACKBONE|DICT|INTERRES
   195   99  100 1    
   196   99  220 1    
   197  100  101 1    
   198  100  102 1    
   199  100  221 1    
   200  101  222 1    
   201  101  223 1    
   202  101  224 1    
   203  102  103 2    
   204  102  104 am   BACKBONE|DICT|INTERRES
   205  104  105 1    
   206  104  225 1    
   207  105  106 1    
   208  105  107 1    
   209  105  226 1    
   210  106  227 1    
   211  106  228 1    
   212  106  229 1    
   213  107  108 2    
   214  107  109 am   BACKBONE|DICT|INTERRES
   215  109  110 1    
   216  109  230 1    
   217  110  111 1    
   218  110  112 1    
   219  110  231 1    
   220  111  232 1    
   221  111  233 1    
   222  111  234 1    
   223  112  113 2    
   224  112  114 am   BACKBONE|DICT|INTERRES
   225  114  115 1    
   226  114  235 1    
   227  115  116 1    
   228  115  117 1    
   229  115  236 1    
   230  116  237 1    
   231  116  238 1    
   232  116  239 1    
   233  117  118 2    
   234  117  119 am   BACKBONE|DICT|INTERRES
   235  119  120 1    
   236  119  240 1    
   237  120  121 1    
   238  120  124 1    
   239  120  241 1    
   240  121  122 am   BACKBONE|DICT|INTERRES
   241  121  123 2    
   242  122  242 1    
   243  122  243 1    
   244  124  125 1    
   245  124  244 1    
   246  124  245 1    
   247  125  126 1    
   248  126  246 1    
   249  126  247 1    
@<TRIPOS>SUBSTRUCTURE
     1 UNK         1 GROUP             0       ****    0 ROOT    
