@<TRIPOS>MOLECULE
3R540
247   249    1
SMALL
USER_CHARGES


@<TRIPOS>ATOM
      1 CA          4.9468  -13.1202  -44.4808 C.3       0 UNK        -0.1800 
      2 C           3.8814  -12.8470  -45.5322 C.2       0 UNK         0.5000 
      3 O           2.9685  -12.0605  -45.2891 O.2       0 UNK        -0.5000 
      4 N           4.0073  -13.4628  -46.7161 N.am      1 UNK        -0.5000 
      5 CA          3.1017  -13.3006  -47.8660 C.3       1 UNK         0.1400 
      6 C6          3.3623  -14.3711  -48.9543 C.3       23 UNK        -0.0398 
      7 S7          2.5805  -15.9682  -48.5310 S.3       23 UNK        -0.2404 
      8 C8          1.3477  -16.0582  -49.8684 C.3       23 UNK        -0.0205 
      9 C9          0.4343  -17.2683  -49.7540 C.ar      23 UNK        -0.0193 
     10 C10        -0.8533  -17.1335  -49.2243 C.ar      23 UNK        -0.1150 
     11 C11        -1.7262  -18.2249  -49.1978 C.ar      23 UNK        -0.0193 
     12 C12        -1.3002  -19.4557  -49.7008 C.ar      23 UNK        -0.1150 
     13 C13        -0.0106  -19.6107  -50.2141 C.ar      23 UNK        -0.0193 
     14 C14         0.8538  -18.5121  -50.2366 C.ar      23 UNK        -0.1150 
     15 C15         0.4357  -20.9570  -50.7665 C.3       23 UNK        -0.0205 
     16 S16         1.0862  -22.0474  -49.4623 S.3       23 UNK        -0.2404 
     17 C17        -0.4424  -22.4731  -48.5647 C.3       23 UNK        -0.0398 
     18 CA         -0.2993  -23.7521  -47.7112 C.3       11 UNK         0.1400 
     19 N           0.7233  -23.5943  -46.6808 N.am      11 UNK        -0.5000 
     20 C           1.1033  -24.4739  -45.7484 C.2       10 UNK         0.5000 
     21 O           0.6057  -25.5941  -45.6331 O.2       10 UNK        -0.5000 
     22 CA          2.1798  -24.0096  -44.7408 C.3       10 UNK         0.1400 
     23 CB          3.5837  -24.4725  -45.1713 C.3       10 UNK        -0.1800 
     24 N           2.1369  -22.5652  -44.4520 N.am      10 UNK        -0.5000 
     25 C           2.3910  -21.5315  -45.2708 C.2       9 UNK         0.5000 
     26 O           2.9174  -21.6586  -46.3754 O.2       9 UNK        -0.5000 
     27 CA          1.8999  -20.1367  -44.8240 C.3       9 UNK         0.1400 
     28 CB          1.3655  -19.3086  -46.0137 C.3       9 UNK        -0.1800 
     29 N           0.9027  -20.1478  -43.7446 N.am      9 UNK        -0.5000 
     30 C          -0.3019  -20.7436  -43.7301 C.2       8 UNK         0.5000 
     31 O          -0.7294  -21.4568  -44.6389 O.2       8 UNK        -0.5000 
     32 CA         -1.1597  -20.5387  -42.4655 C.3       8 UNK         0.1400 
     33 CB         -0.9307  -21.6957  -41.4796 C.3       8 UNK        -0.1800 
     34 N          -0.8812  -19.2747  -41.7807 N.am      8 UNK        -0.5000 
     35 C          -1.2042  -18.0647  -42.2557 C.2       7 UNK         0.5000 
     36 O          -1.8631  -17.8879  -43.2813 O.2       7 UNK        -0.5000 
     37 CA         -0.6708  -16.8358  -41.4905 C.3       7 UNK         0.1400 
     38 CB         -0.1398  -17.1418  -40.0713 C.3       7 UNK        -0.1800 
     39 N           0.3399  -16.1441  -42.2947 N.am      7 UNK        -0.5000 
     40 C           1.4927  -16.6479  -42.7584 C.2       6 UNK         0.5000 
     41 O           1.9338  -17.7529  -42.4351 O.2       6 UNK        -0.5000 
     42 CA          2.2417  -15.7876  -43.7991 C.3       6 UNK         0.1400 
     43 CB          3.5377  -16.4557  -44.2948 C.3       6 UNK        -0.1800 
     44 N           1.3962  -15.4972  -44.9597 N.am      6 UNK        -0.5000 
     45 C           0.4351  -14.5673  -45.0044 C.2       5 UNK         0.5000 
     46 O           0.1666  -13.8139  -44.0659 O.2       5 UNK        -0.5000 
     47 CA         -0.4068  -14.5173  -46.2813 C.3       5 UNK         0.1400 
     48 CB         -1.7305  -15.2777  -46.0893 C.3       5 UNK        -0.1800 
     49 N          -0.6772  -13.1271  -46.6268 N.am      5 UNK        -0.5000 
     50 C          -0.9199  -12.6866  -47.8647 C.2       4 UNK         0.5000 
     51 O          -0.9331  -13.4242  -48.8493 O.2       4 UNK        -0.5000 
     52 CA         -1.1698  -11.1788  -48.0570 C.3       4 UNK         0.1400 
     53 CB         -2.6168  -10.7930  -47.6927 C.3       4 UNK        -0.1800 
     54 N          -0.1887  -10.3098  -47.3948 N.am      4 UNK        -0.5000 
     55 C          -0.0148  -10.0609  -46.0890 C.2       3 UNK         0.5000 
     56 O          -0.6942  -10.5744  -45.1990 O.2       3 UNK        -0.5000 
     57 CA          1.1317   -9.0907  -45.7365 C.3       3 UNK         0.1400 
     58 CB          1.4448   -9.0608  -44.2296 C.3       3 UNK        -0.1800 
     59 N           2.3399   -9.4765  -46.4625 N.am      3 UNK        -0.5000 
     60 C           2.8314   -8.8739  -47.5549 C.2       2 UNK         0.5000 
     61 O           2.3639   -7.8393  -48.0307 O.2       2 UNK        -0.5000 
     62 CA          4.0142   -9.5677  -48.2675 C.3       2 UNK         0.1400 
     63 CB          5.3494   -8.9678  -47.8019 C.3       2 UNK        -0.1800 
     64 N           4.0408  -11.0166  -48.0500 N.am      2 UNK        -0.5000 
     65 C           3.0906  -11.8707  -48.4589 C.2       1 UNK         0.5000 
     66 O           2.1870  -11.5483  -49.2306 O.2       1 UNK        -0.5000 
     67 C          -1.6770  -24.1595  -47.1575 C.2       11 UNK         0.5000 
     68 O          -2.3735  -24.9288  -47.8178 O.2       11 UNK        -0.5000 
     69 N          -2.0578  -23.6560  -45.9753 N.am      12 UNK        -0.5000 
     70 CA         -3.3186  -24.0082  -45.3174 C.3       12 UNK         0.1400 
     71 CB         -3.6068  -23.0136  -44.1852 C.3       12 UNK        -0.1800 
     72 C          -3.3394  -25.4560  -44.7918 C.2       12 UNK         0.5000 
     73 O          -4.3973  -26.0851  -44.8025 O.2       12 UNK        -0.5000 
     74 N          -2.1748  -25.9671  -44.3683 N.am      13 UNK        -0.5000 
     75 CA         -1.9966  -27.3504  -43.9235 C.3       13 UNK         0.1400 
     76 CB         -0.7684  -27.4406  -43.0043 C.3       13 UNK        -0.1800 
     77 C          -1.8642  -28.3136  -45.1163 C.2       13 UNK         0.5000 
     78 O          -2.4025  -29.4199  -45.0707 O.2       13 UNK        -0.5000 
     79 N          -1.1731  -27.8628  -46.1726 N.am      14 UNK        -0.5000 
     80 CA         -0.9829  -28.5916  -47.4292 C.3       14 UNK         0.1400 
     81 CB          0.1852  -27.9468  -48.1921 C.3       14 UNK        -0.1800 
     82 C          -2.2413  -28.6340  -48.3222 C.2       14 UNK         0.5000 
     83 O          -2.2781  -29.4229  -49.2665 O.2       14 UNK        -0.5000 
     84 N          -3.2221  -27.7663  -48.0300 N.am      15 UNK        -0.5000 
     85 CA         -4.4595  -27.5021  -48.7767 C.3       15 UNK         0.1400 
     86 CB         -5.3267  -28.7694  -48.9197 C.3       15 UNK        -0.1800 
     87 C          -4.2283  -26.7798  -50.1226 C.2       15 UNK         0.5000 
     88 O          -5.1428  -26.7010  -50.9437 O.2       15 UNK        -0.5000 
     89 N          -3.0308  -26.2076  -50.3051 N.am      16 UNK        -0.5000 
     90 CA         -2.6580  -25.3593  -51.4364 C.3       16 UNK         0.1400 
     91 CB         -1.1297  -25.2211  -51.4843 C.3       16 UNK        -0.1800 
     92 C          -3.3245  -23.9732  -51.3740 C.2       16 UNK         0.5000 
     93 O          -3.5020  -23.3426  -52.4148 O.2       16 UNK        -0.5000 
     94 N          -3.7312  -23.5371  -50.1717 N.am      17 UNK        -0.5000 
     95 CA         -4.4641  -22.2887  -49.9314 C.3       17 UNK         0.1400 
     96 CB         -4.5793  -22.0520  -48.4187 C.3       17 UNK        -0.1800 
     97 C          -5.8542  -22.2324  -50.6002 C.2       17 UNK         0.5000 
     98 O          -6.3913  -21.1406  -50.7787 O.2       17 UNK        -0.5000 
     99 N          -6.4064  -23.3960  -50.9729 N.am      18 UNK        -0.5000 
    100 CA        -7.6301  -23.5093  -51.7662 C.3       18 UNK         0.1400 
    101 CB        -8.2035  -24.9246  -51.5970 C.3       18 UNK        -0.1800 
    102 C         -7.4025  -23.1956  -53.2597 C.2       18 UNK         0.5000 
    103 O         -8.3480  -22.7907  -53.9373 O.2       18 UNK        -0.5000 
    104 N         -6.1706  -23.3981  -53.7483 N.am      19 UNK        -0.5000 
    105 CA        -5.7694  -23.1462  -55.1322 C.3       19 UNK         0.1400 
    106 CB        -4.7985  -24.2497  -55.5826 C.3       19 UNK        -0.1800 
    107 C         -5.1226  -21.7599  -55.2920 C.2       19 UNK         0.5000 
    108 O         -5.3490  -21.1015  -56.3085 O.2       19 UNK        -0.5000 
    109 N         -4.3270  -21.3444  -54.2966 N.am      20 UNK        -0.5000 
    110 CA        -3.6581  -20.0451  -54.2374 C.3       20 UNK         0.1400 
    111 CB        -2.6786  -20.0433  -53.0532 C.3       20 UNK        -0.1800 
    112 C         -4.6513  -18.8744  -54.1101 C.2       20 UNK         0.5000 
    113 O         -5.7192  -19.0275  -53.5133 O.2       20 UNK        -0.5000 
    114 N         -4.2656  -17.7157  -54.6586 N.am      21 UNK        -0.5000 
    115 CA        -5.0474  -16.4791  -54.5915 C.3       21 UNK         0.1400 
    116 CB        -4.5737  -15.5251  -55.6992 C.3       21 UNK        -0.1800 
    117 C         -4.9622  -15.7906  -53.2157 C.2       21 UNK         0.5000 
    118 O         -5.9159  -15.1183  -52.8211 O.2       21 UNK        -0.5000 
    119 N         -3.8252  -15.9658  -52.5251 N.am      22 UNK        -0.5000 
    120 CA        -3.5059  -15.3764  -51.2107 C.3       22 UNK         0.1400 
    121 C         -3.4744  -13.8152  -51.2180 C.2       22 UNK         0.5000 
    122 N         -3.0200  -13.1864  -52.2962 N.am      22 UNK        -0.7600 
    123 O         -3.8722  -13.1621  -50.2573 O.2       22 UNK        -0.5000 
    124 C124       -4.3657  -15.9548  -50.0502 C.3       23 UNK        -0.0398 
    125 S125       -4.3539  -17.7805  -49.9469 S.3       23 UNK        -0.2404 
    126 C126       -3.1317  -18.0922  -48.6338 C.3       23 UNK        -0.0205 
    127 H127        5.6616  -13.8734  -44.8127 H         1 UNK         0.0600 
    128 H128        5.4954  -12.2046  -44.2604 H         1 UNK         0.0600 
    129 H129        4.4865  -13.4697  -43.5574 H         1 UNK         0.0600 
    130 H130        4.7816  -14.0954  -46.8606 H         1 UNK         0.3000 
    131 H131        2.0879  -13.4439  -47.4901 H         1 UNK         0.0600 
    132 H132        2.9841  -14.0489  -49.9264 H         1 UNK         0.0800 
    133 H133        4.4325  -14.5258  -49.0990 H         1 UNK         0.0800 
    134 H134        1.8644  -16.0881  -50.8290 H         1 UNK         0.0800 
    135 H135        0.7538  -15.1437  -49.8734 H         1 UNK         0.0800 
    136 H136       -1.1845  -16.1723  -48.8589 H         1 UNK         0.1150 
    137 H137       -1.9784  -20.2950  -49.6932 H         1 UNK         0.1150 
    138 H138        1.8486  -18.6193  -50.6457 H         1 UNK         0.1150 
    139 H139       -0.3910  -21.4493  -51.2806 H         1 UNK         0.0800 
    140 H140        1.2126  -20.8097  -51.5180 H         1 UNK         0.0800 
    141 H141       -0.7214  -21.6266  -47.9342 H         1 UNK         0.0800 
    142 H142       -1.2397  -22.5929  -49.2989 H         1 UNK         0.0800 
    143 H143        0.0360  -24.5626  -48.3588 H         1 UNK         0.0600 
    144 H144        1.2449  -22.7262  -46.7206 H         1 UNK         0.3000 
    145 H145        1.9481  -24.5045  -43.7964 H         1 UNK         0.0600 
    146 H146        4.3402  -24.1610  -44.4511 H         1 UNK         0.0600 
    147 H147        3.6265  -25.5603  -45.2389 H         1 UNK         0.0600 
    148 H148        3.8652  -24.0785  -46.1479 H         1 UNK         0.0600 
    149 H149        1.6877  -22.3280  -43.5793 H         1 UNK         0.3000 
    150 H150        2.7759  -19.6289  -44.4211 H         1 UNK         0.0600 
    151 H151        0.9985  -18.3366  -45.6860 H         1 UNK         0.0600 
    152 H152        0.5460  -19.8165  -46.5237 H         1 UNK         0.0600 
    153 H153        2.1458  -19.1271  -46.7541 H         1 UNK         0.0600 
    154 H154        1.1445  -19.5559  -42.9562 H         1 UNK         0.3000 
    155 H155       -2.2076  -20.5456  -42.7723 H         1 UNK         0.0600 
    156 H156       -1.6236  -21.6389  -40.6400 H         1 UNK         0.0600 
    157 H157        0.0834  -21.6873  -41.0782 H         1 UNK         0.0600 
    158 H158       -1.0801  -22.6639  -41.9581 H         1 UNK         0.0600 
    159 H159       -0.3269  -19.3262  -40.9383 H         1 UNK         0.3000 
    160 H160       -1.5118  -16.1487  -41.3873 H         1 UNK         0.0600 
    161 H161        0.7283  -17.8013  -40.0787 H         1 UNK         0.0600 
    162 H162       -0.9098  -17.6128  -39.4589 H         1 UNK         0.0600 
    163 H163        0.1536  -16.2231  -39.5633 H         1 UNK         0.0600 
    164 H164        0.0610  -15.2407  -42.6654 H         1 UNK         0.3000 
    165 H165        2.5100  -14.8494  -43.3100 H         1 UNK         0.0600 
    166 H166        3.3390  -17.4054  -44.7891 H         1 UNK         0.0600 
    167 H167        4.0644  -15.8265  -45.0097 H         1 UNK         0.0600 
    168 H168        4.2211  -16.6493  -43.4671 H         1 UNK         0.0600 
    169 H169        1.5357  -16.0913  -45.7644 H         1 UNK         0.3000 
    170 H170        0.1580  -14.9858  -47.0887 H         1 UNK         0.0600 
    171 H171       -1.5480  -16.3348  -45.8906 H         1 UNK         0.0600 
    172 H172       -2.3032  -14.8798  -45.2505 H         1 UNK         0.0600 
    173 H173       -2.3587  -15.2137  -46.9772 H         1 UNK         0.0600 
    174 H174       -0.6476  -12.4605  -45.8586 H         1 UNK         0.3000 
    175 H175       -1.0471  -10.9836  -49.1237 H         1 UNK         0.0600 
    176 H176       -2.8031   -9.7356  -47.8803 H         1 UNK         0.0600 
    177 H177       -3.3296  -11.3594  -48.2923 H         1 UNK         0.0600 
    178 H178       -2.8461  -10.9958  -46.6465 H         1 UNK         0.0600 
    179 H179        0.4710   -9.8777  -48.0272 H         1 UNK         0.3000 
    180 H180        0.8102   -8.0901  -46.0320 H         1 UNK         0.0600 
    181 H181        1.7280  -10.0463  -43.8574 H         1 UNK         0.0600 
    182 H182        2.2619   -8.3732  -44.0111 H         1 UNK         0.0600 
    183 H183        0.5788   -8.7284  -43.6560 H         1 UNK         0.0600 
    184 H184        2.7510  -10.3551  -46.1578 H         1 UNK         0.3000 
    185 H185        3.9089   -9.3869  -49.3392 H         1 UNK         0.0600 
    186 H186        6.1885   -9.4017  -48.3460 H         1 UNK         0.0600 
    187 H187        5.3742   -7.8908  -47.9736 H         1 UNK         0.0600 
    188 H188        5.5159   -9.1344  -46.7368 H         1 UNK         0.0600 
    189 H189        4.7511  -11.3650  -47.4232 H         1 UNK         0.3000 
    190 H190       -1.4637  -22.9764  -45.5046 H         1 UNK         0.3000 
    191 H191       -4.1213  -23.9187  -46.0511 H         1 UNK         0.0600 
    192 H192       -4.5758  -23.2140  -43.7265 H         1 UNK         0.0600 
    193 H193       -2.8543  -23.0743  -43.4006 H         1 UNK         0.0600 
    194 H194       -3.6272  -21.9885  -44.5559 H         1 UNK         0.0600 
    195 H195       -1.3378  -25.4070  -44.4536 H         1 UNK         0.3000 
    196 H196       -2.8717  -27.6517  -43.3435 H         1 UNK         0.0600 
    197 H197       -0.6407  -28.4556  -42.6262 H         1 UNK         0.0600 
    198 H198       -0.8736  -26.7833  -42.1411 H         1 UNK         0.0600 
    199 H199        0.1509  -27.1678  -43.5231 H         1 UNK         0.0600 
    200 H200       -0.6987  -26.9683  -46.0895 H         1 UNK         0.3000 
    201 H201       -0.7117  -29.6225  -47.1928 H         1 UNK         0.0600 
    202 H202        1.0934  -27.9350  -47.5890 H         1 UNK         0.0600 
    203 H203       -0.0410  -26.9195  -48.4765 H         1 UNK         0.0600 
    204 H204        0.4091  -28.4982  -49.1062 H         1 UNK         0.0600 
    205 H205       -3.0490  -27.1321  -47.2616 H         1 UNK         0.3000 
    206 H206       -5.0201  -26.7967  -48.1617 H         1 UNK         0.0600 
    207 H207       -5.4669  -29.2621  -47.9576 H         1 UNK         0.0600 
    208 H208       -6.3170  -28.5219  -49.3038 H         1 UNK         0.0600 
    209 H209       -4.8853  -29.4908  -49.6074 H         1 UNK         0.0600 
    210 H210       -2.3827  -26.2419  -49.5295 H         1 UNK         0.3000 
    211 H211       -2.9887  -25.8447  -52.3570 H         1 UNK         0.0600 
    212 H212       -0.7387  -24.7379  -50.5902 H         1 UNK         0.0600 
    213 H213       -0.8189  -24.6222  -52.3415 H         1 UNK         0.0600 
    214 H214       -0.6486  -26.1950  -51.5767 H         1 UNK         0.0600 
    215 H215       -3.5355  -24.1165  -49.3635 H         1 UNK         0.3000 
    216 H216       -3.8779  -21.4737  -50.3559 H         1 UNK         0.0600 
    217 H217       -5.1103  -21.1227  -48.2081 H         1 UNK         0.0600 
    218 H218       -3.5977  -21.9706  -47.9531 H         1 UNK         0.0600 
    219 H219       -5.1249  -22.8592  -47.9298 H         1 UNK         0.0600 
    220 H220       -5.9114  -24.2554  -50.7798 H         1 UNK         0.3000 
    221 H221       -8.3646  -22.7973  -51.3837 H         1 UNK         0.0600 
    222 H222       -7.5188  -25.6845  -51.9759 H         1 UNK         0.0600 
    223 H223       -8.4052  -25.1471  -50.5491 H         1 UNK         0.0600 
    224 H224       -9.1440  -25.0317  -52.1389 H         1 UNK         0.0600 
    225 H225       -5.4324  -23.6761  -53.1145 H         1 UNK         0.3000 
    226 H226       -6.6432  -23.1850  -55.7861 H         1 UNK         0.0600 
    227 H227       -4.4967  -24.1029  -56.6204 H         1 UNK         0.0600 
    228 H228       -3.8919  -24.2658  -54.9767 H         1 UNK         0.0600 
    229 H229       -5.2632  -25.2335  -55.5153 H         1 UNK         0.0600 
    230 H230       -4.1560  -21.9740  -53.5186 H         1 UNK         0.3000 
    231 H231       -3.0880  -19.9238  -55.1608 H         1 UNK         0.0600 
    232 H232       -2.0911  -19.1248  -53.0275 H         1 UNK         0.0600 
    233 H233       -1.9782  -20.8760  -53.1167 H         1 UNK         0.0600 
    234 H234       -3.2050  -20.1169  -52.1020 H         1 UNK         0.0600 
    235 H235       -3.3811  -17.6671  -55.1435 H         1 UNK         0.3000 
    236 H236       -6.0969  -16.7179  -54.7783 H         1 UNK         0.0600 
    237 H237       -3.5227  -15.2585  -55.5813 H         1 UNK         0.0600 
    238 H238       -4.6986  -15.9729  -56.6852 H         1 UNK         0.0600 
    239 H239       -5.1500  -14.5989  -55.6891 H         1 UNK         0.0600 
    240 H240       -3.1075  -16.5461  -52.9313 H         1 UNK         0.3000 
    241 H241       -2.4745  -15.6633  -51.0082 H         1 UNK         0.0600 
    242 H242       -3.0045  -12.1791  -52.3087 H         1 UNK         0.3800 
    243 H243       -2.6976  -13.7023  -53.0988 H         1 UNK         0.3800 
    244 H244       -5.4032  -15.6370  -50.1623 H         1 UNK         0.0800 
    245 H245       -4.0342  -15.5450  -49.0951 H         1 UNK         0.0800 
    246 H246       -3.1752  -17.3133  -47.8727 H         1 UNK         0.0800 
    247 H247       -3.4023  -19.0180  -48.1241 H         1 UNK         0.0800 
@<TRIPOS>BOND
     1    1    2 1    
     2    1  127 1    
     3    1  128 1    
     4    1  129 1    
     5    2    3 2    
     6    2    4 am   BACKBONE|DICT|INTERRES
     7    4    5 1    
     8    4  130 1    
     9    5    6 1    
    10    5   65 1    
    11    5  131 1    
    12    6    7 1    
    13    6  132 1    
    14    6  133 1    
    15    7    8 1    
    16    8    9 1    
    17    8  134 1    
    18    8  135 1    
    19    9   10 ar   
    20    9   14 ar   
    21   10   11 ar   
    22   10  136 1    
    23   11   12 ar   
    24   11  126 1    
    25   12   13 ar   
    26   12  137 1    
    27   13   14 ar   
    28   13   15 1    
    29   14  138 1    
    30   15   16 1    
    31   15  139 1    
    32   15  140 1    
    33   16   17 1    
    34   17   18 1    
    35   17  141 1    
    36   17  142 1    
    37   18   19 1    
    38   18   67 1    
    39   18  143 1    
    40   19   20 am   BACKBONE|DICT|INTERRES
    41   19  144 1    
    42   20   21 2    
    43   20   22 1    
    44   22   23 1    
    45   22   24 1    
    46   22  145 1    
    47   23  146 1    
    48   23  147 1    
    49   23  148 1    
    50   24   25 am   BACKBONE|DICT|INTERRES
    51   24  149 1    
    52   25   26 2    
    53   25   27 1    
    54   27   28 1    
    55   27   29 1    
    56   27  150 1    
    57   28  151 1    
    58   28  152 1    
    59   28  153 1    
    60   29   30 am   BACKBONE|DICT|INTERRES
    61   29  154 1    
    62   30   31 2    
    63   30   32 1    
    64   32   33 1    
    65   32   34 1    
    66   32  155 1    
    67   33  156 1    
    68   33  157 1    
    69   33  158 1    
    70   34   35 am   BACKBONE|DICT|INTERRES
    71   34  159 1    
    72   35   36 2    
    73   35   37 1    
    74   37   38 1    
    75   37   39 1    
    76   37  160 1    
    77   38  161 1    
    78   38  162 1    
    79   38  163 1    
    80   39   40 am   BACKBONE|DICT|INTERRES
    81   39  164 1    
    82   40   41 2    
    83   40   42 1    
    84   42   43 1    
    85   42   44 1    
    86   42  165 1    
    87   43  166 1    
    88   43  167 1    
    89   43  168 1    
    90   44   45 am   BACKBONE|DICT|INTERRES
    91   44  169 1    
    92   45   46 2    
    93   45   47 1    
    94   47   48 1    
    95   47   49 1    
    96   47  170 1    
    97   48  171 1    
    98   48  172 1    
    99   48  173 1    
   100   49   50 am   BACKBONE|DICT|INTERRES
   101   49  174 1    
   102   50   51 2    
   103   50   52 1    
   104   52   53 1    
   105   52   54 1    
   106   52  175 1    
   107   53  176 1    
   108   53  177 1    
   109   53  178 1    
   110   54   55 am   BACKBONE|DICT|INTERRES
   111   54  179 1    
   112   55   56 2    
   113   55   57 1    
   114   57   58 1    
   115   57   59 1    
   116   57  180 1    
   117   58  181 1    
   118   58  182 1    
   119   58  183 1    
   120   59   60 am   BACKBONE|DICT|INTERRES
   121   59  184 1    
   122   60   61 2    
   123   60   62 1    
   124   62   63 1    
   125   62   64 1    
   126   62  185 1    
   127   63  186 1    
   128   63  187 1    
   129   63  188 1    
   130   64   65 am   BACKBONE|DICT|INTERRES
   131   64  189 1    
   132   65   66 2    
   133   67   68 2    
   134   67   69 am   BACKBONE|DICT|INTERRES
   135   69   70 1    
   136   69  190 1    
   137   70   71 1    
   138   70   72 1    
   139   70  191 1    
   140   71  192 1    
   141   71  193 1    
   142   71  194 1    
   143   72   73 2    
   144   72   74 am   BACKBONE|DICT|INTERRES
   145   74   75 1    
   146   74  195 1    
   147   75   76 1    
   148   75   77 1    
   149   75  196 1    
   150   76  197 1    
   151   76  198 1    
   152   76  199 1    
   153   77   78 2    
   154   77   79 am   BACKBONE|DICT|INTERRES
   155   79   80 1    
   156   79  200 1    
   157   80   81 1    
   158   80   82 1    
   159   80  201 1    
   160   81  202 1    
   161   81  203 1    
   162   81  204 1    
   163   82   83 2    
   164   82   84 am   BACKBONE|DICT|INTERRES
   165   84   85 1    
   166   84  205 1    
   167   85   86 1    
   168   85   87 1    
   169   85  206 1    
   170   86  207 1    
   171   86  208 1    
   172   86  209 1    
   173   87   88 2    
   174   87   89 am   BACKBONE|DICT|INTERRES
   175   89   90 1    
   176   89  210 1    
   177   90   91 1    
   178   90   92 1    
   179   90  211 1    
   180   91  212 1    
   181   91  213 1    
   182   91  214 1    
   183   92   93 2    
   184   92   94 am   BACKBONE|DICT|INTERRES
   185   94   95 1    
   186   94  215 1    
   187   95   96 1    
   188   95   97 1    
   189   95  216 1    
   190   96  217 1    
   191   96  218 1    
   192   96  219 1    
   193   97   98 2    
   194   97   99 am   BACKBONE|DICT|INTERRES
   195   99  100 1    
   196   99  220 1    
   197  100  101 1    
   198  100  102 1    
   199  100  221 1    
   200  101  222 1    
   201  101  223 1    
   202  101  224 1    
   203  102  103 2    
   204  102  104 am   BACKBONE|DICT|INTERRES
   205  104  105 1    
   206  104  225 1    
   207  105  106 1    
   208  105  107 1    
   209  105  226 1    
   210  106  227 1    
   211  106  228 1    
   212  106  229 1    
   213  107  108 2    
   214  107  109 am   BACKBONE|DICT|INTERRES
   215  109  110 1    
   216  109  230 1    
   217  110  111 1    
   218  110  112 1    
   219  110  231 1    
   220  111  232 1    
   221  111  233 1    
   222  111  234 1    
   223  112  113 2    
   224  112  114 am   BACKBONE|DICT|INTERRES
   225  114  115 1    
   226  114  235 1    
   227  115  116 1    
   228  115  117 1    
   229  115  236 1    
   230  116  237 1    
   231  116  238 1    
   232  116  239 1    
   233  117  118 2    
   234  117  119 am   BACKBONE|DICT|INTERRES
   235  119  120 1    
   236  119  240 1    
   237  120  121 1    
   238  120  124 1    
   239  120  241 1    
   240  121  122 am   BACKBONE|DICT|INTERRES
   241  121  123 2    
   242  122  242 1    
   243  122  243 1    
   244  124  125 1    
   245  124  244 1    
   246  124  245 1    
   247  125  126 1    
   248  126  246 1    
   249  126  247 1    
@<TRIPOS>SUBSTRUCTURE
     1 UNK         1 GROUP             0       ****    0 ROOT    
