@<TRIPOS>MOLECULE
3R540
247   249    1
SMALL
USER_CHARGES


@<TRIPOS>ATOM
      1 CA          3.9679  -10.4450  -53.0085 C.3       0 UNK        -0.1800 
      2 C           3.5474  -10.4653  -51.5455 C.2       0 UNK         0.5000 
      3 O           3.0871   -9.4482  -51.0255 O.2       0 UNK        -0.5000 
      4 N           3.7136  -11.6138  -50.8797 N.am      1 UNK        -0.5000 
      5 CA          3.2990  -11.8565  -49.4949 C.3       1 UNK         0.1400 
      6 C6          3.9994  -13.0977  -48.8815 C.3       23 UNK        -0.0398 
      7 S7          4.0061  -14.5922  -49.9302 S.3       23 UNK        -0.2404 
      8 C8          2.5473  -15.5004  -49.3269 C.3       23 UNK        -0.0205 
      9 C9          2.3878  -16.8086  -50.0861 C.ar      23 UNK        -0.0193 
     10 C10         2.0610  -16.7901  -51.4459 C.ar      23 UNK        -0.1150 
     11 C11         1.9748  -17.9800  -52.1726 C.ar      23 UNK        -0.0193 
     12 C12         2.1658  -19.1996  -51.5153 C.ar      23 UNK        -0.1150 
     13 C13         2.4753  -19.2348  -50.1512 C.ar      23 UNK        -0.0193 
     14 C14         2.5995  -18.0335  -49.4459 C.ar      23 UNK        -0.1150 
     15 C15         2.7166  -20.5675  -49.4542 C.3       23 UNK        -0.0205 
     16 S16         1.4274  -20.9331  -48.2239 S.3       23 UNK        -0.2404 
     17 C17         1.5254  -22.7551  -48.1481 C.3       23 UNK        -0.0398 
     18 CA          0.5244  -23.4241  -47.1723 C.3       11 UNK         0.1400 
     19 N           0.7498  -23.0464  -45.7744 N.am      11 UNK        -0.5000 
     20 C           0.1679  -23.6358  -44.7199 C.2       10 UNK         0.5000 
     21 O          -0.6455  -24.5544  -44.8326 O.2       10 UNK        -0.5000 
     22 CA          0.4780  -23.0894  -43.3143 C.3       10 UNK         0.1400 
     23 CB          0.9147  -24.2063  -42.3460 C.3       10 UNK        -0.1800 
     24 N           1.4121  -21.9599  -43.2924 N.am      10 UNK        -0.5000 
     25 C           2.7273  -21.9432  -43.5539 C.2       9 UNK         0.5000 
     26 O           3.3794  -22.9383  -43.8693 O.2       9 UNK        -0.5000 
     27 CA          3.4318  -20.5725  -43.4848 C.3       9 UNK         0.1400 
     28 CB          3.7671  -20.0822  -44.9032 C.3       9 UNK        -0.1800 
     29 N           2.6385  -19.5439  -42.8065 N.am      9 UNK        -0.5000 
     30 C           2.3880  -19.4995  -41.4907 C.2       8 UNK         0.5000 
     31 O           2.8778  -20.2808  -40.6747 O.2       8 UNK        -0.5000 
     32 CA          1.3847  -18.4309  -41.0145 C.3       8 UNK         0.1400 
     33 CB          2.0945  -17.0911  -40.7711 C.3       8 UNK        -0.1800 
     34 N           0.2652  -18.2379  -41.9435 N.am      8 UNK        -0.5000 
     35 C          -0.6609  -19.1676  -42.2230 C.2       7 UNK         0.5000 
     36 O          -0.6796  -20.2844  -41.7075 O.2       7 UNK        -0.5000 
     37 CA         -1.7187  -18.8173  -43.2850 C.3       7 UNK         0.1400 
     38 CB         -2.8343  -17.9438  -42.6933 C.3       7 UNK        -0.1800 
     39 N          -1.1362  -18.1543  -44.4499 N.am      7 UNK        -0.5000 
     40 C          -0.3301  -18.7486  -45.3404 C.2       6 UNK         0.5000 
     41 O          -0.0827  -19.9560  -45.3325 O.2       6 UNK        -0.5000 
     42 CA          0.3328  -17.8335  -46.3914 C.3       6 UNK         0.1400 
     43 CB         -0.5657  -17.6592  -47.6258 C.3       6 UNK        -0.1800 
     44 N           0.6871  -16.5169  -45.8514 N.am      6 UNK        -0.5000 
     45 C           1.6040  -16.3210  -44.8922 C.2       5 UNK         0.5000 
     46 O           2.2893  -17.2213  -44.4127 O.2       5 UNK        -0.5000 
     47 CA          1.7394  -14.8972  -44.3278 C.3       5 UNK         0.1400 
     48 CB          2.6834  -14.0466  -45.1863 C.3       5 UNK        -0.1800 
     49 N           0.4409  -14.2362  -44.2103 N.am      5 UNK        -0.5000 
     50 C          -0.4733  -14.5457  -43.2800 C.2       4 UNK         0.5000 
     51 O          -0.2907  -15.3877  -42.4019 O.2       4 UNK        -0.5000 
     52 CA         -1.8336  -13.8294  -43.3725 C.3       4 UNK         0.1400 
     53 CB         -1.7873  -12.4861  -42.6297 C.3       4 UNK        -0.1800 
     54 N          -2.2596  -13.6028  -44.7540 N.am      4 UNK        -0.5000 
     55 C          -2.5517  -14.5750  -45.6299 C.2       3 UNK         0.5000 
     56 O          -2.5527  -15.7714  -45.3445 O.2       3 UNK        -0.5000 
     57 CA         -2.8313  -14.1400  -47.0810 C.3       3 UNK         0.1400 
     58 CB         -4.3310  -13.8800  -47.2840 C.3       3 UNK        -0.1800 
     59 N          -2.0739  -12.9518  -47.4858 N.am      3 UNK        -0.5000 
     60 C          -0.7369  -12.8796  -47.5330 C.2       2 UNK         0.5000 
     61 O           0.0049  -13.8300  -47.2716 O.2       2 UNK        -0.5000 
     62 CA         -0.1519  -11.4863  -47.8287 C.3       2 UNK         0.1400 
     63 CB         -0.3162  -10.5755  -46.5998 C.3       2 UNK        -0.1800 
     64 N           1.2680  -11.5281  -48.1749 N.am      2 UNK        -0.5000 
     65 C           1.7610  -11.9207  -49.3555 C.2       1 UNK         0.5000 
     66 O           1.0624  -12.3057  -50.2971 O.2       1 UNK        -0.5000 
     67 C          -0.9455  -23.2202  -47.5927 C.2       11 UNK         0.5000 
     68 O          -1.4888  -24.0466  -48.3254 O.2       11 UNK        -0.5000 
     69 N          -1.5787  -22.1659  -47.0557 N.am      12 UNK        -0.5000 
     70 CA         -2.9870  -21.8410  -47.2713 C.3       12 UNK         0.1400 
     71 CB         -3.2713  -20.4373  -46.7222 C.3       12 UNK        -0.1800 
     72 C          -3.9688  -22.8576  -46.6651 C.2       12 UNK         0.5000 
     73 O          -5.1144  -22.9028  -47.1076 O.2       12 UNK        -0.5000 
     74 N          -3.5164  -23.6396  -45.6772 N.am      13 UNK        -0.5000 
     75 CA         -4.2759  -24.7378  -45.0860 C.3       13 UNK         0.1400 
     76 CB         -3.9939  -24.7930  -43.5758 C.3       13 UNK        -0.1800 
     77 C          -3.9148  -26.0731  -45.7564 C.2       13 UNK         0.5000 
     78 O          -4.8071  -26.8771  -46.0265 O.2       13 UNK        -0.5000 
     79 N          -2.6149  -26.2906  -46.0020 N.am      14 UNK        -0.5000 
     80 CA         -2.0669  -27.5315  -46.5453 C.3       14 UNK         0.1400 
     81 CB         -0.5391  -27.5243  -46.3848 C.3       14 UNK        -0.1800 
     82 C          -2.4520  -27.7952  -48.0112 C.2       14 UNK         0.5000 
     83 O          -2.7412  -28.9425  -48.3546 O.2       14 UNK        -0.5000 
     84 N          -2.4413  -26.7511  -48.8494 N.am      15 UNK        -0.5000 
     85 CA         -2.6948  -26.8557  -50.2833 C.3       15 UNK         0.1400 
     86 CB         -1.4131  -27.3329  -50.9982 C.3       15 UNK        -0.1800 
     87 C          -3.2029  -25.5063  -50.8252 C.2       15 UNK         0.5000 
     88 O          -2.4333  -24.7862  -51.4588 O.2       15 UNK        -0.5000 
     89 N          -4.4617  -25.1146  -50.5915 N.am      16 UNK        -0.5000 
     90 CA         -5.5323  -25.8163  -49.8746 C.3       16 UNK         0.1400 
     91 CB         -6.2244  -26.8309  -50.8058 C.3       16 UNK        -0.1800 
     92 C          -6.5729  -24.8178  -49.3342 C.2       16 UNK         0.5000 
     93 O          -7.2137  -25.1019  -48.3221 O.2       16 UNK        -0.5000 
     94 N          -6.7264  -23.6758  -50.0174 N.am      17 UNK        -0.5000 
     95 CA         -7.5822  -22.5484  -49.6672 C.3       17 UNK         0.1400 
     96 CB         -9.0530  -22.8838  -49.9851 C.3       17 UNK        -0.1800 
     97 C          -7.0957  -21.3298  -50.4718 C.2       17 UNK         0.5000 
     98 O          -6.1655  -21.4639  -51.2739 O.2       17 UNK        -0.5000 
     99 N          -7.7323  -20.1689  -50.2570 N.am      18 UNK        -0.5000 
    100 CA        -7.5663  -18.9204  -51.0193 C.3       18 UNK         0.1400 
    101 CB        -8.1767  -19.0790  -52.4277 C.3       18 UNK        -0.1800 
    102 C         -6.1121  -18.4023  -51.0574 C.2       18 UNK         0.5000 
    103 O         -5.6181  -18.0112  -52.1178 O.2       18 UNK        -0.5000 
    104 N         -5.4466  -18.4508  -49.8930 N.am      19 UNK        -0.5000 
    105 CA        -4.0363  -18.1062  -49.6752 C.3       19 UNK         0.1400 
    106 CB        -3.7986  -16.5965  -49.8795 C.3       19 UNK        -0.1800 
    107 C         -3.0852  -18.9846  -50.5140 C.2       19 UNK         0.5000 
    108 O         -2.1846  -18.4662  -51.1680 O.2       19 UNK        -0.5000 
    109 N         -3.3447  -20.3005  -50.5138 N.am      20 UNK        -0.5000 
    110 CA        -2.6556  -21.3344  -51.3012 C.3       20 UNK         0.1400 
    111 CB        -1.1620  -21.4193  -50.9239 C.3       20 UNK        -0.1800 
    112 C         -2.8813  -21.1555  -52.8176 C.2       20 UNK         0.5000 
    113 O         -1.9786  -21.3996  -53.6185 O.2       20 UNK        -0.5000 
    114 N         -4.0896  -20.6893  -53.1650 N.am      21 UNK        -0.5000 
    115 CA        -4.5539  -20.2346  -54.4786 C.3       21 UNK         0.1400 
    116 CB        -4.5238  -21.3831  -55.5076 C.3       21 UNK        -0.1800 
    117 C         -3.8537  -18.9571  -54.9972 C.2       21 UNK         0.5000 
    118 O         -4.0810  -18.5790  -56.1482 O.2       21 UNK        -0.5000 
    119 N         -3.0388  -18.3013  -54.1600 N.am      22 UNK        -0.5000 
    120 CA        -2.3102  -17.0656  -54.4869 C.3       22 UNK         0.1400 
    121 C         -3.1265  -15.7698  -54.2118 C.2       22 UNK         0.5000 
    122 N         -4.3065  -15.8307  -53.6044 N.am      22 UNK        -0.7600 
    123 O         -2.6889  -14.6824  -54.5781 O.2       22 UNK        -0.5000 
    124 C124       -0.9134  -17.0092  -53.8099 C.3       23 UNK        -0.0398 
    125 S125        0.0938  -18.4903  -54.1680 S.3       23 UNK        -0.2404 
    126 C126        1.7571  -17.9461  -53.6795 C.3       23 UNK        -0.0205 
    127 H127        3.1136  -10.2030  -53.6408 H         1 UNK         0.0600 
    128 H128        4.7369   -9.6892  -53.1680 H         1 UNK         0.0600 
    129 H129        4.3659  -11.4082  -53.3292 H         1 UNK         0.0600 
    130 H130        4.0662  -12.4265  -51.3654 H         1 UNK         0.3000 
    131 H131        3.6277  -10.9916  -48.9139 H         1 UNK         0.0600 
    132 H132        5.0449  -12.8462  -48.6984 H         1 UNK         0.0800 
    133 H133        3.5950  -13.3381  -47.9003 H         1 UNK         0.0800 
    134 H134        1.6482  -14.8977  -49.4598 H         1 UNK         0.0800 
    135 H135        2.6450  -15.6826  -48.2554 H         1 UNK         0.0800 
    136 H136        1.9194  -15.8420  -51.9458 H         1 UNK         0.1150 
    137 H137        2.0936  -20.1209  -52.0762 H         1 UNK         0.1150 
    138 H138        2.8659  -18.0560  -48.3990 H         1 UNK         0.1150 
    139 H139        2.7560  -21.3724  -50.1896 H         1 UNK         0.0800 
    140 H140        3.6893  -20.5518  -48.9609 H         1 UNK         0.0800 
    141 H141        2.5433  -23.0296  -47.8677 H         1 UNK         0.0800 
    142 H142        1.3772  -23.1505  -49.1547 H         1 UNK         0.0800 
    143 H143        0.7098  -24.4981  -47.2305 H         1 UNK         0.0600 
    144 H144        1.3463  -22.2482  -45.6114 H         1 UNK         0.3000 
    145 H145       -0.4675  -22.6927  -42.9433 H         1 UNK         0.0600 
    146 H146        1.1093  -23.8097  -41.3494 H         1 UNK         0.0600 
    147 H147        0.1349  -24.9623  -42.2469 H         1 UNK         0.0600 
    148 H148        1.8156  -24.7152  -42.6889 H         1 UNK         0.0600 
    149 H149        0.9829  -21.0732  -43.0614 H         1 UNK         0.3000 
    150 H150        4.3652  -20.7078  -42.9350 H         1 UNK         0.0600 
    151 H151        4.3782  -20.8098  -45.4389 H         1 UNK         0.0600 
    152 H152        4.3267  -19.1471  -44.8753 H         1 UNK         0.0600 
    153 H153        2.8651  -19.9140  -45.4929 H         1 UNK         0.0600 
    154 H154        2.2677  -18.8023  -43.3961 H         1 UNK         0.3000 
    155 H155        0.9695  -18.7695  -40.0630 H         1 UNK         0.0600 
    156 H156        2.5323  -16.6957  -41.6873 H         1 UNK         0.0600 
    157 H157        2.9008  -17.2035  -40.0452 H         1 UNK         0.0600 
    158 H158        1.4051  -16.3440  -40.3777 H         1 UNK         0.0600 
    159 H159        0.1772  -17.3171  -42.3615 H         1 UNK         0.3000 
    160 H160       -2.1691  -19.7541  -43.6171 H         1 UNK         0.0600 
    161 H161       -3.6108  -17.7450  -43.4323 H         1 UNK         0.0600 
    162 H162       -2.4555  -16.9847  -42.3417 H         1 UNK         0.0600 
    163 H163       -3.3095  -18.4396  -41.8461 H         1 UNK         0.0600 
    164 H164       -1.3713  -17.1765  -44.5854 H         1 UNK         0.3000 
    165 H165        1.2571  -18.3176  -46.7085 H         1 UNK         0.0600 
    166 H166       -0.1226  -16.9720  -48.3467 H         1 UNK         0.0600 
    167 H167       -0.7075  -18.6111  -48.1387 H         1 UNK         0.0600 
    168 H168       -1.5508  -17.2761  -47.3608 H         1 UNK         0.0600 
    169 H169        0.1906  -15.7144  -46.2199 H         1 UNK         0.3000 
    170 H170        2.1777  -14.9728  -43.3307 H         1 UNK         0.0600 
    171 H171        3.6664  -14.5126  -45.2654 H         1 UNK         0.0600 
    172 H172        2.2965  -13.9236  -46.1948 H         1 UNK         0.0600 
    173 H173        2.8244  -13.0551  -44.7562 H         1 UNK         0.0600 
    174 H174        0.1959  -13.5862  -44.9428 H         1 UNK         0.3000 
    175 H175       -2.5782  -14.4645  -42.8881 H         1 UNK         0.0600 
    176 H176       -2.7656  -12.0051  -42.6233 H         1 UNK         0.0600 
    177 H177       -1.4883  -12.6257  -41.5899 H         1 UNK         0.0600 
    178 H178       -1.0763  -11.7962  -43.0862 H         1 UNK         0.0600 
    179 H179       -2.2937  -12.6452  -45.0695 H         1 UNK         0.3000 
    180 H180       -2.5292  -14.9625  -47.7302 H         1 UNK         0.0600 
    181 H181       -4.6836  -13.0512  -46.6688 H         1 UNK         0.0600 
    182 H182       -4.9190  -14.7594  -47.0176 H         1 UNK         0.0600 
    183 H183       -4.5538  -13.6438  -48.3247 H         1 UNK         0.0600 
    184 H184       -2.6166  -12.1289  -47.7059 H         1 UNK         0.3000 
    185 H185       -0.7029  -11.0523  -48.6659 H         1 UNK         0.0600 
    186 H186        0.2040  -10.9755  -45.7282 H         1 UNK         0.0600 
    187 H187        0.0775   -9.5776  -46.7944 H         1 UNK         0.0600 
    188 H188       -1.3659  -10.4559  -46.3293 H         1 UNK         0.0600 
    189 H189        1.9069  -11.2476  -47.4459 H         1 UNK         0.3000 
    190 H190       -1.0462  -21.5365  -46.4641 H         1 UNK         0.3000 
    191 H191       -3.1614  -21.8386  -48.3464 H         1 UNK         0.0600 
    192 H192       -2.6080  -19.6996  -47.1685 H         1 UNK         0.0600 
    193 H193       -3.1374  -20.3978  -45.6418 H         1 UNK         0.0600 
    194 H194       -4.2962  -20.1316  -46.9354 H         1 UNK         0.0600 
    195 H195       -2.5492  -23.5553  -45.3956 H         1 UNK         0.3000 
    196 H196       -5.3472  -24.5720  -45.2206 H         1 UNK         0.0600 
    197 H197       -4.5577  -25.5988  -43.1041 H         1 UNK         0.0600 
    198 H198       -4.2860  -23.8631  -43.0879 H         1 UNK         0.0600 
    199 H199       -2.9379  -24.9641  -43.3637 H         1 UNK         0.0600 
    200 H200       -1.9350  -25.5990  -45.6983 H         1 UNK         0.3000 
    201 H201       -2.4615  -28.3564  -45.9482 H         1 UNK         0.0600 
    202 H202       -0.2516  -27.4041  -45.3400 H         1 UNK         0.0600 
    203 H203       -0.0802  -26.7158  -46.9536 H         1 UNK         0.0600 
    204 H204       -0.1046  -28.4608  -46.7366 H         1 UNK         0.0600 
    205 H205       -2.1920  -25.8236  -48.5111 H         1 UNK         0.3000 
    206 H206       -3.4642  -27.6047  -50.4644 H         1 UNK         0.0600 
    207 H207       -1.1249  -28.3326  -50.6734 H         1 UNK         0.0600 
    208 H208       -1.5603  -27.3750  -52.0780 H         1 UNK         0.0600 
    209 H209       -0.5731  -26.6645  -50.8046 H         1 UNK         0.0600 
    210 H210       -4.7118  -24.1982  -50.9225 H         1 UNK         0.3000 
    211 H211       -5.1177  -26.3403  -49.0123 H         1 UNK         0.0600 
    212 H212       -6.6654  -26.3376  -51.6730 H         1 UNK         0.0600 
    213 H213       -7.0293  -27.3492  -50.2828 H         1 UNK         0.0600 
    214 H214       -5.5436  -27.5948  -51.1758 H         1 UNK         0.0600 
    215 H215       -6.1960  -23.4974  -50.8585 H         1 UNK         0.3000 
    216 H216       -7.4692  -22.3273  -48.6040 H         1 UNK         0.0600 
    217 H217       -9.7167  -22.0619  -49.7153 H         1 UNK         0.0600 
    218 H218       -9.3911  -23.7591  -49.4305 H         1 UNK         0.0600 
    219 H219       -9.1958  -23.0874  -51.0471 H         1 UNK         0.0600 
    220 H220       -8.4614  -20.1500  -49.5573 H         1 UNK         0.3000 
    221 H221       -8.1432  -18.1564  -50.4963 H         1 UNK         0.0600 
    222 H222       -7.6459  -19.8269  -53.0170 H         1 UNK         0.0600 
    223 H223       -9.2223  -19.3813  -52.3707 H         1 UNK         0.0600 
    224 H224       -8.1423  -18.1396  -52.9808 H         1 UNK         0.0600 
    225 H225       -5.9472  -18.7939  -49.0854 H         1 UNK         0.3000 
    226 H226       -3.8196  -18.3239  -48.6304 H         1 UNK         0.0600 
    227 H227       -4.4628  -16.0070  -49.2497 H         1 UNK         0.0600 
    228 H228       -2.7732  -16.3266  -49.6257 H         1 UNK         0.0600 
    229 H229       -3.9624  -16.2928  -50.9121 H         1 UNK         0.0600 
    230 H230       -4.1689  -20.6128  -50.0216 H         1 UNK         0.3000 
    231 H231       -3.1230  -22.2790  -51.0253 H         1 UNK         0.0600 
    232 H232       -1.0304  -21.4276  -49.8447 H         1 UNK         0.0600 
    233 H233       -0.5917  -20.5778  -51.3189 H         1 UNK         0.0600 
    234 H234       -0.7132  -22.3322  -51.3164 H         1 UNK         0.0600 
    235 H235       -4.7723  -20.5872  -52.4209 H         1 UNK         0.3000 
    236 H236       -5.5981  -19.9558  -54.3348 H         1 UNK         0.0600 
    237 H237       -5.0306  -21.0954  -56.4293 H         1 UNK         0.0600 
    238 H238       -3.5046  -21.6646  -55.7726 H         1 UNK         0.0600 
    239 H239       -5.0296  -22.2694  -55.1242 H         1 UNK         0.0600 
    240 H240       -2.8984  -18.6538  -53.2211 H         1 UNK         0.3000 
    241 H241       -2.1269  -17.0621  -55.5629 H         1 UNK         0.0600 
    242 H242       -4.8241  -14.9812  -53.4497 H         1 UNK         0.3800 
    243 H243       -4.6755  -16.7108  -53.2558 H         1 UNK         0.3800 
    244 H244       -0.3661  -16.1327  -54.1606 H         1 UNK         0.0800 
    245 H245       -1.0024  -16.8943  -52.7299 H         1 UNK         0.0800 
    246 H246        1.9508  -16.9500  -54.0803 H         1 UNK         0.0800 
    247 H247        2.4867  -18.6048  -54.1526 H         1 UNK         0.0800 
@<TRIPOS>BOND
     1    1    2 1    
     2    1  127 1    
     3    1  128 1    
     4    1  129 1    
     5    2    3 2    
     6    2    4 am   BACKBONE|DICT|INTERRES
     7    4    5 1    
     8    4  130 1    
     9    5    6 1    
    10    5   65 1    
    11    5  131 1    
    12    6    7 1    
    13    6  132 1    
    14    6  133 1    
    15    7    8 1    
    16    8    9 1    
    17    8  134 1    
    18    8  135 1    
    19    9   10 ar   
    20    9   14 ar   
    21   10   11 ar   
    22   10  136 1    
    23   11   12 ar   
    24   11  126 1    
    25   12   13 ar   
    26   12  137 1    
    27   13   14 ar   
    28   13   15 1    
    29   14  138 1    
    30   15   16 1    
    31   15  139 1    
    32   15  140 1    
    33   16   17 1    
    34   17   18 1    
    35   17  141 1    
    36   17  142 1    
    37   18   19 1    
    38   18   67 1    
    39   18  143 1    
    40   19   20 am   BACKBONE|DICT|INTERRES
    41   19  144 1    
    42   20   21 2    
    43   20   22 1    
    44   22   23 1    
    45   22   24 1    
    46   22  145 1    
    47   23  146 1    
    48   23  147 1    
    49   23  148 1    
    50   24   25 am   BACKBONE|DICT|INTERRES
    51   24  149 1    
    52   25   26 2    
    53   25   27 1    
    54   27   28 1    
    55   27   29 1    
    56   27  150 1    
    57   28  151 1    
    58   28  152 1    
    59   28  153 1    
    60   29   30 am   BACKBONE|DICT|INTERRES
    61   29  154 1    
    62   30   31 2    
    63   30   32 1    
    64   32   33 1    
    65   32   34 1    
    66   32  155 1    
    67   33  156 1    
    68   33  157 1    
    69   33  158 1    
    70   34   35 am   BACKBONE|DICT|INTERRES
    71   34  159 1    
    72   35   36 2    
    73   35   37 1    
    74   37   38 1    
    75   37   39 1    
    76   37  160 1    
    77   38  161 1    
    78   38  162 1    
    79   38  163 1    
    80   39   40 am   BACKBONE|DICT|INTERRES
    81   39  164 1    
    82   40   41 2    
    83   40   42 1    
    84   42   43 1    
    85   42   44 1    
    86   42  165 1    
    87   43  166 1    
    88   43  167 1    
    89   43  168 1    
    90   44   45 am   BACKBONE|DICT|INTERRES
    91   44  169 1    
    92   45   46 2    
    93   45   47 1    
    94   47   48 1    
    95   47   49 1    
    96   47  170 1    
    97   48  171 1    
    98   48  172 1    
    99   48  173 1    
   100   49   50 am   BACKBONE|DICT|INTERRES
   101   49  174 1    
   102   50   51 2    
   103   50   52 1    
   104   52   53 1    
   105   52   54 1    
   106   52  175 1    
   107   53  176 1    
   108   53  177 1    
   109   53  178 1    
   110   54   55 am   BACKBONE|DICT|INTERRES
   111   54  179 1    
   112   55   56 2    
   113   55   57 1    
   114   57   58 1    
   115   57   59 1    
   116   57  180 1    
   117   58  181 1    
   118   58  182 1    
   119   58  183 1    
   120   59   60 am   BACKBONE|DICT|INTERRES
   121   59  184 1    
   122   60   61 2    
   123   60   62 1    
   124   62   63 1    
   125   62   64 1    
   126   62  185 1    
   127   63  186 1    
   128   63  187 1    
   129   63  188 1    
   130   64   65 am   BACKBONE|DICT|INTERRES
   131   64  189 1    
   132   65   66 2    
   133   67   68 2    
   134   67   69 am   BACKBONE|DICT|INTERRES
   135   69   70 1    
   136   69  190 1    
   137   70   71 1    
   138   70   72 1    
   139   70  191 1    
   140   71  192 1    
   141   71  193 1    
   142   71  194 1    
   143   72   73 2    
   144   72   74 am   BACKBONE|DICT|INTERRES
   145   74   75 1    
   146   74  195 1    
   147   75   76 1    
   148   75   77 1    
   149   75  196 1    
   150   76  197 1    
   151   76  198 1    
   152   76  199 1    
   153   77   78 2    
   154   77   79 am   BACKBONE|DICT|INTERRES
   155   79   80 1    
   156   79  200 1    
   157   80   81 1    
   158   80   82 1    
   159   80  201 1    
   160   81  202 1    
   161   81  203 1    
   162   81  204 1    
   163   82   83 2    
   164   82   84 am   BACKBONE|DICT|INTERRES
   165   84   85 1    
   166   84  205 1    
   167   85   86 1    
   168   85   87 1    
   169   85  206 1    
   170   86  207 1    
   171   86  208 1    
   172   86  209 1    
   173   87   88 2    
   174   87   89 am   BACKBONE|DICT|INTERRES
   175   89   90 1    
   176   89  210 1    
   177   90   91 1    
   178   90   92 1    
   179   90  211 1    
   180   91  212 1    
   181   91  213 1    
   182   91  214 1    
   183   92   93 2    
   184   92   94 am   BACKBONE|DICT|INTERRES
   185   94   95 1    
   186   94  215 1    
   187   95   96 1    
   188   95   97 1    
   189   95  216 1    
   190   96  217 1    
   191   96  218 1    
   192   96  219 1    
   193   97   98 2    
   194   97   99 am   BACKBONE|DICT|INTERRES
   195   99  100 1    
   196   99  220 1    
   197  100  101 1    
   198  100  102 1    
   199  100  221 1    
   200  101  222 1    
   201  101  223 1    
   202  101  224 1    
   203  102  103 2    
   204  102  104 am   BACKBONE|DICT|INTERRES
   205  104  105 1    
   206  104  225 1    
   207  105  106 1    
   208  105  107 1    
   209  105  226 1    
   210  106  227 1    
   211  106  228 1    
   212  106  229 1    
   213  107  108 2    
   214  107  109 am   BACKBONE|DICT|INTERRES
   215  109  110 1    
   216  109  230 1    
   217  110  111 1    
   218  110  112 1    
   219  110  231 1    
   220  111  232 1    
   221  111  233 1    
   222  111  234 1    
   223  112  113 2    
   224  112  114 am   BACKBONE|DICT|INTERRES
   225  114  115 1    
   226  114  235 1    
   227  115  116 1    
   228  115  117 1    
   229  115  236 1    
   230  116  237 1    
   231  116  238 1    
   232  116  239 1    
   233  117  118 2    
   234  117  119 am   BACKBONE|DICT|INTERRES
   235  119  120 1    
   236  119  240 1    
   237  120  121 1    
   238  120  124 1    
   239  120  241 1    
   240  121  122 am   BACKBONE|DICT|INTERRES
   241  121  123 2    
   242  122  242 1    
   243  122  243 1    
   244  124  125 1    
   245  124  244 1    
   246  124  245 1    
   247  125  126 1    
   248  126  246 1    
   249  126  247 1    
@<TRIPOS>SUBSTRUCTURE
     1 UNK         1 GROUP             0       ****    0 ROOT    
