@<TRIPOS>MOLECULE
3R540
247   249    1
SMALL
USER_CHARGES


@<TRIPOS>ATOM
      1 CA          0.7271  -10.9307  -46.1924 C.3       0 UNK        -0.1800 
      2 C           2.1248  -11.2492  -46.7009 C.2       0 UNK         0.5000 
      3 O           3.1110  -10.7838  -46.1302 O.2       0 UNK        -0.5000 
      4 N           2.2147  -12.0546  -47.7667 N.am      1 UNK        -0.5000 
      5 CA          3.4657  -12.4661  -48.4214 C.3       1 UNK         0.1400 
      6 C6          3.2014  -13.1352  -49.7917 C.3       23 UNK        -0.0398 
      7 S7          2.0912  -14.5854  -49.7044 S.3       23 UNK        -0.2404 
      8 C8          3.2000  -15.9110  -50.2852 C.3       23 UNK        -0.0205 
      9 C9          2.4916  -17.2527  -50.4342 C.ar      23 UNK        -0.0193 
     10 C10         1.2569  -17.3371  -51.0865 C.ar      23 UNK        -0.1150 
     11 C11         0.6166  -18.5670  -51.2449 C.ar      23 UNK        -0.0193 
     12 C12         1.2216  -19.7263  -50.7540 C.ar      23 UNK        -0.1150 
     13 C13         2.4662  -19.6637  -50.1209 C.ar      23 UNK        -0.0193 
     14 C14         3.0947  -18.4234  -49.9616 C.ar      23 UNK        -0.1150 
     15 C15         3.1334  -20.9455  -49.6365 C.3       23 UNK        -0.0205 
     16 S16         3.5155  -20.9482  -47.8529 S.3       23 UNK        -0.2404 
     17 C17         1.9222  -20.4918  -47.0928 C.3       23 UNK        -0.0398 
     18 CA          1.0519  -21.7030  -46.6790 C.3       11 UNK         0.1400 
     19 N           0.1520  -21.3586  -45.5760 N.am      11 UNK        -0.5000 
     20 C          -0.6224  -22.2191  -44.9028 C.2       10 UNK         0.5000 
     21 O          -0.6122  -23.4348  -45.0887 O.2       10 UNK        -0.5000 
     22 CA         -1.6117  -21.6140  -43.8883 C.3       10 UNK         0.1400 
     23 CB         -0.9314  -21.3702  -42.5335 C.3       10 UNK        -0.1800 
     24 N          -2.2209  -20.3723  -44.3722 N.am      10 UNK        -0.5000 
     25 C          -3.0354  -20.3002  -45.4351 C.2       9 UNK         0.5000 
     26 O          -3.4101  -21.2855  -46.0694 O.2       9 UNK        -0.5000 
     27 CA         -3.4643  -18.8970  -45.9025 C.3       9 UNK         0.1400 
     28 CB         -4.6429  -18.3747  -45.0686 C.3       9 UNK        -0.1800 
     29 N          -2.3670  -17.9298  -45.8706 N.am      9 UNK        -0.5000 
     30 C          -1.2646  -18.0088  -46.6295 C.2       8 UNK         0.5000 
     31 O          -1.0895  -18.8767  -47.4839 O.2       8 UNK        -0.5000 
     32 CA         -0.1439  -16.9917  -46.3391 C.3       8 UNK         0.1400 
     33 CB         -0.4049  -15.6538  -47.0453 C.3       8 UNK        -0.1800 
     34 N           0.0431  -16.7656  -44.9041 N.am      8 UNK        -0.5000 
     35 C           0.4586  -17.7060  -44.0428 C.2       7 UNK         0.5000 
     36 O           0.7670  -18.8468  -44.3791 O.2       7 UNK        -0.5000 
     37 CA          0.4849  -17.3326  -42.5521 C.3       7 UNK         0.1400 
     38 CB          1.7699  -16.5751  -42.1882 C.3       7 UNK        -0.1800 
     39 N          -0.6881  -16.5490  -42.1693 N.am      7 UNK        -0.5000 
     40 C          -1.9350  -17.0403  -42.1223 C.2       6 UNK         0.5000 
     41 O          -2.2140  -18.2184  -42.3427 O.2       6 UNK        -0.5000 
     42 CA         -3.0617  -16.0341  -41.8267 C.3       6 UNK         0.1400 
     43 CB         -3.2288  -15.8374  -40.3128 C.3       6 UNK        -0.1800 
     44 N          -2.8286  -14.7364  -42.4625 N.am      6 UNK        -0.5000 
     45 C          -2.8212  -14.5308  -43.7876 C.2       5 UNK         0.5000 
     46 O          -3.0650  -15.4066  -44.6161 O.2       5 UNK        -0.5000 
     47 CA         -2.4130  -13.1246  -44.2628 C.3       5 UNK         0.1400 
     48 CB         -3.6301  -12.1896  -44.3068 C.3       5 UNK        -0.1800 
     49 N          -1.3711  -12.5333  -43.4185 N.am      5 UNK        -0.5000 
     50 C          -0.1161  -12.9924  -43.3468 C.2       4 UNK         0.5000 
     51 O           0.3073  -13.9404  -44.0148 O.2       4 UNK        -0.5000 
     52 CA          0.8071  -12.3027  -42.3375 C.3       4 UNK         0.1400 
     53 CB          0.6761  -12.9512  -40.9471 C.3       4 UNK        -0.1800 
     54 N           2.1759  -12.4070  -42.8252 N.am      4 UNK        -0.5000 
     55 C           3.2076  -11.6489  -42.4391 C.2       3 UNK         0.5000 
     56 O           3.1241  -10.7980  -41.5520 O.2       3 UNK        -0.5000 
     57 CA          4.5449  -11.8196  -43.1894 C.3       3 UNK         0.1400 
     58 CB          5.7291  -12.0629  -42.2308 C.3       3 UNK        -0.1800 
     59 N           4.5056  -12.7986  -44.2844 N.am      3 UNK        -0.5000 
     60 C           4.5223  -14.1395  -44.2261 C.2       2 UNK         0.5000 
     61 O           4.5930  -14.7766  -43.1758 O.2       2 UNK        -0.5000 
     62 CA          4.4107  -14.8928  -45.5710 C.3       2 UNK         0.1400 
     63 CB          3.6299  -16.2094  -45.4354 C.3       2 UNK        -0.1800 
     64 N           3.7527  -14.0758  -46.5910 N.am      2 UNK        -0.5000 
     65 C           4.3697  -13.3415  -47.5249 C.2       1 UNK         0.5000 
     66 O           5.5916  -13.3061  -47.6720 O.2       1 UNK        -0.5000 
     67 C           0.2789  -22.2936  -47.8784 C.2       11 UNK         0.5000 
     68 O           0.6843  -23.3253  -48.4142 O.2       11 UNK        -0.5000 
     69 N          -0.8486  -21.6648  -48.2441 N.am      12 UNK        -0.5000 
     70 CA         -1.7729  -22.1521  -49.2692 C.3       12 UNK         0.1400 
     71 CB         -2.8681  -21.1079  -49.5268 C.3       12 UNK        -0.1800 
     72 C          -2.3956  -23.5090  -48.8966 C.2       12 UNK         0.5000 
     73 O          -2.4317  -24.4056  -49.7376 O.2       12 UNK        -0.5000 
     74 N          -2.8264  -23.6543  -47.6351 N.am      13 UNK        -0.5000 
     75 CA         -3.3770  -24.8941  -47.0855 C.3       13 UNK         0.1400 
     76 CB         -3.9342  -24.6391  -45.6776 C.3       13 UNK        -0.1800 
     77 C          -2.3574  -26.0480  -47.0766 C.2       13 UNK         0.5000 
     78 O          -2.7167  -27.1720  -47.4261 O.2       13 UNK        -0.5000 
     79 N          -1.0950  -25.7469  -46.7397 N.am      14 UNK        -0.5000 
     80 CA          0.0347  -26.6784  -46.8127 C.3       14 UNK         0.1400 
     81 CB          1.2632  -26.0493  -46.1387 C.3       14 UNK        -0.1800 
     82 C           0.3633  -27.1155  -48.2550 C.2       14 UNK         0.5000 
     83 O           0.7721  -28.2577  -48.4651 O.2       14 UNK        -0.5000 
     84 N           0.1336  -26.2189  -49.2237 N.am      15 UNK        -0.5000 
     85 CA          0.2191  -26.4805  -50.6627 C.3       15 UNK         0.1400 
     86 CB          0.5065  -25.1561  -51.3911 C.3       15 UNK        -0.1800 
     87 C          -1.0384  -27.1754  -51.2367 C.2       15 UNK         0.5000 
     88 O          -1.0687  -27.4553  -52.4359 O.2       15 UNK        -0.5000 
     89 N          -2.0399  -27.4478  -50.3851 N.am      16 UNK        -0.5000 
     90 CA         -3.3258  -28.0900  -50.6744 C.3       16 UNK         0.1400 
     91 CB         -3.1256  -29.5387  -51.1679 C.3       16 UNK        -0.1800 
     92 C          -4.2430  -27.2523  -51.5905 C.2       16 UNK         0.5000 
     93 O          -4.9951  -27.8159  -52.3885 O.2       16 UNK        -0.5000 
     94 N          -4.1826  -25.9242  -51.4462 N.am      17 UNK        -0.5000 
     95 CA         -5.0244  -24.9543  -52.1403 C.3       17 UNK         0.1400 
     96 CB         -4.1144  -24.0304  -52.9667 C.3       17 UNK        -0.1800 
     97 C          -5.8299  -24.1299  -51.1229 C.2       17 UNK         0.5000 
     98 O          -5.5263  -24.1358  -49.9280 O.2       17 UNK        -0.5000 
     99 N          -6.8297  -23.3961  -51.6235 N.am      18 UNK        -0.5000 
    100 CA        -7.4794  -22.3107  -50.8892 C.3       18 UNK         0.1400 
    101 CB        -8.8403  -22.0107  -51.5362 C.3       18 UNK        -0.1800 
    102 C         -6.5848  -21.0586  -50.9179 C.2       18 UNK         0.5000 
    103 O         -5.8152  -20.8850  -51.8668 O.2       18 UNK        -0.5000 
    104 N         -6.7307  -20.1825  -49.9160 N.am      19 UNK        -0.5000 
    105 CA        -5.9501  -18.9474  -49.7660 C.3       19 UNK         0.1400 
    106 CB        -6.3351  -18.2668  -48.4441 C.3       19 UNK        -0.1800 
    107 C         -6.0951  -17.9653  -50.9453 C.2       19 UNK         0.5000 
    108 O         -5.1261  -17.2962  -51.3036 O.2       19 UNK        -0.5000 
    109 N         -7.2947  -17.9216  -51.5397 N.am      20 UNK        -0.5000 
    110 CA        -7.6035  -17.1186  -52.7230 C.3       20 UNK         0.1400 
    111 CB        -9.1175  -16.8581  -52.7592 C.3       20 UNK        -0.1800 
    112 C         -7.1437  -17.7783  -54.0387 C.2       20 UNK         0.5000 
    113 O         -6.9701  -17.0719  -55.0326 O.2       20 UNK        -0.5000 
    114 N         -6.9779  -19.1084  -54.0365 N.am      21 UNK        -0.5000 
    115 CA        -6.5811  -19.8925  -55.2054 C.3       21 UNK         0.1400 
    116 CB        -7.1939  -21.2993  -55.1162 C.3       21 UNK        -0.1800 
    117 C         -5.0537  -19.9762  -55.3369 C.2       21 UNK         0.5000 
    118 O         -4.5313  -19.7923  -56.4368 O.2       21 UNK        -0.5000 
    119 N         -4.3711  -20.2635  -54.2199 N.am      22 UNK        -0.5000 
    120 CA        -2.9120  -20.4038  -54.0626 C.3       22 UNK         0.1400 
    121 C         -2.2621  -21.6029  -54.8227 C.2       22 UNK         0.5000 
    122 N         -2.7319  -21.9728  -56.0056 N.am      22 UNK        -0.7600 
    123 O         -1.3389  -22.2306  -54.3129 O.2       22 UNK        -0.5000 
    124 C124       -2.1813  -19.0593  -54.3312 C.3       23 UNK        -0.0398 
    125 S125       -0.4597  -18.9982  -53.7331 S.3       23 UNK        -0.2404 
    126 C126       -0.7147  -18.6445  -51.9703 C.3       23 UNK        -0.0205 
    127 H127        0.7527  -10.7038  -45.1269 H         1 UNK         0.0600 
    128 H128        0.0493  -11.7710  -46.3452 H         1 UNK         0.0600 
    129 H129        0.3266  -10.0620  -46.7145 H         1 UNK         0.0600 
    130 H130        1.3708  -12.4138  -48.1910 H         1 UNK         0.3000 
    131 H131        4.0307  -11.5520  -48.6170 H         1 UNK         0.0600 
    132 H132        2.7387  -12.4092  -50.4615 H         1 UNK         0.0800 
    133 H133        4.1430  -13.4084  -50.2716 H         1 UNK         0.0800 
    134 H134        4.0372  -15.9945  -49.5901 H         1 UNK         0.0800 
    135 H135        3.6186  -15.6339  -51.2536 H         1 UNK         0.0800 
    136 H136        0.7947  -16.4428  -51.4801 H         1 UNK         0.1150 
    137 H137        0.7300  -20.6799  -50.8865 H         1 UNK         0.1150 
    138 H138        4.0587  -18.3749  -49.4746 H         1 UNK         0.1150 
    139 H139        2.5140  -21.8143  -49.8637 H         1 UNK         0.0800 
    140 H140        4.0619  -21.0861  -50.1909 H         1 UNK         0.0800 
    141 H141        1.3706  -19.7924  -47.7204 H         1 UNK         0.0800 
    142 H142        2.1943  -19.9205  -46.2058 H         1 UNK         0.0800 
    143 H143        1.7127  -22.4853  -46.2996 H         1 UNK         0.0600 
    144 H144        0.1336  -20.3809  -45.2991 H         1 UNK         0.3000 
    145 H145       -2.4134  -22.3387  -43.7345 H         1 UNK         0.0600 
    146 H146       -1.6426  -20.9952  -41.7974 H         1 UNK         0.0600 
    147 H147       -0.5102  -22.2952  -42.1379 H         1 UNK         0.0600 
    148 H148       -0.1192  -20.6480  -42.6115 H         1 UNK         0.0600 
    149 H149       -2.0035  -19.5244  -43.8585 H         1 UNK         0.3000 
    150 H150       -3.7943  -18.9849  -46.9394 H         1 UNK         0.0600 
    151 H151       -5.4811  -19.0718  -45.0972 H         1 UNK         0.0600 
    152 H152       -5.0012  -17.4182  -45.4498 H         1 UNK         0.0600 
    153 H153       -4.3677  -18.2356  -44.0233 H         1 UNK         0.0600 
    154 H154       -2.4672  -17.1444  -45.2340 H         1 UNK         0.3000 
    155 H155        0.7869  -17.4029  -46.7358 H         1 UNK         0.0600 
    156 H156       -1.3305  -15.1899  -46.7055 H         1 UNK         0.0600 
    157 H157        0.4079  -14.9494  -46.8682 H         1 UNK         0.0600 
    158 H158       -0.4842  -15.7949  -48.1241 H         1 UNK         0.0600 
    159 H159       -0.1427  -15.8305  -44.5575 H         1 UNK         0.3000 
    160 H160        0.4730  -18.2616  -41.9782 H         1 UNK         0.0600 
    161 H161        1.8439  -15.6198  -42.7064 H         1 UNK         0.0600 
    162 H162        2.6531  -17.1567  -42.4552 H         1 UNK         0.0600 
    163 H163        1.8236  -16.3809  -41.1172 H         1 UNK         0.0600 
    164 H164       -0.5480  -15.5635  -42.0122 H         1 UNK         0.3000 
    165 H165       -3.9915  -16.4465  -42.2240 H         1 UNK         0.0600 
    166 H166       -4.0709  -15.1815  -40.0912 H         1 UNK         0.0600 
    167 H167       -3.4199  -16.7891  -39.8151 H         1 UNK         0.0600 
    168 H168       -2.3363  -15.4034  -39.8601 H         1 UNK         0.0600 
    169 H169       -2.6269  -13.9585  -41.8525 H         1 UNK         0.3000 
    170 H170       -2.0184  -13.2178  -45.2768 H         1 UNK         0.0600 
    171 H171       -4.4138  -12.6002  -44.9450 H         1 UNK         0.0600 
    172 H172       -4.0596  -12.0372  -43.3159 H         1 UNK         0.0600 
    173 H173       -3.3619  -11.2133  -44.7110 H         1 UNK         0.0600 
    174 H174       -1.6457  -11.7483  -42.8452 H         1 UNK         0.3000 
    175 H175        0.5308  -11.2478  -42.2786 H         1 UNK         0.0600 
    176 H176        0.9902  -13.9945  -40.9575 H         1 UNK         0.0600 
    177 H177        1.2849  -12.4304  -40.2082 H         1 UNK         0.0600 
    178 H178       -0.3547  -12.9197  -40.5922 H         1 UNK         0.0600 
    179 H179        2.3053  -13.0808  -43.5680 H         1 UNK         0.3000 
    180 H180        4.7245  -10.8609  -43.6779 H         1 UNK         0.0600 
    181 H181        5.5805  -12.9493  -41.6139 H         1 UNK         0.0600 
    182 H182        5.8583  -11.2188  -41.5526 H         1 UNK         0.0600 
    183 H183        6.6639  -12.1839  -42.7782 H         1 UNK         0.0600 
    184 H184        4.3903  -12.3800  -45.1992 H         1 UNK         0.3000 
    185 H185        5.4271  -15.1372  -45.8857 H         1 UNK         0.0600 
    186 H186        4.1112  -16.8896  -44.7319 H         1 UNK         0.0600 
    187 H187        2.6200  -16.0218  -45.0779 H         1 UNK         0.0600 
    188 H188        3.5565  -16.7290  -46.3912 H         1 UNK         0.0600 
    189 H189        2.7451  -14.0278  -46.5457 H         1 UNK         0.3000 
    190 H190       -1.0880  -20.7866  -47.7920 H         1 UNK         0.3000 
    191 H191       -1.2024  -22.2812  -50.1912 H         1 UNK         0.0600 
    192 H192       -3.5702  -21.0440  -48.6958 H         1 UNK         0.0600 
    193 H193       -3.4420  -21.3654  -50.4176 H         1 UNK         0.0600 
    194 H194       -2.4490  -20.1143  -49.6775 H         1 UNK         0.0600 
    195 H195       -2.8142  -22.8462  -47.0190 H         1 UNK         0.3000 
    196 H196       -4.2081  -25.1947  -47.7266 H         1 UNK         0.0600 
    197 H197       -4.4003  -25.5390  -45.2749 H         1 UNK         0.0600 
    198 H198       -4.6931  -23.8565  -45.6901 H         1 UNK         0.0600 
    199 H199       -3.1522  -24.3363  -44.9821 H         1 UNK         0.0600 
    200 H200       -0.8918  -24.8106  -46.3995 H         1 UNK         0.3000 
    201 H201       -0.2373  -27.5747  -46.2516 H         1 UNK         0.0600 
    202 H202        1.0573  -25.8010  -45.0974 H         1 UNK         0.0600 
    203 H203        1.5775  -25.1360  -46.6437 H         1 UNK         0.0600 
    204 H204        2.1093  -26.7375  -46.1483 H         1 UNK         0.0600 
    205 H205       -0.1606  -25.2864  -48.9567 H         1 UNK         0.3000 
    206 H206        1.0631  -27.1490  -50.8438 H         1 UNK         0.0600 
    207 H207        1.4001  -24.6731  -50.9953 H         1 UNK         0.0600 
    208 H208        0.6722  -25.3222  -52.4561 H         1 UNK         0.0600 
    209 H209       -0.3210  -24.4533  -51.2976 H         1 UNK         0.0600 
    210 H210       -1.9256  -27.1528  -49.4233 H         1 UNK         0.3000 
    211 H211       -3.8472  -28.1485  -49.7184 H         1 UNK         0.0600 
    212 H212       -2.6775  -29.5722  -52.1612 H         1 UNK         0.0600 
    213 H213       -4.0777  -30.0677  -51.2227 H         1 UNK         0.0600 
    214 H214       -2.4832  -30.1006  -50.4899 H         1 UNK         0.0600 
    215 H215       -3.5626  -25.5239  -50.7440 H         1 UNK         0.3000 
    216 H216       -5.7287  -25.4531  -52.8089 H         1 UNK         0.0600 
    217 H217       -4.6955  -23.3014  -53.5326 H         1 UNK         0.0600 
    218 H218       -3.5219  -24.5985  -53.6842 H         1 UNK         0.0600 
    219 H219       -3.4225  -23.4752  -52.3313 H         1 UNK         0.0600 
    220 H220       -7.0067  -23.4290  -52.6160 H         1 UNK         0.3000 
    221 H221       -7.6398  -22.6135  -49.8522 H         1 UNK         0.0600 
    222 H222       -8.7365  -21.6744  -52.5679 H         1 UNK         0.0600 
    223 H223       -9.4785  -22.8945  -51.5358 H         1 UNK         0.0600 
    224 H224       -9.3705  -21.2300  -50.9894 H         1 UNK         0.0600 
    225 H225       -7.3951  -20.3837  -49.1825 H         1 UNK         0.3000 
    226 H226       -4.8974  -19.2251  -49.7087 H         1 UNK         0.0600 
    227 H227       -6.1992  -18.9415  -47.5993 H         1 UNK         0.0600 
    228 H228       -5.7154  -17.3877  -48.2620 H         1 UNK         0.0600 
    229 H229       -7.3760  -17.9412  -48.4468 H         1 UNK         0.0600 
    230 H230       -8.0376  -18.4965  -51.1704 H         1 UNK         0.3000 
    231 H231       -7.0956  -16.1551  -52.6411 H         1 UNK         0.0600 
    232 H232       -9.3869  -16.2357  -53.6136 H         1 UNK         0.0600 
    233 H233       -9.4495  -16.3360  -51.8616 H         1 UNK         0.0600 
    234 H234       -9.6847  -17.7865  -52.8378 H         1 UNK         0.0600 
    235 H235       -7.0522  -19.6053  -53.1604 H         1 UNK         0.3000 
    236 H236       -6.9714  -19.4190  -56.1091 H         1 UNK         0.0600 
    237 H237       -8.2816  -21.2521  -55.0641 H         1 UNK         0.0600 
    238 H238       -6.9369  -21.8911  -55.9956 H         1 UNK         0.0600 
    239 H239       -6.8375  -21.8436  -54.2422 H         1 UNK         0.0600 
    240 H240       -4.9063  -20.4413  -53.3720 H         1 UNK         0.3000 
    241 H241       -2.7888  -20.6339  -53.0037 H         1 UNK         0.0600 
    242 H242       -3.4545  -21.4124  -56.4438 H         1 UNK         0.3800 
    243 H243       -2.3222  -22.7539  -56.4922 H         1 UNK         0.3800 
    244 H244       -2.1754  -18.8398  -55.3999 H         1 UNK         0.0800 
    245 H245       -2.7290  -18.2392  -53.8643 H         1 UNK         0.0800 
    246 H246       -1.2675  -17.7108  -51.8543 H         1 UNK         0.0800 
    247 H247       -1.3286  -19.4288  -51.5305 H         1 UNK         0.0800 
@<TRIPOS>BOND
     1    1    2 1    
     2    1  127 1    
     3    1  128 1    
     4    1  129 1    
     5    2    3 2    
     6    2    4 am   BACKBONE|DICT|INTERRES
     7    4    5 1    
     8    4  130 1    
     9    5    6 1    
    10    5   65 1    
    11    5  131 1    
    12    6    7 1    
    13    6  132 1    
    14    6  133 1    
    15    7    8 1    
    16    8    9 1    
    17    8  134 1    
    18    8  135 1    
    19    9   10 ar   
    20    9   14 ar   
    21   10   11 ar   
    22   10  136 1    
    23   11   12 ar   
    24   11  126 1    
    25   12   13 ar   
    26   12  137 1    
    27   13   14 ar   
    28   13   15 1    
    29   14  138 1    
    30   15   16 1    
    31   15  139 1    
    32   15  140 1    
    33   16   17 1    
    34   17   18 1    
    35   17  141 1    
    36   17  142 1    
    37   18   19 1    
    38   18   67 1    
    39   18  143 1    
    40   19   20 am   BACKBONE|DICT|INTERRES
    41   19  144 1    
    42   20   21 2    
    43   20   22 1    
    44   22   23 1    
    45   22   24 1    
    46   22  145 1    
    47   23  146 1    
    48   23  147 1    
    49   23  148 1    
    50   24   25 am   BACKBONE|DICT|INTERRES
    51   24  149 1    
    52   25   26 2    
    53   25   27 1    
    54   27   28 1    
    55   27   29 1    
    56   27  150 1    
    57   28  151 1    
    58   28  152 1    
    59   28  153 1    
    60   29   30 am   BACKBONE|DICT|INTERRES
    61   29  154 1    
    62   30   31 2    
    63   30   32 1    
    64   32   33 1    
    65   32   34 1    
    66   32  155 1    
    67   33  156 1    
    68   33  157 1    
    69   33  158 1    
    70   34   35 am   BACKBONE|DICT|INTERRES
    71   34  159 1    
    72   35   36 2    
    73   35   37 1    
    74   37   38 1    
    75   37   39 1    
    76   37  160 1    
    77   38  161 1    
    78   38  162 1    
    79   38  163 1    
    80   39   40 am   BACKBONE|DICT|INTERRES
    81   39  164 1    
    82   40   41 2    
    83   40   42 1    
    84   42   43 1    
    85   42   44 1    
    86   42  165 1    
    87   43  166 1    
    88   43  167 1    
    89   43  168 1    
    90   44   45 am   BACKBONE|DICT|INTERRES
    91   44  169 1    
    92   45   46 2    
    93   45   47 1    
    94   47   48 1    
    95   47   49 1    
    96   47  170 1    
    97   48  171 1    
    98   48  172 1    
    99   48  173 1    
   100   49   50 am   BACKBONE|DICT|INTERRES
   101   49  174 1    
   102   50   51 2    
   103   50   52 1    
   104   52   53 1    
   105   52   54 1    
   106   52  175 1    
   107   53  176 1    
   108   53  177 1    
   109   53  178 1    
   110   54   55 am   BACKBONE|DICT|INTERRES
   111   54  179 1    
   112   55   56 2    
   113   55   57 1    
   114   57   58 1    
   115   57   59 1    
   116   57  180 1    
   117   58  181 1    
   118   58  182 1    
   119   58  183 1    
   120   59   60 am   BACKBONE|DICT|INTERRES
   121   59  184 1    
   122   60   61 2    
   123   60   62 1    
   124   62   63 1    
   125   62   64 1    
   126   62  185 1    
   127   63  186 1    
   128   63  187 1    
   129   63  188 1    
   130   64   65 am   BACKBONE|DICT|INTERRES
   131   64  189 1    
   132   65   66 2    
   133   67   68 2    
   134   67   69 am   BACKBONE|DICT|INTERRES
   135   69   70 1    
   136   69  190 1    
   137   70   71 1    
   138   70   72 1    
   139   70  191 1    
   140   71  192 1    
   141   71  193 1    
   142   71  194 1    
   143   72   73 2    
   144   72   74 am   BACKBONE|DICT|INTERRES
   145   74   75 1    
   146   74  195 1    
   147   75   76 1    
   148   75   77 1    
   149   75  196 1    
   150   76  197 1    
   151   76  198 1    
   152   76  199 1    
   153   77   78 2    
   154   77   79 am   BACKBONE|DICT|INTERRES
   155   79   80 1    
   156   79  200 1    
   157   80   81 1    
   158   80   82 1    
   159   80  201 1    
   160   81  202 1    
   161   81  203 1    
   162   81  204 1    
   163   82   83 2    
   164   82   84 am   BACKBONE|DICT|INTERRES
   165   84   85 1    
   166   84  205 1    
   167   85   86 1    
   168   85   87 1    
   169   85  206 1    
   170   86  207 1    
   171   86  208 1    
   172   86  209 1    
   173   87   88 2    
   174   87   89 am   BACKBONE|DICT|INTERRES
   175   89   90 1    
   176   89  210 1    
   177   90   91 1    
   178   90   92 1    
   179   90  211 1    
   180   91  212 1    
   181   91  213 1    
   182   91  214 1    
   183   92   93 2    
   184   92   94 am   BACKBONE|DICT|INTERRES
   185   94   95 1    
   186   94  215 1    
   187   95   96 1    
   188   95   97 1    
   189   95  216 1    
   190   96  217 1    
   191   96  218 1    
   192   96  219 1    
   193   97   98 2    
   194   97   99 am   BACKBONE|DICT|INTERRES
   195   99  100 1    
   196   99  220 1    
   197  100  101 1    
   198  100  102 1    
   199  100  221 1    
   200  101  222 1    
   201  101  223 1    
   202  101  224 1    
   203  102  103 2    
   204  102  104 am   BACKBONE|DICT|INTERRES
   205  104  105 1    
   206  104  225 1    
   207  105  106 1    
   208  105  107 1    
   209  105  226 1    
   210  106  227 1    
   211  106  228 1    
   212  106  229 1    
   213  107  108 2    
   214  107  109 am   BACKBONE|DICT|INTERRES
   215  109  110 1    
   216  109  230 1    
   217  110  111 1    
   218  110  112 1    
   219  110  231 1    
   220  111  232 1    
   221  111  233 1    
   222  111  234 1    
   223  112  113 2    
   224  112  114 am   BACKBONE|DICT|INTERRES
   225  114  115 1    
   226  114  235 1    
   227  115  116 1    
   228  115  117 1    
   229  115  236 1    
   230  116  237 1    
   231  116  238 1    
   232  116  239 1    
   233  117  118 2    
   234  117  119 am   BACKBONE|DICT|INTERRES
   235  119  120 1    
   236  119  240 1    
   237  120  121 1    
   238  120  124 1    
   239  120  241 1    
   240  121  122 am   BACKBONE|DICT|INTERRES
   241  121  123 2    
   242  122  242 1    
   243  122  243 1    
   244  124  125 1    
   245  124  244 1    
   246  124  245 1    
   247  125  126 1    
   248  126  246 1    
   249  126  247 1    
@<TRIPOS>SUBSTRUCTURE
     1 UNK         1 GROUP             0       ****    0 ROOT    
