@<TRIPOS>MOLECULE
3R540
247   249    1
SMALL
USER_CHARGES


@<TRIPOS>ATOM
      1 CA          1.1591  -12.0580  -43.7220 C.3       0 UNK        -0.1800 
      2 C           2.1869  -11.8967  -44.8322 C.2       0 UNK         0.5000 
      3 O           3.2509  -11.3217  -44.6031 O.2       0 UNK        -0.5000 
      4 N           1.8784  -12.4070  -46.0312 N.am      1 UNK        -0.5000 
      5 CA          2.7437  -12.3699  -47.2185 C.3       1 UNK         0.1400 
      6 C6          1.9453  -12.6635  -48.5140 C.3       23 UNK        -0.0398 
      7 S7          1.2001  -14.3329  -48.6028 S.3       23 UNK        -0.2404 
      8 C8          2.3061  -15.1258  -49.8040 C.3       23 UNK        -0.0205 
      9 C9          1.8122  -16.5036  -50.2135 C.ar      23 UNK        -0.0193 
     10 C10         1.0091  -16.6494  -51.3485 C.ar      23 UNK        -0.1150 
     11 C11         0.6376  -17.9200  -51.7953 C.ar      23 UNK        -0.0193 
     12 C12         1.0483  -19.0459  -51.0773 C.ar      23 UNK        -0.1150 
     13 C13         1.8403  -18.9171  -49.9327 C.ar      23 UNK        -0.0193 
     14 C14         2.2172  -17.6392  -49.5054 C.ar      23 UNK        -0.1150 
     15 C15         2.3816  -20.1577  -49.2309 C.3       23 UNK        -0.0205 
     16 S16         2.0076  -20.2122  -47.4499 S.3       23 UNK        -0.2404 
     17 C17         0.4330  -21.1338  -47.3696 C.3       23 UNK        -0.0398 
     18 CA         -0.7019  -20.2337  -46.8221 C.3       11 UNK         0.1400 
     19 N          -1.2057  -19.3406  -47.8649 N.am      11 UNK        -0.5000 
     20 C          -1.7440  -18.1390  -47.6469 C.2       10 UNK         0.5000 
     21 O          -1.9039  -17.6470  -46.5236 O.2       10 UNK        -0.5000 
     22 CA         -2.1683  -17.3532  -48.8950 C.3       10 UNK         0.1400 
     23 CB         -3.4429  -17.9354  -49.5276 C.3       10 UNK        -0.1800 
     24 N          -2.3983  -15.9667  -48.5123 N.am      10 UNK        -0.5000 
     25 C          -2.3533  -14.9049  -49.3237 C.2       9 UNK         0.5000 
     26 O          -2.1289  -14.9792  -50.5321 O.2       9 UNK        -0.5000 
     27 CA         -2.6187  -13.5234  -48.6918 C.3       9 UNK         0.1400 
     28 CB         -3.7816  -12.8104  -49.4025 C.3       9 UNK        -0.1800 
     29 N          -2.9441  -13.6187  -47.2679 N.am      9 UNK        -0.5000 
     30 C          -2.1266  -13.3179  -46.2555 C.2       8 UNK         0.5000 
     31 O          -0.9774  -12.9015  -46.3974 O.2       8 UNK        -0.5000 
     32 CA         -2.6799  -13.5266  -44.8354 C.3       8 UNK         0.1400 
     33 CB         -3.6525  -12.4005  -44.4371 C.3       8 UNK        -0.1800 
     34 N          -3.2564  -14.8559  -44.6008 N.am      8 UNK        -0.5000 
     35 C          -4.3777  -15.4063  -45.0930 C.2       7 UNK         0.5000 
     36 O          -5.1113  -14.8389  -45.9038 O.2       7 UNK        -0.5000 
     37 CA         -4.7357  -16.8286  -44.6097 C.3       7 UNK         0.1400 
     38 CB         -5.2631  -17.7158  -45.7500 C.3       7 UNK        -0.1800 
     39 N          -3.5909  -17.4912  -43.9812 N.am      7 UNK        -0.5000 
     40 C          -3.3960  -17.5946  -42.6591 C.2       6 UNK         0.5000 
     41 O          -4.2066  -17.2056  -41.8178 O.2       6 UNK        -0.5000 
     42 CA         -2.0637  -18.2091  -42.1839 C.3       6 UNK         0.1400 
     43 CB         -2.2542  -19.6880  -41.8227 C.3       6 UNK        -0.1800 
     44 N          -0.9689  -18.0962  -43.1493 N.am      6 UNK        -0.5000 
     45 C          -0.4250  -16.9535  -43.5818 C.2       5 UNK         0.5000 
     46 O          -0.8071  -15.8424  -43.2109 O.2       5 UNK        -0.5000 
     47 CA          0.7318  -17.0868  -44.5927 C.3       5 UNK         0.1400 
     48 CB          1.1095  -15.7426  -45.2268 C.3       5 UNK        -0.1800 
     49 N           1.9210  -17.7305  -44.0269 N.am      5 UNK        -0.5000 
     50 C           2.0389  -19.0421  -43.7579 C.2       4 UNK         0.5000 
     51 O           1.1155  -19.8462  -43.9089 O.2       4 UNK        -0.5000 
     52 CA          3.4013  -19.5650  -43.2570 C.3       4 UNK         0.1400 
     53 CB          3.8830  -20.7471  -44.1157 C.3       4 UNK        -0.1800 
     54 N           4.4442  -18.5386  -43.2665 N.am      4 UNK        -0.5000 
     55 C           4.8537  -17.8351  -42.2032 C.2       3 UNK         0.5000 
     56 O           4.4008  -17.9811  -41.0676 O.2       3 UNK        -0.5000 
     57 CA          5.9476  -16.7748  -42.4568 C.3       3 UNK         0.1400 
     58 CB          7.3361  -17.3510  -42.1400 C.3       3 UNK        -0.1800 
     59 N           5.9517  -16.2407  -43.8251 N.am      3 UNK        -0.5000 
     60 C           4.9457  -15.5391  -44.3613 C.2       2 UNK         0.5000 
     61 O           3.9073  -15.2740  -43.7503 O.2       2 UNK        -0.5000 
     62 CA          5.1002  -15.1101  -45.8280 C.3       2 UNK         0.1400 
     63 CB          5.0194  -16.3264  -46.7700 C.3       2 UNK        -0.1800 
     64 N           4.0257  -14.1774  -46.1404 N.am      2 UNK        -0.5000 
     65 C           4.0103  -13.2547  -47.1067 C.2       1 UNK         0.5000 
     66 O           4.9402  -13.0836  -47.8966 O.2       1 UNK        -0.5000 
     67 C          -1.8294  -21.0266  -46.1261 C.2       11 UNK         0.5000 
     68 O          -2.9956  -20.9407  -46.5146 O.2       11 UNK        -0.5000 
     69 N          -1.4566  -21.7679  -45.0725 N.am      12 UNK        -0.5000 
     70 CA         -2.3239  -22.6921  -44.3365 C.3       12 UNK         0.1400 
     71 CB         -1.5376  -23.2519  -43.1410 C.3       12 UNK        -0.1800 
     72 C          -2.8427  -23.8443  -45.2182 C.2       12 UNK         0.5000 
     73 O          -2.1827  -24.2062  -46.1927 O.2       12 UNK        -0.5000 
     74 N          -3.9947  -24.4152  -44.8339 N.am      13 UNK        -0.5000 
     75 CA         -4.7972  -25.3982  -45.5799 C.3       13 UNK         0.1400 
     76 CB         -5.9414  -25.8888  -44.6799 C.3       13 UNK        -0.1800 
     77 C          -4.0368  -26.6019  -46.1722 C.2       13 UNK         0.5000 
     78 O          -4.4102  -27.0855  -47.2420 O.2       13 UNK        -0.5000 
     79 N          -2.9619  -27.0335  -45.4987 N.am      14 UNK        -0.5000 
     80 CA         -2.0424  -28.0833  -45.9466 C.3       14 UNK         0.1400 
     81 CB         -1.0214  -28.3525  -44.8307 C.3       14 UNK        -0.1800 
     82 C          -1.3180  -27.7698  -47.2747 C.2       14 UNK         0.5000 
     83 O          -0.8699  -28.6986  -47.9479 O.2       14 UNK        -0.5000 
     84 N          -1.2284  -26.4826  -47.6398 N.am      15 UNK        -0.5000 
     85 CA         -0.6515  -26.0001  -48.8941 C.3       15 UNK         0.1400 
     86 CB         -0.2526  -24.5268  -48.7139 C.3       15 UNK        -0.1800 
     87 C          -1.5816  -26.1871  -50.1142 C.2       15 UNK         0.5000 
     88 O          -1.1274  -25.9812  -51.2405 O.2       15 UNK        -0.5000 
     89 N          -2.8468  -26.5807  -49.8880 N.am      16 UNK        -0.5000 
     90 CA         -3.8659  -26.9251  -50.8863 C.3       16 UNK         0.1400 
     91 CB         -3.5021  -28.2523  -51.5874 C.3       16 UNK        -0.1800 
     92 C          -4.1469  -25.7653  -51.8628 C.2       16 UNK         0.5000 
     93 O          -4.8105  -24.8043  -51.4768 O.2       16 UNK        -0.5000 
     94 N          -3.6182  -25.8401  -53.0923 N.am      17 UNK        -0.5000 
     95 CA         -3.7123  -24.7872  -54.1093 C.3       17 UNK         0.1400 
     96 CB         -3.1017  -25.2974  -55.4225 C.3       17 UNK        -0.1800 
     97 C          -3.0467  -23.4637  -53.6806 C.2       17 UNK         0.5000 
     98 O          -3.5231  -22.3938  -54.0558 O.2       17 UNK        -0.5000 
     99 N          -1.9971  -23.5568  -52.8542 N.am      18 UNK        -0.5000 
    100 CA        -1.3168  -22.4209  -52.2299 C.3       18 UNK         0.1400 
    101 CB         0.1576  -22.7976  -51.9945 C.3       18 UNK        -0.1800 
    102 C         -2.0239  -21.9088  -50.9532 C.2       18 UNK         0.5000 
    103 O         -1.5326  -20.9663  -50.3316 O.2       18 UNK        -0.5000 
    104 N         -3.1603  -22.5175  -50.5857 N.am      19 UNK        -0.5000 
    105 CA        -4.0604  -22.0529  -49.5294 C.3       19 UNK         0.1400 
    106 CB        -4.3901  -23.2332  -48.6034 C.3       19 UNK        -0.1800 
    107 C         -5.3554  -21.4453  -50.1043 C.2       19 UNK         0.5000 
    108 O         -6.1745  -20.9388  -49.3359 O.2       19 UNK        -0.5000 
    109 N         -5.5342  -21.5130  -51.4312 N.am      20 UNK        -0.5000 
    110 CA        -6.6466  -20.9123  -52.1653 C.3       20 UNK         0.1400 
    111 CB        -6.8694  -21.7229  -53.4558 C.3       20 UNK        -0.1800 
    112 C         -6.3716  -19.4221  -52.4565 C.2       20 UNK         0.5000 
    113 O         -5.4364  -18.8407  -51.9034 O.2       20 UNK        -0.5000 
    114 N         -7.1697  -18.8174  -53.3460 N.am      21 UNK        -0.5000 
    115 CA        -7.0073  -17.4422  -53.8315 C.3       21 UNK         0.1400 
    116 CB        -8.3448  -16.9699  -54.4299 C.3       21 UNK        -0.1800 
    117 C         -5.8287  -17.3134  -54.8258 C.2       21 UNK         0.5000 
    118 O         -6.0241  -16.9323  -55.9814 O.2       21 UNK        -0.5000 
    119 N         -4.6281  -17.6734  -54.3616 N.am      22 UNK        -0.5000 
    120 CA        -3.3769  -17.7143  -55.1306 C.3       22 UNK         0.1400 
    121 C         -2.6825  -16.3376  -55.3496 C.2       22 UNK         0.5000 
    122 N         -3.1405  -15.2536  -54.7357 N.am      22 UNK        -0.7600 
    123 O         -1.7192  -16.2493  -56.1062 O.2       22 UNK        -0.5000 
    124 C124       -2.4100  -18.7851  -54.5617 C.3       23 UNK        -0.0398 
    125 S125       -1.8796  -18.4887  -52.8356 S.3       23 UNK        -0.2404 
    126 C126       -0.1277  -18.0862  -53.0997 C.3       23 UNK        -0.0205 
    127 H127        1.6454  -12.3869  -42.8035 H         1 UNK         0.0600 
    128 H128        0.4032  -12.7977  -43.9817 H         1 UNK         0.0600 
    129 H129        0.6606  -11.1084  -43.5278 H         1 UNK         0.0600 
    130 H130        0.9556  -12.8098  -46.1785 H         1 UNK         0.3000 
    131 H131        3.1089  -11.3443  -47.3033 H         1 UNK         0.0600 
    132 H132        2.5735  -12.4908  -49.3893 H         1 UNK         0.0800 
    133 H133        1.1317  -11.9422  -48.6018 H         1 UNK         0.0800 
    134 H134        3.3080  -15.2003  -49.3797 H         1 UNK         0.0800 
    135 H135        2.3944  -14.4931  -50.6884 H         1 UNK         0.0800 
    136 H136        0.7042  -15.7743  -51.9053 H         1 UNK         0.1150 
    137 H137        0.7760  -20.0243  -51.4397 H         1 UNK         0.1150 
    138 H138        2.8547  -17.5317  -48.6398 H         1 UNK         0.1150 
    139 H139        3.4660  -20.1604  -49.3473 H         1 UNK         0.0800 
    140 H140        2.0297  -21.0716  -49.7090 H         1 UNK         0.0800 
    141 H141        0.1720  -21.5453  -48.3449 H         1 UNK         0.0800 
    142 H142        0.6169  -21.9941  -46.7247 H         1 UNK         0.0800 
    143 H143       -0.2826  -19.6230  -46.0291 H         1 UNK         0.0600 
    144 H144       -1.1872  -19.7142  -48.8098 H         1 UNK         0.3000 
    145 H145       -1.3498  -17.3949  -49.6166 H         1 UNK         0.0600 
    146 H146       -3.2879  -18.9645  -49.8500 H         1 UNK         0.0600 
    147 H147       -3.7339  -17.3685  -50.4117 H         1 UNK         0.0600 
    148 H148       -4.2854  -17.9297  -48.8371 H         1 UNK         0.0600 
    149 H149       -2.5195  -15.8263  -47.5181 H         1 UNK         0.3000 
    150 H150       -1.7151  -12.9270  -48.8333 H         1 UNK         0.0600 
    151 H151       -3.5702  -12.6733  -50.4637 H         1 UNK         0.0600 
    152 H152       -3.9553  -11.8217  -48.9775 H         1 UNK         0.0600 
    153 H153       -4.7092  -13.3785  -49.3218 H         1 UNK         0.0600 
    154 H154       -3.8663  -13.9766  -47.0308 H         1 UNK         0.3000 
    155 H155       -1.8284  -13.4639  -44.1578 H         1 UNK         0.0600 
    156 H156       -3.9870  -12.5162  -43.4062 H         1 UNK         0.0600 
    157 H157       -4.5357  -12.3737  -45.0757 H         1 UNK         0.0600 
    158 H158       -3.1678  -11.4265  -44.5141 H         1 UNK         0.0600 
    159 H159       -2.6941  -15.4323  -43.9843 H         1 UNK         0.3000 
    160 H160       -5.5463  -16.7130  -43.8878 H         1 UNK         0.0600 
    161 H161       -4.5221  -17.8449  -46.5356 H         1 UNK         0.0600 
    162 H162       -6.1552  -17.2859  -46.2069 H         1 UNK         0.0600 
    163 H163       -5.5327  -18.7067  -45.3843 H         1 UNK         0.0600 
    164 H164       -2.8622  -17.7997  -44.6162 H         1 UNK         0.3000 
    165 H165       -1.7620  -17.6735  -41.2815 H         1 UNK         0.0600 
    166 H166       -2.5590  -20.2682  -42.6921 H         1 UNK         0.0600 
    167 H167       -1.3344  -20.1222  -41.4303 H         1 UNK         0.0600 
    168 H168       -3.0238  -19.8100  -41.0594 H         1 UNK         0.0600 
    169 H169       -0.5317  -18.9603  -43.4547 H         1 UNK         0.3000 
    170 H170        0.3845  -17.7078  -45.4121 H         1 UNK         0.0600 
    171 H171        1.4578  -15.0277  -44.4830 H         1 UNK         0.0600 
    172 H172        1.8841  -15.8731  -45.9806 H         1 UNK         0.0600 
    173 H173        0.2486  -15.3002  -45.7285 H         1 UNK         0.0600 
    174 H174        2.6999  -17.1184  -43.8190 H         1 UNK         0.3000 
    175 H175        3.2446  -19.9316  -42.2407 H         1 UNK         0.0600 
    176 H176        4.0533  -20.4488  -45.1506 H         1 UNK         0.0600 
    177 H177        4.8150  -21.1593  -43.7289 H         1 UNK         0.0600 
    178 H178        3.1519  -21.5567  -44.1235 H         1 UNK         0.0600 
    179 H179        4.8744  -18.3458  -44.1589 H         1 UNK         0.3000 
    180 H180        5.7593  -15.9437  -41.7739 H         1 UNK         0.0600 
    181 H181        7.5929  -18.1734  -42.8090 H         1 UNK         0.0600 
    182 H182        7.3771  -17.7334  -41.1191 H         1 UNK         0.0600 
    183 H183        8.1102  -16.5888  -42.2305 H         1 UNK         0.0600 
    184 H184        6.7747  -16.4281  -44.3798 H         1 UNK         0.3000 
    185 H185        6.0631  -14.6085  -45.9432 H         1 UNK         0.0600 
    186 H186        5.8307  -17.0295  -46.5796 H         1 UNK         0.0600 
    187 H187        4.0803  -16.8673  -46.6470 H         1 UNK         0.0600 
    188 H188        5.0969  -16.0252  -47.8145 H         1 UNK         0.0600 
    189 H189        3.2541  -14.2083  -45.4857 H         1 UNK         0.3000 
    190 H190       -0.4858  -21.7582  -44.7925 H         1 UNK         0.3000 
    191 H191       -3.1842  -22.1295  -43.9698 H         1 UNK         0.0600 
    192 H192       -2.1627  -23.9027  -42.5284 H         1 UNK         0.0600 
    193 H193       -1.1731  -22.4534  -42.4951 H         1 UNK         0.0600 
    194 H194       -0.6759  -23.8363  -43.4667 H         1 UNK         0.0600 
    195 H195       -4.4289  -24.0663  -43.9918 H         1 UNK         0.3000 
    196 H196       -5.2443  -24.8679  -46.4210 H         1 UNK         0.0600 
    197 H197       -6.5760  -26.6037  -45.2057 H         1 UNK         0.0600 
    198 H198       -6.5799  -25.0630  -44.3654 H         1 UNK         0.0600 
    199 H199       -5.5633  -26.3825  -43.7837 H         1 UNK         0.0600 
    200 H200       -2.7191  -26.5572  -44.6427 H         1 UNK         0.3000 
    201 H201       -2.6280  -28.9913  -46.1036 H         1 UNK         0.0600 
    202 H202       -1.5150  -28.6617  -43.9092 H         1 UNK         0.0600 
    203 H203       -0.4236  -27.4666  -44.6121 H         1 UNK         0.0600 
    204 H204       -0.3341  -29.1512  -45.1128 H         1 UNK         0.0600 
    205 H205       -1.6184  -25.7670  -47.0291 H         1 UNK         0.3000 
    206 H206        0.2586  -26.5704  -49.0903 H         1 UNK         0.0600 
    207 H207        0.3044  -24.3783  -47.7887 H         1 UNK         0.0600 
    208 H208        0.3920  -24.1950  -49.5246 H         1 UNK         0.0600 
    209 H209       -1.1219  -23.8697  -48.6879 H         1 UNK         0.0600 
    210 H210       -3.1417  -26.6913  -48.9246 H         1 UNK         0.3000 
    211 H211       -4.7924  -27.0891  -50.3340 H         1 UNK         0.0600 
    212 H212       -2.5444  -28.2013  -52.1063 H         1 UNK         0.0600 
    213 H213       -4.2626  -28.5326  -52.3174 H         1 UNK         0.0600 
    214 H214       -3.4377  -29.0652  -50.8639 H         1 UNK         0.0600 
    215 H215       -3.0555  -26.6460  -53.3233 H         1 UNK         0.3000 
    216 H216       -4.7711  -24.5812  -54.2798 H         1 UNK         0.0600 
    217 H217       -2.0460  -25.5459  -55.3055 H         1 UNK         0.0600 
    218 H218       -3.1767  -24.5430  -56.2069 H         1 UNK         0.0600 
    219 H219       -3.6197  -26.1879  -55.7791 H         1 UNK         0.0600 
    220 H220       -1.6954  -24.4780  -52.5518 H         1 UNK         0.3000 
    221 H221       -1.3252  -21.5767  -52.9224 H         1 UNK         0.0600 
    222 H222        0.2782  -23.8498  -51.7453 H         1 UNK         0.0600 
    223 H223        0.7466  -22.6142  -52.8931 H         1 UNK         0.0600 
    224 H224        0.6112  -22.2245  -51.1881 H         1 UNK         0.0600 
    225 H225       -3.4992  -23.3090  -51.1210 H         1 UNK         0.3000 
    226 H226       -3.5752  -21.2742  -48.9423 H         1 UNK         0.0600 
    227 H227       -3.4956  -23.7949  -48.3437 H         1 UNK         0.0600 
    228 H228       -4.8344  -22.8724  -47.6756 H         1 UNK         0.0600 
    229 H229       -5.0966  -23.9289  -49.0554 H         1 UNK         0.0600 
    230 H230       -4.7891  -21.8948  -51.9953 H         1 UNK         0.3000 
    231 H231       -7.5520  -20.9741  -51.5584 H         1 UNK         0.0600 
    232 H232       -6.9278  -22.7915  -53.2458 H         1 UNK         0.0600 
    233 H233       -6.0629  -21.5684  -54.1733 H         1 UNK         0.0600 
    234 H234       -7.8028  -21.4440  -53.9451 H         1 UNK         0.0600 
    235 H235       -7.9006  -19.3575  -53.7855 H         1 UNK         0.3000 
    236 H236       -6.7813  -16.7958  -52.9807 H         1 UNK         0.0600 
    237 H237       -8.6430  -17.5801  -55.2834 H         1 UNK         0.0600 
    238 H238       -9.1446  -17.0137  -53.6905 H         1 UNK         0.0600 
    239 H239       -8.2777  -15.9361  -54.7712 H         1 UNK         0.0600 
    240 H240       -4.5694  -17.9950  -53.3987 H         1 UNK         0.3000 
    241 H241       -3.6409  -18.0506  -56.1350 H         1 UNK         0.0600 
    242 H242       -2.6868  -14.3667  -54.8863 H         1 UNK         0.3800 
    243 H243       -3.9178  -15.3198  -54.0990 H         1 UNK         0.3800 
    244 H244       -2.9012  -19.7587  -54.5865 H         1 UNK         0.0800 
    245 H245       -1.5383  -18.8899  -55.2094 H         1 UNK         0.0800 
    246 H246        0.3404  -18.8795  -53.6844 H         1 UNK         0.0800 
    247 H247       -0.0580  -17.1785  -53.7011 H         1 UNK         0.0800 
@<TRIPOS>BOND
     1    1    2 1    
     2    1  127 1    
     3    1  128 1    
     4    1  129 1    
     5    2    3 2    
     6    2    4 am   BACKBONE|DICT|INTERRES
     7    4    5 1    
     8    4  130 1    
     9    5    6 1    
    10    5   65 1    
    11    5  131 1    
    12    6    7 1    
    13    6  132 1    
    14    6  133 1    
    15    7    8 1    
    16    8    9 1    
    17    8  134 1    
    18    8  135 1    
    19    9   10 ar   
    20    9   14 ar   
    21   10   11 ar   
    22   10  136 1    
    23   11   12 ar   
    24   11  126 1    
    25   12   13 ar   
    26   12  137 1    
    27   13   14 ar   
    28   13   15 1    
    29   14  138 1    
    30   15   16 1    
    31   15  139 1    
    32   15  140 1    
    33   16   17 1    
    34   17   18 1    
    35   17  141 1    
    36   17  142 1    
    37   18   19 1    
    38   18   67 1    
    39   18  143 1    
    40   19   20 am   BACKBONE|DICT|INTERRES
    41   19  144 1    
    42   20   21 2    
    43   20   22 1    
    44   22   23 1    
    45   22   24 1    
    46   22  145 1    
    47   23  146 1    
    48   23  147 1    
    49   23  148 1    
    50   24   25 am   BACKBONE|DICT|INTERRES
    51   24  149 1    
    52   25   26 2    
    53   25   27 1    
    54   27   28 1    
    55   27   29 1    
    56   27  150 1    
    57   28  151 1    
    58   28  152 1    
    59   28  153 1    
    60   29   30 am   BACKBONE|DICT|INTERRES
    61   29  154 1    
    62   30   31 2    
    63   30   32 1    
    64   32   33 1    
    65   32   34 1    
    66   32  155 1    
    67   33  156 1    
    68   33  157 1    
    69   33  158 1    
    70   34   35 am   BACKBONE|DICT|INTERRES
    71   34  159 1    
    72   35   36 2    
    73   35   37 1    
    74   37   38 1    
    75   37   39 1    
    76   37  160 1    
    77   38  161 1    
    78   38  162 1    
    79   38  163 1    
    80   39   40 am   BACKBONE|DICT|INTERRES
    81   39  164 1    
    82   40   41 2    
    83   40   42 1    
    84   42   43 1    
    85   42   44 1    
    86   42  165 1    
    87   43  166 1    
    88   43  167 1    
    89   43  168 1    
    90   44   45 am   BACKBONE|DICT|INTERRES
    91   44  169 1    
    92   45   46 2    
    93   45   47 1    
    94   47   48 1    
    95   47   49 1    
    96   47  170 1    
    97   48  171 1    
    98   48  172 1    
    99   48  173 1    
   100   49   50 am   BACKBONE|DICT|INTERRES
   101   49  174 1    
   102   50   51 2    
   103   50   52 1    
   104   52   53 1    
   105   52   54 1    
   106   52  175 1    
   107   53  176 1    
   108   53  177 1    
   109   53  178 1    
   110   54   55 am   BACKBONE|DICT|INTERRES
   111   54  179 1    
   112   55   56 2    
   113   55   57 1    
   114   57   58 1    
   115   57   59 1    
   116   57  180 1    
   117   58  181 1    
   118   58  182 1    
   119   58  183 1    
   120   59   60 am   BACKBONE|DICT|INTERRES
   121   59  184 1    
   122   60   61 2    
   123   60   62 1    
   124   62   63 1    
   125   62   64 1    
   126   62  185 1    
   127   63  186 1    
   128   63  187 1    
   129   63  188 1    
   130   64   65 am   BACKBONE|DICT|INTERRES
   131   64  189 1    
   132   65   66 2    
   133   67   68 2    
   134   67   69 am   BACKBONE|DICT|INTERRES
   135   69   70 1    
   136   69  190 1    
   137   70   71 1    
   138   70   72 1    
   139   70  191 1    
   140   71  192 1    
   141   71  193 1    
   142   71  194 1    
   143   72   73 2    
   144   72   74 am   BACKBONE|DICT|INTERRES
   145   74   75 1    
   146   74  195 1    
   147   75   76 1    
   148   75   77 1    
   149   75  196 1    
   150   76  197 1    
   151   76  198 1    
   152   76  199 1    
   153   77   78 2    
   154   77   79 am   BACKBONE|DICT|INTERRES
   155   79   80 1    
   156   79  200 1    
   157   80   81 1    
   158   80   82 1    
   159   80  201 1    
   160   81  202 1    
   161   81  203 1    
   162   81  204 1    
   163   82   83 2    
   164   82   84 am   BACKBONE|DICT|INTERRES
   165   84   85 1    
   166   84  205 1    
   167   85   86 1    
   168   85   87 1    
   169   85  206 1    
   170   86  207 1    
   171   86  208 1    
   172   86  209 1    
   173   87   88 2    
   174   87   89 am   BACKBONE|DICT|INTERRES
   175   89   90 1    
   176   89  210 1    
   177   90   91 1    
   178   90   92 1    
   179   90  211 1    
   180   91  212 1    
   181   91  213 1    
   182   91  214 1    
   183   92   93 2    
   184   92   94 am   BACKBONE|DICT|INTERRES
   185   94   95 1    
   186   94  215 1    
   187   95   96 1    
   188   95   97 1    
   189   95  216 1    
   190   96  217 1    
   191   96  218 1    
   192   96  219 1    
   193   97   98 2    
   194   97   99 am   BACKBONE|DICT|INTERRES
   195   99  100 1    
   196   99  220 1    
   197  100  101 1    
   198  100  102 1    
   199  100  221 1    
   200  101  222 1    
   201  101  223 1    
   202  101  224 1    
   203  102  103 2    
   204  102  104 am   BACKBONE|DICT|INTERRES
   205  104  105 1    
   206  104  225 1    
   207  105  106 1    
   208  105  107 1    
   209  105  226 1    
   210  106  227 1    
   211  106  228 1    
   212  106  229 1    
   213  107  108 2    
   214  107  109 am   BACKBONE|DICT|INTERRES
   215  109  110 1    
   216  109  230 1    
   217  110  111 1    
   218  110  112 1    
   219  110  231 1    
   220  111  232 1    
   221  111  233 1    
   222  111  234 1    
   223  112  113 2    
   224  112  114 am   BACKBONE|DICT|INTERRES
   225  114  115 1    
   226  114  235 1    
   227  115  116 1    
   228  115  117 1    
   229  115  236 1    
   230  116  237 1    
   231  116  238 1    
   232  116  239 1    
   233  117  118 2    
   234  117  119 am   BACKBONE|DICT|INTERRES
   235  119  120 1    
   236  119  240 1    
   237  120  121 1    
   238  120  124 1    
   239  120  241 1    
   240  121  122 am   BACKBONE|DICT|INTERRES
   241  121  123 2    
   242  122  242 1    
   243  122  243 1    
   244  124  125 1    
   245  124  244 1    
   246  124  245 1    
   247  125  126 1    
   248  126  246 1    
   249  126  247 1    
@<TRIPOS>SUBSTRUCTURE
     1 UNK         1 GROUP             0       ****    0 ROOT    
