@<TRIPOS>MOLECULE
3R540
247   249    1
SMALL
USER_CHARGES


@<TRIPOS>ATOM
      1 CA         -0.1536  -10.0740  -47.4468 C.3       0 UNK        -0.1800 
      2 C           0.8002  -10.7235  -46.4562 C.2       0 UNK         0.5000 
      3 O           1.1114  -10.1298  -45.4234 O.2       0 UNK        -0.5000 
      4 N           1.2509  -11.9514  -46.7477 N.am      1 UNK        -0.5000 
      5 CA          2.2040  -12.7206  -45.9342 C.3       1 UNK         0.1400 
      6 C6          2.6994  -13.9958  -46.6680 C.3       23 UNK        -0.0398 
      7 S7          1.5033  -15.3768  -46.7538 S.3       23 UNK        -0.2404 
      8 C8          0.6486  -15.0616  -48.3287 C.3       23 UNK        -0.0205 
      9 C9         -0.4373  -16.0981  -48.5727 C.ar      23 UNK        -0.0193 
     10 C10        -0.3693  -16.9564  -49.6752 C.ar      23 UNK        -0.1150 
     11 C11        -1.3628  -17.9177  -49.8852 C.ar      23 UNK        -0.0193 
     12 C12        -2.4169  -18.0285  -48.9759 C.ar      23 UNK        -0.1150 
     13 C13        -2.4915  -17.1824  -47.8663 C.ar      23 UNK        -0.0193 
     14 C14        -1.5121  -16.2034  -47.6841 C.ar      23 UNK        -0.1150 
     15 C15        -3.6176  -17.3461  -46.8545 C.3       23 UNK        -0.0205 
     16 S16        -3.0356  -17.8070  -45.1826 S.3       23 UNK        -0.2404 
     17 C17        -1.6803  -18.9967  -45.4837 C.3       23 UNK        -0.0398 
     18 CA         -2.0910  -20.2715  -46.2608 C.3       11 UNK         0.1400 
     19 N          -0.9488  -20.8672  -46.9564 N.am      11 UNK        -0.5000 
     20 C          -1.0457  -21.7284  -47.9790 C.2       10 UNK         0.5000 
     21 O          -2.1169  -22.0690  -48.4752 O.2       10 UNK        -0.5000 
     22 CA          0.2584  -22.3420  -48.5269 C.3       10 UNK         0.1400 
     23 CB          0.7591  -21.5438  -49.7390 C.3       10 UNK        -0.1800 
     24 N           1.3251  -22.4185  -47.5304 N.am      10 UNK        -0.5000 
     25 C           1.2768  -23.1436  -46.4036 C.2       9 UNK         0.5000 
     26 O           0.3484  -23.9008  -46.1213 O.2       9 UNK        -0.5000 
     27 CA          2.4215  -22.9223  -45.3933 C.3       9 UNK         0.1400 
     28 CB          3.5231  -23.9736  -45.5899 C.3       9 UNK        -0.1800 
     29 N           3.0119  -21.5787  -45.4700 N.am      9 UNK        -0.5000 
     30 C           2.3391  -20.4392  -45.2570 C.2       8 UNK         0.5000 
     31 O           1.1453  -20.4042  -44.9471 O.2       8 UNK        -0.5000 
     32 CA          3.0988  -19.1311  -45.5365 C.3       8 UNK         0.1400 
     33 CB          3.0854  -18.8294  -47.0445 C.3       8 UNK        -0.1800 
     34 N           2.4860  -18.0033  -44.8408 N.am      8 UNK        -0.5000 
     35 C           2.6082  -17.7507  -43.5340 C.2       7 UNK         0.5000 
     36 O           3.3407  -18.3946  -42.7791 O.2       7 UNK        -0.5000 
     37 CA          1.7609  -16.5747  -43.0146 C.3       7 UNK         0.1400 
     38 CB          0.2919  -16.9966  -42.8040 C.3       7 UNK        -0.1800 
     39 N           2.3371  -15.9322  -41.8279 N.am      7 UNK        -0.5000 
     40 C           2.3525  -16.3655  -40.5582 C.2       6 UNK         0.5000 
     41 O           1.7654  -17.3761  -40.1686 O.2       6 UNK        -0.5000 
     42 CA          3.1654  -15.5355  -39.5373 C.3       6 UNK         0.1400 
     43 CB          4.0508  -16.4407  -38.6624 C.3       6 UNK        -0.1800 
     44 N           4.0215  -14.5146  -40.1510 N.am      6 UNK        -0.5000 
     45 C           3.6395  -13.2769  -40.4880 C.2       5 UNK         0.5000 
     46 O           2.4933  -12.8549  -40.3250 O.2       5 UNK        -0.5000 
     47 CA          4.7172  -12.3662  -41.1064 C.3       5 UNK         0.1400 
     48 CB          5.7029  -13.1216  -42.0236 C.3       5 UNK        -0.1800 
     49 N           4.0754  -11.2967  -41.8626 N.am      5 UNK        -0.5000 
     50 C           4.5620  -10.0647  -42.0423 C.2       4 UNK         0.5000 
     51 O           5.6286   -9.6758  -41.5639 O.2       4 UNK        -0.5000 
     52 CA          3.7320   -9.1014  -42.9128 C.3       4 UNK         0.1400 
     53 CB          4.2433   -9.1183  -44.3615 C.3       4 UNK        -0.1800 
     54 N           2.2989   -9.3978  -42.9170 N.am      4 UNK        -0.5000 
     55 C           1.4665   -9.1674  -41.8916 C.2       3 UNK         0.5000 
     56 O           1.8224   -8.6853  -40.8157 O.2       3 UNK        -0.5000 
     57 CA         -0.0087   -9.5437  -42.1035 C.3       3 UNK         0.1400 
     58 CB         -0.7349   -8.4638  -42.9217 C.3       3 UNK        -0.1800 
     59 N          -0.1139  -10.8285  -42.7932 N.am      3 UNK        -0.5000 
     60 C          -0.3782  -11.9954  -42.1900 C.2       2 UNK         0.5000 
     61 O          -0.6847  -12.0937  -41.0014 O.2       2 UNK        -0.5000 
     62 CA         -0.3044  -13.2740  -43.0483 C.3       2 UNK         0.1400 
     63 CB         -1.7097  -13.8345  -43.3197 C.3       2 UNK        -0.1800 
     64 N           0.3717  -13.0793  -44.3304 N.am      2 UNK        -0.5000 
     65 C           1.6989  -13.0164  -44.5026 C.2       1 UNK         0.5000 
     66 O           2.5112  -13.1615  -43.5910 O.2       1 UNK        -0.5000 
     67 C          -2.7833  -21.3067  -45.3563 C.2       11 UNK         0.5000 
     68 O          -4.0107  -21.3999  -45.3693 O.2       11 UNK        -0.5000 
     69 N          -1.9842  -22.1162  -44.6445 N.am      12 UNK        -0.5000 
     70 CA         -2.4571  -23.2357  -43.8248 C.3       12 UNK         0.1400 
     71 CB         -1.2965  -23.7757  -42.9755 C.3       12 UNK        -0.1800 
     72 C          -3.0940  -24.3575  -44.6690 C.2       12 UNK         0.5000 
     73 O          -4.0785  -24.9600  -44.2411 O.2       12 UNK        -0.5000 
     74 N          -2.5486  -24.5799  -45.8724 N.am      13 UNK        -0.5000 
     75 CA         -3.0784  -25.4959  -46.8844 C.3       13 UNK         0.1400 
     76 CB         -1.9459  -25.8522  -47.8607 C.3       13 UNK        -0.1800 
     77 C          -4.2918  -24.9357  -47.6582 C.2       13 UNK         0.5000 
     78 O          -4.8570  -25.6608  -48.4782 O.2       13 UNK        -0.5000 
     79 N          -4.6492  -23.6617  -47.4303 N.am      14 UNK        -0.5000 
     80 CA         -5.7227  -22.9073  -48.0878 C.3       14 UNK         0.1400 
     81 CB         -7.1023  -23.4511  -47.6624 C.3       14 UNK        -0.1800 
     82 C          -5.5468  -22.8457  -49.6194 C.2       14 UNK         0.5000 
     83 O          -6.4871  -23.1219  -50.3655 O.2       14 UNK        -0.5000 
     84 N          -4.3168  -22.5381  -50.0561 N.am      15 UNK        -0.5000 
     85 CA         -3.8459  -22.5200  -51.4446 C.3       15 UNK         0.1400 
     86 CB         -4.5325  -21.3904  -52.2351 C.3       15 UNK        -0.1800 
     87 C          -3.9600  -23.9032  -52.1204 C.2       15 UNK         0.5000 
     88 O          -4.3277  -23.9940  -53.2944 O.2       15 UNK        -0.5000 
     89 N          -3.6647  -24.9506  -51.3341 N.am      16 UNK        -0.5000 
     90 CA         -3.8297  -26.3772  -51.6319 C.3       16 UNK         0.1400 
     91 CB         -2.8735  -26.8204  -52.7575 C.3       16 UNK        -0.1800 
     92 C          -5.3039  -26.7197  -51.9193 C.2       16 UNK         0.5000 
     93 O          -5.6141  -27.2915  -52.9635 O.2       16 UNK        -0.5000 
     94 N          -6.1942  -26.2939  -51.0106 N.am      17 UNK        -0.5000 
     95 CA         -7.6583  -26.3248  -51.1350 C.3       17 UNK         0.1400 
     96 CB         -8.1807  -27.7704  -51.0083 C.3       17 UNK        -0.1800 
     97 C          -8.1502  -25.6112  -52.4161 C.2       17 UNK         0.5000 
     98 O          -9.0022  -26.1318  -53.1381 O.2       17 UNK        -0.5000 
     99 N          -7.5477  -24.4448  -52.6842 N.am      18 UNK        -0.5000 
    100 CA        -7.6973  -23.5781  -53.8565 C.3       18 UNK         0.1400 
    101 CB        -9.1396  -23.0418  -53.9605 C.3       18 UNK        -0.1800 
    102 C         -7.2003  -24.1729  -55.1940 C.2       18 UNK         0.5000 
    103 O         -7.3858  -23.5282  -56.2275 O.2       18 UNK        -0.5000 
    104 N         -6.5683  -25.3567  -55.1847 N.am      19 UNK        -0.5000 
    105 CA        -6.0842  -26.0259  -56.3948 C.3       19 UNK         0.1400 
    106 CB        -5.8915  -27.5254  -56.1251 C.3       19 UNK        -0.1800 
    107 C         -4.7860  -25.4119  -56.9473 C.2       19 UNK         0.5000 
    108 O         -4.6007  -25.4048  -58.1653 O.2       19 UNK        -0.5000 
    109 N         -3.9121  -24.9127  -56.0612 N.am      20 UNK        -0.5000 
    110 CA        -2.6552  -24.2626  -56.4415 C.3       20 UNK         0.1400 
    111 CB        -1.5968  -24.4955  -55.3518 C.3       20 UNK        -0.1800 
    112 C         -2.8409  -22.7580  -56.6934 C.2       20 UNK         0.5000 
    113 O         -2.0550  -22.1710  -57.4389 O.2       20 UNK        -0.5000 
    114 N         -3.8549  -22.1573  -56.0486 N.am      21 UNK        -0.5000 
    115 CA        -4.2612  -20.7470  -56.1476 C.3       21 UNK         0.1400 
    116 CB        -4.8958  -20.4768  -57.5268 C.3       21 UNK        -0.1800 
    117 C         -3.1331  -19.7448  -55.8041 C.2       21 UNK         0.5000 
    118 O         -3.1175  -18.6290  -56.3265 O.2       21 UNK        -0.5000 
    119 N         -2.2022  -20.1806  -54.9436 N.am      22 UNK        -0.5000 
    120 CA        -0.9655  -19.4835  -54.5484 C.3       22 UNK         0.1400 
    121 C          0.1004  -19.3708  -55.6830 C.2       22 UNK         0.5000 
    122 N         -0.0088  -20.1122  -56.7802 N.am      22 UNK        -0.7600 
    123 O          1.0662  -18.6227  -55.5571 O.2       22 UNK        -0.5000 
    124 C124       -1.2087  -18.1281  -53.8220 C.3       23 UNK        -0.0398 
    125 S125       -2.3790  -18.2553  -52.4268 S.3       23 UNK        -0.2404 
    126 C126       -1.3032  -18.8477  -51.0846 C.3       23 UNK        -0.0205 
    127 H127        0.2752   -9.1457  -47.8239 H         1 UNK         0.0600 
    128 H128       -1.0987   -9.8400  -46.9571 H         1 UNK         0.0600 
    129 H129       -0.3612  -10.7245  -48.2967 H         1 UNK         0.0600 
    130 H130        0.9585  -12.3877  -47.6091 H         1 UNK         0.3000 
    131 H131        3.0763  -12.0758  -45.8108 H         1 UNK         0.0600 
    132 H132        3.0338  -13.7449  -47.6756 H         1 UNK         0.0800 
    133 H133        3.5874  -14.3760  -46.1601 H         1 UNK         0.0800 
    134 H134        0.1909  -14.0728  -48.3132 H         1 UNK         0.0800 
    135 H135        1.3771  -15.0624  -49.1409 H         1 UNK         0.0800 
    136 H136        0.4541  -16.8765  -50.3709 H         1 UNK         0.1150 
    137 H137       -3.1760  -18.7820  -49.1341 H         1 UNK         0.1150 
    138 H138       -1.5654  -15.5482  -46.8257 H         1 UNK         0.1150 
    139 H139       -4.1730  -16.4098  -46.7867 H         1 UNK         0.0800 
    140 H140       -4.3334  -18.0965  -47.1933 H         1 UNK         0.0800 
    141 H141       -1.2332  -19.2546  -44.5222 H         1 UNK         0.0800 
    142 H142       -0.8954  -18.4657  -46.0238 H         1 UNK         0.0800 
    143 H143       -2.8160  -19.9941  -47.0259 H         1 UNK         0.0600 
    144 H144       -0.0392  -20.6759  -46.5527 H         1 UNK         0.3000 
    145 H145        0.0371  -23.3584  -48.8562 H         1 UNK         0.0600 
    146 H146        1.6784  -21.9700  -50.1412 H         1 UNK         0.0600 
    147 H147        0.0225  -21.5578  -50.5426 H         1 UNK         0.0600 
    148 H148        0.9548  -20.5012  -49.4838 H         1 UNK         0.0600 
    149 H149        2.1303  -21.8304  -47.6831 H         1 UNK         0.3000 
    150 H150        2.0018  -23.0465  -44.3928 H         1 UNK         0.0600 
    151 H151        3.1165  -24.9833  -45.5156 H         1 UNK         0.0600 
    152 H152        4.2979  -23.8806  -44.8287 H         1 UNK         0.0600 
    153 H153        3.9982  -23.8820  -46.5674 H         1 UNK         0.0600 
    154 H154        3.9860  -21.5318  -45.7332 H         1 UNK         0.3000 
    155 H155        4.1325  -19.2404  -45.2019 H         1 UNK         0.0600 
    156 H156        3.5671  -19.6259  -47.6126 H         1 UNK         0.0600 
    157 H157        3.6226  -17.9067  -47.2656 H         1 UNK         0.0600 
    158 H158        2.0687  -18.7207  -47.4263 H         1 UNK         0.0600 
    159 H159        1.8631  -17.4307  -45.3935 H         1 UNK         0.3000 
    160 H160        1.7730  -15.8050  -43.7841 H         1 UNK         0.0600 
    161 H161        0.2140  -17.9403  -42.2627 H         1 UNK         0.0600 
    162 H162       -0.2067  -17.1312  -43.7634 H         1 UNK         0.0600 
    163 H163       -0.2732  -16.2507  -42.2477 H         1 UNK         0.0600 
    164 H164        2.8449  -15.0796  -42.0210 H         1 UNK         0.3000 
    165 H165        2.4423  -15.0443  -38.8829 H         1 UNK         0.0600 
    166 H166        4.6023  -15.8589  -37.9236 H         1 UNK         0.0600 
    167 H167        3.4520  -17.1689  -38.1138 H         1 UNK         0.0600 
    168 H168        4.7736  -16.9952  -39.2623 H         1 UNK         0.0600 
    169 H169        4.9752  -14.7913  -40.3352 H         1 UNK         0.3000 
    170 H170        5.2722  -11.9322  -40.2724 H         1 UNK         0.0600 
    171 H171        6.2909  -13.8526  -41.4683 H         1 UNK         0.0600 
    172 H172        5.1815  -13.6484  -42.8239 H         1 UNK         0.0600 
    173 H173        6.4127  -12.4367  -42.4877 H         1 UNK         0.0600 
    174 H174        3.1810  -11.5466  -42.2683 H         1 UNK         0.3000 
    175 H175        3.8712   -8.0940  -42.5148 H         1 UNK         0.0600 
    176 H176        4.1280  -10.1028  -44.8156 H         1 UNK         0.0600 
    177 H177        3.7040   -8.3999  -44.9792 H         1 UNK         0.0600 
    178 H178        5.3014   -8.8572  -44.4065 H         1 UNK         0.0600 
    179 H179        1.9127   -9.7403  -43.7929 H         1 UNK         0.3000 
    180 H180       -0.4854   -9.5950  -41.1224 H         1 UNK         0.0600 
    181 H181       -0.3024   -8.3448  -43.9157 H         1 UNK         0.0600 
    182 H182       -0.6808   -7.4956  -42.4226 H         1 UNK         0.0600 
    183 H183       -1.7901   -8.7081  -43.0441 H         1 UNK         0.0600 
    184 H184        0.1441  -10.8312  -43.7729 H         1 UNK         0.3000 
    185 H185        0.2557  -14.0071  -42.4670 H         1 UNK         0.0600 
    186 H186       -2.3220  -13.1288  -43.8822 H         1 UNK         0.0600 
    187 H187       -1.6624  -14.7643  -43.8875 H         1 UNK         0.0600 
    188 H188       -2.2310  -14.0517  -42.3866 H         1 UNK         0.0600 
    189 H189       -0.2188  -12.9537  -45.1392 H         1 UNK         0.3000 
    190 H190       -0.9836  -21.9902  -44.7089 H         1 UNK         0.3000 
    191 H191       -3.2245  -22.8546  -43.1477 H         1 UNK         0.0600 
    192 H192       -0.4923  -24.1754  -43.5934 H         1 UNK         0.0600 
    193 H193       -0.8758  -22.9959  -42.3405 H         1 UNK         0.0600 
    194 H194       -1.6356  -24.5797  -42.3210 H         1 UNK         0.0600 
    195 H195       -1.6868  -24.0972  -46.1041 H         1 UNK         0.3000 
    196 H196       -3.4027  -26.4130  -46.3886 H         1 UNK         0.0600 
    197 H197       -1.0750  -26.2407  -47.3321 H         1 UNK         0.0600 
    198 H198       -1.6278  -24.9848  -48.4383 H         1 UNK         0.0600 
    199 H199       -2.2631  -26.6198  -48.5673 H         1 UNK         0.0600 
    200 H200       -4.1173  -23.1385  -46.7469 H         1 UNK         0.3000 
    201 H201       -5.6448  -21.8803  -47.7285 H         1 UNK         0.0600 
    202 H202       -7.9062  -22.8320  -48.0622 H         1 UNK         0.0600 
    203 H203       -7.2050  -23.4548  -46.5773 H         1 UNK         0.0600 
    204 H204       -7.2661  -24.4688  -48.0179 H         1 UNK         0.0600 
    205 H205       -3.5933  -22.3527  -49.3601 H         1 UNK         0.3000 
    206 H206       -2.7800  -22.2911  -51.4046 H         1 UNK         0.0600 
    207 H207       -4.3846  -20.4277  -51.7468 H         1 UNK         0.0600 
    208 H208       -5.6053  -21.5489  -52.3304 H         1 UNK         0.0600 
    209 H209       -4.1204  -21.3113  -53.2381 H         1 UNK         0.0600 
    210 H210       -3.4237  -24.7434  -50.3761 H         1 UNK         0.3000 
    211 H211       -3.5534  -26.9215  -50.7280 H         1 UNK         0.0600 
    212 H212       -1.8456  -26.5286  -52.5431 H         1 UNK         0.0600 
    213 H213       -2.8884  -27.9046  -52.8731 H         1 UNK         0.0600 
    214 H214       -3.1528  -26.3906  -53.7183 H         1 UNK         0.0600 
    215 H215       -5.8320  -25.8566  -50.1673 H         1 UNK         0.3000 
    216 H216       -8.0518  -25.7526  -50.2937 H         1 UNK         0.0600 
    217 H217       -9.2709  -27.7914  -50.9897 H         1 UNK         0.0600 
    218 H218       -7.8553  -28.3936  -51.8418 H         1 UNK         0.0600 
    219 H219       -7.8318  -28.2350  -50.0861 H         1 UNK         0.0600 
    220 H220       -6.9068  -24.0924  -51.9777 H         1 UNK         0.3000 
    221 H221       -7.0503  -22.7225  -53.6677 H         1 UNK         0.0600 
    222 H222       -9.8476  -23.8291  -54.2202 H         1 UNK         0.0600 
    223 H223       -9.4625  -22.5953  -53.0200 H         1 UNK         0.0600 
    224 H224       -9.2174  -22.2696  -54.7266 H         1 UNK         0.0600 
    225 H225       -6.4168  -25.8372  -54.3049 H         1 UNK         0.3000 
    226 H226       -6.8517  -25.9284  -57.1658 H         1 UNK         0.0600 
    227 H227       -6.7822  -27.9677  -55.6784 H         1 UNK         0.0600 
    228 H228       -5.6902  -28.0620  -57.0529 H         1 UNK         0.0600 
    229 H229       -5.0502  -27.7106  -55.4569 H         1 UNK         0.0600 
    230 H230       -4.1522  -24.9052  -55.0744 H         1 UNK         0.3000 
    231 H231       -2.2782  -24.7060  -57.3656 H         1 UNK         0.0600 
    232 H232       -0.6481  -24.0323  -55.6259 H         1 UNK         0.0600 
    233 H233       -1.4054  -25.5591  -55.2113 H         1 UNK         0.0600 
    234 H234       -1.8975  -24.0766  -54.3921 H         1 UNK         0.0600 
    235 H235       -4.4147  -22.7348  -55.4361 H         1 UNK         0.3000 
    236 H236       -5.0377  -20.5973  -55.3964 H         1 UNK         0.0600 
    237 H237       -5.6987  -21.1845  -57.7346 H         1 UNK         0.0600 
    238 H238       -5.3277  -19.4764  -57.5727 H         1 UNK         0.0600 
    239 H239       -4.1629  -20.5553  -58.3304 H         1 UNK         0.0600 
    240 H240       -2.3002  -21.1200  -54.5911 H         1 UNK         0.3000 
    241 H241       -0.4988  -20.1455  -53.8185 H         1 UNK         0.0600 
    242 H242        0.6948  -20.0339  -57.4971 H         1 UNK         0.3800 
    243 H243       -0.7885  -20.7480  -56.9170 H         1 UNK         0.3800 
    244 H244       -0.2710  -17.7124  -53.4498 H         1 UNK         0.0800 
    245 H245       -1.6001  -17.3895  -54.5224 H         1 UNK         0.0800 
    246 H246       -0.2737  -18.9591  -51.4274 H         1 UNK         0.0800 
    247 H247       -1.6367  -19.8436  -50.7902 H         1 UNK         0.0800 
@<TRIPOS>BOND
     1    1    2 1    
     2    1  127 1    
     3    1  128 1    
     4    1  129 1    
     5    2    3 2    
     6    2    4 am   BACKBONE|DICT|INTERRES
     7    4    5 1    
     8    4  130 1    
     9    5    6 1    
    10    5   65 1    
    11    5  131 1    
    12    6    7 1    
    13    6  132 1    
    14    6  133 1    
    15    7    8 1    
    16    8    9 1    
    17    8  134 1    
    18    8  135 1    
    19    9   10 ar   
    20    9   14 ar   
    21   10   11 ar   
    22   10  136 1    
    23   11   12 ar   
    24   11  126 1    
    25   12   13 ar   
    26   12  137 1    
    27   13   14 ar   
    28   13   15 1    
    29   14  138 1    
    30   15   16 1    
    31   15  139 1    
    32   15  140 1    
    33   16   17 1    
    34   17   18 1    
    35   17  141 1    
    36   17  142 1    
    37   18   19 1    
    38   18   67 1    
    39   18  143 1    
    40   19   20 am   BACKBONE|DICT|INTERRES
    41   19  144 1    
    42   20   21 2    
    43   20   22 1    
    44   22   23 1    
    45   22   24 1    
    46   22  145 1    
    47   23  146 1    
    48   23  147 1    
    49   23  148 1    
    50   24   25 am   BACKBONE|DICT|INTERRES
    51   24  149 1    
    52   25   26 2    
    53   25   27 1    
    54   27   28 1    
    55   27   29 1    
    56   27  150 1    
    57   28  151 1    
    58   28  152 1    
    59   28  153 1    
    60   29   30 am   BACKBONE|DICT|INTERRES
    61   29  154 1    
    62   30   31 2    
    63   30   32 1    
    64   32   33 1    
    65   32   34 1    
    66   32  155 1    
    67   33  156 1    
    68   33  157 1    
    69   33  158 1    
    70   34   35 am   BACKBONE|DICT|INTERRES
    71   34  159 1    
    72   35   36 2    
    73   35   37 1    
    74   37   38 1    
    75   37   39 1    
    76   37  160 1    
    77   38  161 1    
    78   38  162 1    
    79   38  163 1    
    80   39   40 am   BACKBONE|DICT|INTERRES
    81   39  164 1    
    82   40   41 2    
    83   40   42 1    
    84   42   43 1    
    85   42   44 1    
    86   42  165 1    
    87   43  166 1    
    88   43  167 1    
    89   43  168 1    
    90   44   45 am   BACKBONE|DICT|INTERRES
    91   44  169 1    
    92   45   46 2    
    93   45   47 1    
    94   47   48 1    
    95   47   49 1    
    96   47  170 1    
    97   48  171 1    
    98   48  172 1    
    99   48  173 1    
   100   49   50 am   BACKBONE|DICT|INTERRES
   101   49  174 1    
   102   50   51 2    
   103   50   52 1    
   104   52   53 1    
   105   52   54 1    
   106   52  175 1    
   107   53  176 1    
   108   53  177 1    
   109   53  178 1    
   110   54   55 am   BACKBONE|DICT|INTERRES
   111   54  179 1    
   112   55   56 2    
   113   55   57 1    
   114   57   58 1    
   115   57   59 1    
   116   57  180 1    
   117   58  181 1    
   118   58  182 1    
   119   58  183 1    
   120   59   60 am   BACKBONE|DICT|INTERRES
   121   59  184 1    
   122   60   61 2    
   123   60   62 1    
   124   62   63 1    
   125   62   64 1    
   126   62  185 1    
   127   63  186 1    
   128   63  187 1    
   129   63  188 1    
   130   64   65 am   BACKBONE|DICT|INTERRES
   131   64  189 1    
   132   65   66 2    
   133   67   68 2    
   134   67   69 am   BACKBONE|DICT|INTERRES
   135   69   70 1    
   136   69  190 1    
   137   70   71 1    
   138   70   72 1    
   139   70  191 1    
   140   71  192 1    
   141   71  193 1    
   142   71  194 1    
   143   72   73 2    
   144   72   74 am   BACKBONE|DICT|INTERRES
   145   74   75 1    
   146   74  195 1    
   147   75   76 1    
   148   75   77 1    
   149   75  196 1    
   150   76  197 1    
   151   76  198 1    
   152   76  199 1    
   153   77   78 2    
   154   77   79 am   BACKBONE|DICT|INTERRES
   155   79   80 1    
   156   79  200 1    
   157   80   81 1    
   158   80   82 1    
   159   80  201 1    
   160   81  202 1    
   161   81  203 1    
   162   81  204 1    
   163   82   83 2    
   164   82   84 am   BACKBONE|DICT|INTERRES
   165   84   85 1    
   166   84  205 1    
   167   85   86 1    
   168   85   87 1    
   169   85  206 1    
   170   86  207 1    
   171   86  208 1    
   172   86  209 1    
   173   87   88 2    
   174   87   89 am   BACKBONE|DICT|INTERRES
   175   89   90 1    
   176   89  210 1    
   177   90   91 1    
   178   90   92 1    
   179   90  211 1    
   180   91  212 1    
   181   91  213 1    
   182   91  214 1    
   183   92   93 2    
   184   92   94 am   BACKBONE|DICT|INTERRES
   185   94   95 1    
   186   94  215 1    
   187   95   96 1    
   188   95   97 1    
   189   95  216 1    
   190   96  217 1    
   191   96  218 1    
   192   96  219 1    
   193   97   98 2    
   194   97   99 am   BACKBONE|DICT|INTERRES
   195   99  100 1    
   196   99  220 1    
   197  100  101 1    
   198  100  102 1    
   199  100  221 1    
   200  101  222 1    
   201  101  223 1    
   202  101  224 1    
   203  102  103 2    
   204  102  104 am   BACKBONE|DICT|INTERRES
   205  104  105 1    
   206  104  225 1    
   207  105  106 1    
   208  105  107 1    
   209  105  226 1    
   210  106  227 1    
   211  106  228 1    
   212  106  229 1    
   213  107  108 2    
   214  107  109 am   BACKBONE|DICT|INTERRES
   215  109  110 1    
   216  109  230 1    
   217  110  111 1    
   218  110  112 1    
   219  110  231 1    
   220  111  232 1    
   221  111  233 1    
   222  111  234 1    
   223  112  113 2    
   224  112  114 am   BACKBONE|DICT|INTERRES
   225  114  115 1    
   226  114  235 1    
   227  115  116 1    
   228  115  117 1    
   229  115  236 1    
   230  116  237 1    
   231  116  238 1    
   232  116  239 1    
   233  117  118 2    
   234  117  119 am   BACKBONE|DICT|INTERRES
   235  119  120 1    
   236  119  240 1    
   237  120  121 1    
   238  120  124 1    
   239  120  241 1    
   240  121  122 am   BACKBONE|DICT|INTERRES
   241  121  123 2    
   242  122  242 1    
   243  122  243 1    
   244  124  125 1    
   245  124  244 1    
   246  124  245 1    
   247  125  126 1    
   248  126  246 1    
   249  126  247 1    
@<TRIPOS>SUBSTRUCTURE
     1 UNK         1 GROUP             0       ****    0 ROOT    
