@<TRIPOS>MOLECULE
3R540
247   249    1
SMALL
USER_CHARGES


@<TRIPOS>ATOM
      1 CA          5.5575  -13.7889  -46.0386 C.3       0 UNK        -0.1800 
      2 C           6.6815  -12.9882  -46.6923 C.2       0 UNK         0.5000 
      3 O           7.3938  -12.2680  -45.9960 O.2       0 UNK        -0.5000 
      4 N           6.8823  -13.0717  -48.0150 N.am      1 UNK        -0.5000 
      5 CA          6.1075  -13.8689  -48.9794 C.3       1 UNK         0.1400 
      6 C6          6.9754  -14.3337  -50.1723 C.3       23 UNK        -0.0398 
      7 S7          8.2328  -15.5327  -49.6082 S.3       23 UNK        -0.2404 
      8 C8          7.5717  -17.1236  -50.2102 C.3       23 UNK        -0.0205 
      9 C9          6.1070  -17.3552  -49.8527 C.ar      23 UNK        -0.0193 
     10 C10         5.1523  -17.4514  -50.8709 C.ar      23 UNK        -0.1150 
     11 C11         3.8091  -17.6954  -50.5725 C.ar      23 UNK        -0.0193 
     12 C12         3.4248  -17.8207  -49.2360 C.ar      23 UNK        -0.1150 
     13 C13         4.3647  -17.7336  -48.2033 C.ar      23 UNK        -0.0193 
     14 C14         5.7080  -17.5055  -48.5194 C.ar      23 UNK        -0.1150 
     15 C15         3.9237  -17.9152  -46.7533 C.3       23 UNK        -0.0205 
     16 S16         4.2390  -19.5960  -46.1109 S.3       23 UNK        -0.2404 
     17 C17         3.6401  -20.6280  -47.4855 C.3       23 UNK        -0.0398 
     18 CA          3.1592  -22.0378  -47.0789 C.3       11 UNK         0.1400 
     19 N           1.9078  -22.0167  -46.3093 N.am      11 UNK        -0.5000 
     20 C           1.3581  -23.0927  -45.7236 C.2       10 UNK         0.5000 
     21 O           1.9008  -24.1966  -45.6765 O.2       10 UNK        -0.5000 
     22 CA         -0.0667  -22.9338  -45.1583 C.3       10 UNK         0.1400 
     23 CB         -0.0486  -22.3734  -43.7288 C.3       10 UNK        -0.1800 
     24 N          -0.9019  -22.0930  -46.0153 N.am      10 UNK        -0.5000 
     25 C          -1.3089  -22.4453  -47.2414 C.2       9 UNK         0.5000 
     26 O          -1.1087  -23.5567  -47.7279 O.2       9 UNK        -0.5000 
     27 CA         -2.0395  -21.3908  -48.0838 C.3       9 UNK         0.1400 
     28 CB         -3.5583  -21.5608  -48.0051 C.3       9 UNK        -0.1800 
     29 N          -1.6801  -20.0187  -47.7366 N.am      9 UNK        -0.5000 
     30 C          -0.5198  -19.4396  -48.0692 C.2       8 UNK         0.5000 
     31 O           0.3723  -20.0061  -48.7009 O.2       8 UNK        -0.5000 
     32 CA         -0.3188  -17.9979  -47.5659 C.3       8 UNK         0.1400 
     33 CB         -1.0396  -16.9987  -48.4809 C.3       8 UNK        -0.1800 
     34 N          -0.7898  -17.7998  -46.1974 N.am      8 UNK        -0.5000 
     35 C          -0.3423  -18.4612  -45.1222 C.2       7 UNK         0.5000 
     36 O           0.5790  -19.2768  -45.1564 O.2       7 UNK        -0.5000 
     37 CA         -1.1103  -18.2196  -43.8094 C.3       7 UNK         0.1400 
     38 CB         -0.6502  -16.9169  -43.1375 C.3       7 UNK        -0.1800 
     39 N          -2.5625  -18.1826  -44.0149 N.am      7 UNK        -0.5000 
     40 C          -3.3019  -19.2126  -44.4497 C.2       6 UNK         0.5000 
     41 O          -2.8365  -20.3265  -44.6847 O.2       6 UNK        -0.5000 
     42 CA         -4.7893  -18.9518  -44.7516 C.3       6 UNK         0.1400 
     43 CB         -5.6549  -19.0223  -43.4792 C.3       6 UNK        -0.1800 
     44 N          -5.0133  -17.7241  -45.5266 N.am      6 UNK        -0.5000 
     45 C          -4.9251  -16.4531  -45.1167 C.2       5 UNK         0.5000 
     46 O          -4.7030  -16.1146  -43.9519 O.2       5 UNK        -0.5000 
     47 CA         -5.0677  -15.3805  -46.2157 C.3       5 UNK         0.1400 
     48 CB         -6.5210  -14.8949  -46.3138 C.3       5 UNK        -0.1800 
     49 N          -4.1909  -14.2306  -45.9843 N.am      5 UNK        -0.5000 
     50 C          -2.8603  -14.3029  -45.8496 C.2       4 UNK         0.5000 
     51 O          -2.2198  -15.3508  -45.9731 O.2       4 UNK        -0.5000 
     52 CA         -2.1436  -12.9945  -45.4668 C.3       4 UNK         0.1400 
     53 CB         -2.4280  -12.6379  -43.9983 C.3       4 UNK        -0.1800 
     54 N          -0.6965  -13.1028  -45.6398 N.am      4 UNK        -0.5000 
     55 C          -0.0628  -13.0977  -46.8172 C.2       3 UNK         0.5000 
     56 O          -0.6164  -12.8982  -47.9017 O.2       3 UNK        -0.5000 
     57 CA          1.4432  -13.4024  -46.7548 C.3       3 UNK         0.1400 
     58 CB          1.6982  -14.9183  -46.7711 C.3       3 UNK        -0.1800 
     59 N           2.1836  -12.7976  -47.8566 N.am      3 UNK        -0.5000 
     60 C           2.4762  -11.4984  -47.9826 C.2       2 UNK         0.5000 
     61 O           2.1160  -10.6370  -47.1781 O.2       2 UNK        -0.5000 
     62 CA          3.3946  -11.1308  -49.1704 C.3       2 UNK         0.1400 
     63 CB          3.7089   -9.6256  -49.2407 C.3       2 UNK        -0.1800 
     64 N           4.6551  -11.8736  -49.0809 N.am      2 UNK        -0.5000 
     65 C           4.8228  -13.1533  -49.4442 C.2       1 UNK         0.5000 
     66 O           3.9644  -13.7920  -50.0524 O.2       1 UNK        -0.5000 
     67 C           3.0203  -22.8908  -48.3569 C.2       11 UNK         0.5000 
     68 O           3.8968  -23.7069  -48.6435 O.2       11 UNK        -0.5000 
     69 N           1.9265  -22.6765  -49.1036 N.am      12 UNK        -0.5000 
     70 CA          1.6462  -23.3423  -50.3794 C.3       12 UNK         0.1400 
     71 CB          0.5375  -22.5662  -51.1076 C.3       12 UNK        -0.1800 
     72 C           1.2604  -24.8306  -50.2469 C.2       12 UNK         0.5000 
     73 O           1.2313  -25.5305  -51.2598 O.2       12 UNK        -0.5000 
     74 N           0.9525  -25.2748  -49.0189 N.am      13 UNK        -0.5000 
     75 CA          0.4258  -26.5922  -48.6476 C.3       13 UNK         0.1400 
     76 CB          1.4388  -27.7134  -48.9589 C.3       13 UNK        -0.1800 
     77 C          -0.9757  -26.8475  -49.2426 C.2       13 UNK         0.5000 
     78 O          -1.3062  -27.9762  -49.6087 O.2       13 UNK        -0.5000 
     79 N          -1.7850  -25.7833  -49.3029 N.am      14 UNK        -0.5000 
     80 CA         -3.1515  -25.7602  -49.8194 C.3       14 UNK         0.1400 
     81 CB         -3.3263  -24.5054  -50.6944 C.3       14 UNK        -0.1800 
     82 C          -4.1647  -25.8291  -48.6602 C.2       14 UNK         0.5000 
     83 O          -5.1268  -25.0604  -48.6272 O.2       14 UNK        -0.5000 
     84 N          -3.8999  -26.7283  -47.6988 N.am      15 UNK        -0.5000 
     85 CA         -4.7192  -27.0671  -46.5244 C.3       15 UNK         0.1400 
     86 CB         -6.0124  -27.7764  -46.9771 C.3       15 UNK        -0.1800 
     87 C          -5.0162  -25.8880  -45.5689 C.2       15 UNK         0.5000 
     88 O          -5.9461  -25.9793  -44.7659 O.2       15 UNK        -0.5000 
     89 N          -4.2377  -24.8005  -45.6838 N.am      16 UNK        -0.5000 
     90 CA         -4.4349  -23.5008  -45.0315 C.3       16 UNK         0.1400 
     91 CB         -4.1879  -23.5977  -43.5125 C.3       16 UNK        -0.1800 
     92 C          -5.7877  -22.8382  -45.3891 C.2       16 UNK         0.5000 
     93 O          -6.3461  -22.1050  -44.5726 O.2       16 UNK        -0.5000 
     94 N          -6.2999  -23.1059  -46.6004 N.am      17 UNK        -0.5000 
     95 CA         -7.5530  -22.5540  -47.1088 C.3       17 UNK         0.1400 
     96 CB         -8.0115  -23.3726  -48.3244 C.3       17 UNK        -0.1800 
     97 C          -7.4047  -21.0674  -47.4755 C.2       17 UNK         0.5000 
     98 O          -6.5911  -20.7235  -48.3368 O.2       17 UNK        -0.5000 
     99 N          -8.2189  -20.2122  -46.8443 N.am      18 UNK        -0.5000 
    100 CA        -8.2273  -18.7595  -47.0427 C.3       18 UNK         0.1400 
    101 CB        -9.1895  -18.1176  -46.0323 C.3       18 UNK        -0.1800 
    102 C         -8.5701  -18.3202  -48.4786 C.2       18 UNK         0.5000 
    103 O         -8.0734  -17.2889  -48.9310 O.2       18 UNK        -0.5000 
    104 N         -9.3905  -19.1218  -49.1696 N.am      19 UNK        -0.5000 
    105 CA        -9.7778  -18.9103  -50.5633 C.3       19 UNK         0.1400 
    106 CB       -11.0571  -19.7133  -50.8464 C.3       19 UNK        -0.1800 
    107 C         -8.6740  -19.2902  -51.5704 C.2       19 UNK         0.5000 
    108 O         -8.6983  -18.7886  -52.6951 O.2       19 UNK        -0.5000 
    109 N         -7.7477  -20.1757  -51.1741 N.am      20 UNK        -0.5000 
    110 CA        -6.6622  -20.6548  -52.0290 C.3       20 UNK         0.1400 
    111 CB        -6.2261  -22.0602  -51.5825 C.3       20 UNK        -0.1800 
    112 C         -5.4717  -19.6858  -52.0197 C.2       20 UNK         0.5000 
    113 O         -5.0060  -19.2825  -53.0879 O.2       20 UNK        -0.5000 
    114 N         -5.0033  -19.3384  -50.8104 N.am      21 UNK        -0.5000 
    115 CA        -3.8050  -18.5347  -50.5415 C.3       21 UNK         0.1400 
    116 CB        -4.0896  -17.0449  -50.8341 C.3       21 UNK        -0.1800 
    117 C         -2.5563  -19.1016  -51.2626 C.2       21 UNK         0.5000 
    118 O         -2.3528  -20.3155  -51.2353 O.2       21 UNK        -0.5000 
    119 N         -1.7626  -18.2408  -51.9130 N.am      22 UNK        -0.5000 
    120 CA        -0.6262  -18.6376  -52.7653 C.3       22 UNK         0.1400 
    121 C         -1.0300  -19.3067  -54.1182 C.2       22 UNK         0.5000 
    122 N         -2.3054  -19.4316  -54.4687 N.am      22 UNK        -0.7600 
    123 O         -0.1593  -19.7321  -54.8723 O.2       22 UNK        -0.5000 
    124 C124        0.3603  -17.4601  -53.0042 C.3       23 UNK        -0.0398 
    125 S125        1.2615  -16.9448  -51.5012 S.3       23 UNK        -0.2404 
    126 C126        2.8004  -17.9047  -51.6987 C.3       23 UNK        -0.0205 
    127 H127        5.4979  -13.5656  -44.9732 H         1 UNK         0.0600 
    128 H128        5.7323  -14.8596  -46.1442 H         1 UNK         0.0600 
    129 H129        4.5946  -13.5412  -46.4812 H         1 UNK         0.0600 
    130 H130        7.6489  -12.5487  -48.4142 H         1 UNK         0.3000 
    131 H131        5.7541  -14.7687  -48.4770 H         1 UNK         0.0600 
    132 H132        7.4782  -13.4853  -50.6389 H         1 UNK         0.0800 
    133 H133        6.3687  -14.7916  -50.9554 H         1 UNK         0.0800 
    134 H134        8.1703  -17.9332  -49.7907 H         1 UNK         0.0800 
    135 H135        7.7158  -17.1705  -51.2908 H         1 UNK         0.0800 
    136 H136        5.4608  -17.3602  -51.9029 H         1 UNK         0.1150 
    137 H137        2.3904  -18.0244  -49.0098 H         1 UNK         0.1150 
    138 H138        6.4436  -17.4470  -47.7293 H         1 UNK         0.1150 
    139 H139        4.4403  -17.1926  -46.1203 H         1 UNK         0.0800 
    140 H140        2.8605  -17.7001  -46.6489 H         1 UNK         0.0800 
    141 H141        4.4596  -20.6867  -48.2055 H         1 UNK         0.0800 
    142 H142        2.8279  -20.1086  -47.9895 H         1 UNK         0.0800 
    143 H143        3.9296  -22.4991  -46.4572 H         1 UNK         0.0600 
    144 H144        1.4154  -21.1330  -46.2613 H         1 UNK         0.3000 
    145 H145       -0.5222  -23.9259  -45.1199 H         1 UNK         0.0600 
    146 H146       -1.0597  -22.2590  -43.3372 H         1 UNK         0.0600 
    147 H147        0.4875  -23.0448  -43.0572 H         1 UNK         0.0600 
    148 H148        0.4426  -21.4025  -43.6772 H         1 UNK         0.0600 
    149 H149       -1.1722  -21.1886  -45.6474 H         1 UNK         0.3000 
    150 H150       -1.7445  -21.5743  -49.1157 H         1 UNK         0.0600 
    151 H151       -3.8493  -22.6091  -48.0658 H         1 UNK         0.0600 
    152 H152       -4.0393  -21.0537  -48.8383 H         1 UNK         0.0600 
    153 H153       -3.9686  -21.1516  -47.0838 H         1 UNK         0.0600 
    154 H154       -2.3249  -19.5077  -47.1543 H         1 UNK         0.3000 
    155 H155        0.7470  -17.7812  -47.5838 H         1 UNK         0.0600 
    156 H156       -2.1221  -17.0763  -48.3853 H         1 UNK         0.0600 
    157 H157       -0.7852  -17.1652  -49.5252 H         1 UNK         0.0600 
    158 H158       -0.7657  -15.9717  -48.2424 H         1 UNK         0.0600 
    159 H159       -1.4867  -17.0702  -46.0626 H         1 UNK         0.3000 
    160 H160       -0.8873  -19.0502  -43.1367 H         1 UNK         0.0600 
    161 H161       -0.8694  -16.0433  -43.7518 H         1 UNK         0.0600 
    162 H162        0.4256  -16.9300  -42.9582 H         1 UNK         0.0600 
    163 H163       -1.1390  -16.7780  -42.1731 H         1 UNK         0.0600 
    164 H164       -3.0306  -17.2945  -43.8682 H         1 UNK         0.3000 
    165 H165       -5.1198  -19.7620  -45.4026 H         1 UNK         0.0600 
    166 H166       -5.3679  -18.2774  -42.7374 H         1 UNK         0.0600 
    167 H167       -6.7097  -18.8799  -43.7130 H         1 UNK         0.0600 
    168 H168       -5.5578  -19.9985  -43.0030 H         1 UNK         0.0600 
    169 H169       -5.1671  -17.8789  -46.5122 H         1 UNK         0.3000 
    170 H170       -4.7824  -15.8195  -47.1742 H         1 UNK         0.0600 
    171 H171       -6.8571  -14.4390  -45.3815 H         1 UNK         0.0600 
    172 H172       -6.6401  -14.1606  -47.1106 H         1 UNK         0.0600 
    173 H173       -7.1943  -15.7225  -46.5370 H         1 UNK         0.0600 
    174 H174       -4.6485  -13.3438  -45.8335 H         1 UNK         0.3000 
    175 H175       -2.5175  -12.1928  -46.1071 H         1 UNK         0.0600 
    176 H176       -2.0915  -13.4246  -43.3215 H         1 UNK         0.0600 
    177 H177       -1.9279  -11.7122  -43.7126 H         1 UNK         0.0600 
    178 H178       -3.4951  -12.4934  -43.8253 H         1 UNK         0.0600 
    179 H179       -0.1689  -13.3125  -44.8057 H         1 UNK         0.3000 
    180 H180        1.8357  -12.9982  -45.8190 H         1 UNK         0.0600 
    181 H181        2.7437  -15.1412  -46.5620 H         1 UNK         0.0600 
    182 H182        1.4562  -15.3544  -47.7404 H         1 UNK         0.0600 
    183 H183        1.1002  -15.4322  -46.0171 H         1 UNK         0.0600 
    184 H184        2.5032  -13.4235  -48.5867 H         1 UNK         0.3000 
    185 H185        2.8722  -11.4066  -50.0890 H         1 UNK         0.0600 
    186 H186        4.3289   -9.3935  -50.1068 H         1 UNK         0.0600 
    187 H187        2.7938   -9.0392  -49.3313 H         1 UNK         0.0600 
    188 H188        4.2352   -9.2804  -48.3498 H         1 UNK         0.0600 
    189 H189        5.3967  -11.4320  -48.5562 H         1 UNK         0.3000 
    190 H190        1.2778  -21.9493  -48.8234 H         1 UNK         0.3000 
    191 H191        2.5503  -23.2930  -50.9897 H         1 UNK         0.0600 
    192 H192        0.4007  -22.9405  -52.1227 H         1 UNK         0.0600 
    193 H193        0.7745  -21.5048  -51.1820 H         1 UNK         0.0600 
    194 H194       -0.4201  -22.6625  -50.5973 H         1 UNK         0.0600 
    195 H195        0.9681  -24.5932  -48.2722 H         1 UNK         0.3000 
    196 H196        0.2920  -26.5646  -47.5652 H         1 UNK         0.0600 
    197 H197        1.5676  -27.8614  -50.0313 H         1 UNK         0.0600 
    198 H198        2.4161  -27.4907  -48.5305 H         1 UNK         0.0600 
    199 H199        1.1092  -28.6636  -48.5374 H         1 UNK         0.0600 
    200 H200       -1.4528  -24.9151  -48.8870 H         1 UNK         0.3000 
    201 H201       -3.3294  -26.6330  -50.4506 H         1 UNK         0.0600 
    202 H202       -4.3282  -24.4620  -51.1225 H         1 UNK         0.0600 
    203 H203       -3.1687  -23.5883  -50.1277 H         1 UNK         0.0600 
    204 H204       -2.6197  -24.5052  -51.5245 H         1 UNK         0.0600 
    205 H205       -3.0681  -27.2899  -47.8182 H         1 UNK         0.3000 
    206 H206       -4.1355  -27.7822  -45.9433 H         1 UNK         0.0600 
    207 H207       -5.7919  -28.6176  -47.6343 H         1 UNK         0.0600 
    208 H208       -6.5660  -28.1718  -46.1247 H         1 UNK         0.0600 
    209 H209       -6.6773  -27.0976  -47.5127 H         1 UNK         0.0600 
    210 H210       -3.5029  -24.8379  -46.3755 H         1 UNK         0.3000 
    211 H211       -3.6646  -22.8436  -45.4305 H         1 UNK         0.0600 
    212 H212       -4.1791  -22.6066  -43.0570 H         1 UNK         0.0600 
    213 H213       -3.2229  -24.0575  -43.2995 H         1 UNK         0.0600 
    214 H214       -4.9593  -24.1824  -43.0111 H         1 UNK         0.0600 
    215 H215       -5.7975  -23.7232  -47.2302 H         1 UNK         0.3000 
    216 H216       -8.3132  -22.6560  -46.3315 H         1 UNK         0.0600 
    217 H217       -7.2693  -23.3585  -49.1222 H         1 UNK         0.0600 
    218 H218       -8.9443  -22.9831  -48.7339 H         1 UNK         0.0600 
    219 H219       -8.1832  -24.4145  -48.0532 H         1 UNK         0.0600 
    220 H220       -8.8554  -20.5711  -46.1470 H         1 UNK         0.3000 
    221 H221       -7.2231  -18.3949  -46.8342 H         1 UNK         0.0600 
    222 H222       -8.8763  -18.3181  -45.0076 H         1 UNK         0.0600 
    223 H223      -10.2068  -18.4919  -46.1528 H         1 UNK         0.0600 
    224 H224       -9.2242  -17.0343  -46.1532 H         1 UNK         0.0600 
    225 H225       -9.7577  -19.9436  -48.7131 H         1 UNK         0.3000 
    226 H226      -10.0030  -17.8511  -50.7056 H         1 UNK         0.0600 
    227 H227      -10.8987  -20.7841  -50.7120 H         1 UNK         0.0600 
    228 H228      -11.8692  -19.4076  -50.1865 H         1 UNK         0.0600 
    229 H229      -11.3976  -19.5581  -51.8711 H         1 UNK         0.0600 
    230 H230       -7.7456  -20.4923  -50.2138 H         1 UNK         0.3000 
    231 H231       -7.0235  -20.7350  -53.0567 H         1 UNK         0.0600 
    232 H232       -5.8242  -22.0641  -50.5689 H         1 UNK         0.0600 
    233 H233       -5.4473  -22.4487  -52.2399 H         1 UNK         0.0600 
    234 H234       -7.0594  -22.7620  -51.6164 H         1 UNK         0.0600 
    235 H235       -5.4554  -19.7446  -49.9997 H         1 UNK         0.3000 
    236 H236       -3.6097  -18.6325  -49.4739 H         1 UNK         0.0600 
    237 H237       -4.2720  -16.8653  -51.8943 H         1 UNK         0.0600 
    238 H238       -4.9705  -16.7054  -50.2885 H         1 UNK         0.0600 
    239 H239       -3.2608  -16.4080  -50.5241 H         1 UNK         0.0600 
    240 H240       -1.9985  -17.2599  -51.9144 H         1 UNK         0.3000 
    241 H241       -0.0764  -19.4109  -52.2257 H         1 UNK         0.0600 
    242 H242       -2.5275  -19.8703  -55.3479 H         1 UNK         0.3800 
    243 H243       -3.0599  -19.1550  -53.8519 H         1 UNK         0.3800 
    244 H244       -0.1766  -16.5955  -53.3970 H         1 UNK         0.0800 
    245 H245        1.1000  -17.7132  -53.7657 H         1 UNK         0.0800 
    246 H246        2.5520  -18.9660  -51.7450 H         1 UNK         0.0800 
    247 H247        3.2504  -17.6471  -52.6587 H         1 UNK         0.0800 
@<TRIPOS>BOND
     1    1    2 1    
     2    1  127 1    
     3    1  128 1    
     4    1  129 1    
     5    2    3 2    
     6    2    4 am   BACKBONE|DICT|INTERRES
     7    4    5 1    
     8    4  130 1    
     9    5    6 1    
    10    5   65 1    
    11    5  131 1    
    12    6    7 1    
    13    6  132 1    
    14    6  133 1    
    15    7    8 1    
    16    8    9 1    
    17    8  134 1    
    18    8  135 1    
    19    9   10 ar   
    20    9   14 ar   
    21   10   11 ar   
    22   10  136 1    
    23   11   12 ar   
    24   11  126 1    
    25   12   13 ar   
    26   12  137 1    
    27   13   14 ar   
    28   13   15 1    
    29   14  138 1    
    30   15   16 1    
    31   15  139 1    
    32   15  140 1    
    33   16   17 1    
    34   17   18 1    
    35   17  141 1    
    36   17  142 1    
    37   18   19 1    
    38   18   67 1    
    39   18  143 1    
    40   19   20 am   BACKBONE|DICT|INTERRES
    41   19  144 1    
    42   20   21 2    
    43   20   22 1    
    44   22   23 1    
    45   22   24 1    
    46   22  145 1    
    47   23  146 1    
    48   23  147 1    
    49   23  148 1    
    50   24   25 am   BACKBONE|DICT|INTERRES
    51   24  149 1    
    52   25   26 2    
    53   25   27 1    
    54   27   28 1    
    55   27   29 1    
    56   27  150 1    
    57   28  151 1    
    58   28  152 1    
    59   28  153 1    
    60   29   30 am   BACKBONE|DICT|INTERRES
    61   29  154 1    
    62   30   31 2    
    63   30   32 1    
    64   32   33 1    
    65   32   34 1    
    66   32  155 1    
    67   33  156 1    
    68   33  157 1    
    69   33  158 1    
    70   34   35 am   BACKBONE|DICT|INTERRES
    71   34  159 1    
    72   35   36 2    
    73   35   37 1    
    74   37   38 1    
    75   37   39 1    
    76   37  160 1    
    77   38  161 1    
    78   38  162 1    
    79   38  163 1    
    80   39   40 am   BACKBONE|DICT|INTERRES
    81   39  164 1    
    82   40   41 2    
    83   40   42 1    
    84   42   43 1    
    85   42   44 1    
    86   42  165 1    
    87   43  166 1    
    88   43  167 1    
    89   43  168 1    
    90   44   45 am   BACKBONE|DICT|INTERRES
    91   44  169 1    
    92   45   46 2    
    93   45   47 1    
    94   47   48 1    
    95   47   49 1    
    96   47  170 1    
    97   48  171 1    
    98   48  172 1    
    99   48  173 1    
   100   49   50 am   BACKBONE|DICT|INTERRES
   101   49  174 1    
   102   50   51 2    
   103   50   52 1    
   104   52   53 1    
   105   52   54 1    
   106   52  175 1    
   107   53  176 1    
   108   53  177 1    
   109   53  178 1    
   110   54   55 am   BACKBONE|DICT|INTERRES
   111   54  179 1    
   112   55   56 2    
   113   55   57 1    
   114   57   58 1    
   115   57   59 1    
   116   57  180 1    
   117   58  181 1    
   118   58  182 1    
   119   58  183 1    
   120   59   60 am   BACKBONE|DICT|INTERRES
   121   59  184 1    
   122   60   61 2    
   123   60   62 1    
   124   62   63 1    
   125   62   64 1    
   126   62  185 1    
   127   63  186 1    
   128   63  187 1    
   129   63  188 1    
   130   64   65 am   BACKBONE|DICT|INTERRES
   131   64  189 1    
   132   65   66 2    
   133   67   68 2    
   134   67   69 am   BACKBONE|DICT|INTERRES
   135   69   70 1    
   136   69  190 1    
   137   70   71 1    
   138   70   72 1    
   139   70  191 1    
   140   71  192 1    
   141   71  193 1    
   142   71  194 1    
   143   72   73 2    
   144   72   74 am   BACKBONE|DICT|INTERRES
   145   74   75 1    
   146   74  195 1    
   147   75   76 1    
   148   75   77 1    
   149   75  196 1    
   150   76  197 1    
   151   76  198 1    
   152   76  199 1    
   153   77   78 2    
   154   77   79 am   BACKBONE|DICT|INTERRES
   155   79   80 1    
   156   79  200 1    
   157   80   81 1    
   158   80   82 1    
   159   80  201 1    
   160   81  202 1    
   161   81  203 1    
   162   81  204 1    
   163   82   83 2    
   164   82   84 am   BACKBONE|DICT|INTERRES
   165   84   85 1    
   166   84  205 1    
   167   85   86 1    
   168   85   87 1    
   169   85  206 1    
   170   86  207 1    
   171   86  208 1    
   172   86  209 1    
   173   87   88 2    
   174   87   89 am   BACKBONE|DICT|INTERRES
   175   89   90 1    
   176   89  210 1    
   177   90   91 1    
   178   90   92 1    
   179   90  211 1    
   180   91  212 1    
   181   91  213 1    
   182   91  214 1    
   183   92   93 2    
   184   92   94 am   BACKBONE|DICT|INTERRES
   185   94   95 1    
   186   94  215 1    
   187   95   96 1    
   188   95   97 1    
   189   95  216 1    
   190   96  217 1    
   191   96  218 1    
   192   96  219 1    
   193   97   98 2    
   194   97   99 am   BACKBONE|DICT|INTERRES
   195   99  100 1    
   196   99  220 1    
   197  100  101 1    
   198  100  102 1    
   199  100  221 1    
   200  101  222 1    
   201  101  223 1    
   202  101  224 1    
   203  102  103 2    
   204  102  104 am   BACKBONE|DICT|INTERRES
   205  104  105 1    
   206  104  225 1    
   207  105  106 1    
   208  105  107 1    
   209  105  226 1    
   210  106  227 1    
   211  106  228 1    
   212  106  229 1    
   213  107  108 2    
   214  107  109 am   BACKBONE|DICT|INTERRES
   215  109  110 1    
   216  109  230 1    
   217  110  111 1    
   218  110  112 1    
   219  110  231 1    
   220  111  232 1    
   221  111  233 1    
   222  111  234 1    
   223  112  113 2    
   224  112  114 am   BACKBONE|DICT|INTERRES
   225  114  115 1    
   226  114  235 1    
   227  115  116 1    
   228  115  117 1    
   229  115  236 1    
   230  116  237 1    
   231  116  238 1    
   232  116  239 1    
   233  117  118 2    
   234  117  119 am   BACKBONE|DICT|INTERRES
   235  119  120 1    
   236  119  240 1    
   237  120  121 1    
   238  120  124 1    
   239  120  241 1    
   240  121  122 am   BACKBONE|DICT|INTERRES
   241  121  123 2    
   242  122  242 1    
   243  122  243 1    
   244  124  125 1    
   245  124  244 1    
   246  124  245 1    
   247  125  126 1    
   248  126  246 1    
   249  126  247 1    
@<TRIPOS>SUBSTRUCTURE
     1 UNK         1 GROUP             0       ****    0 ROOT    
