@<TRIPOS>MOLECULE
3R540
247   249    1
SMALL
USER_CHARGES


@<TRIPOS>ATOM
      1 CA         -3.6511  -16.8773  -46.3663 C.3       0 UNK        -0.1800 
      2 C          -3.2642  -16.0324  -45.1544 C.2       0 UNK         0.5000 
      3 O          -3.4924  -16.4611  -44.0257 O.2       0 UNK        -0.5000 
      4 N          -2.6920  -14.8341  -45.3186 N.am      1 UNK        -0.5000 
      5 CA         -2.3764  -14.1234  -46.5583 C.3       1 UNK         0.1400 
      6 C6         -1.1585  -14.7282  -47.3177 C.3       23 UNK        -0.0398 
      7 S7         -1.1990  -14.3730  -49.1092 S.3       23 UNK        -0.2404 
      8 C8         -2.0073  -15.8661  -49.7666 C.3       23 UNK        -0.0205 
      9 C9         -1.0217  -16.8337  -50.4056 C.ar      23 UNK        -0.0193 
     10 C10        -1.0545  -17.0454  -51.7865 C.ar      23 UNK        -0.1150 
     11 C11        -0.1917  -17.9656  -52.3875 C.ar      23 UNK        -0.0193 
     12 C12         0.7189  -18.6707  -51.5955 C.ar      23 UNK        -0.1150 
     13 C13         0.7747  -18.4579  -50.2158 C.ar      23 UNK        -0.0193 
     14 C14        -0.1041  -17.5437  -49.6247 C.ar      23 UNK        -0.1150 
     15 C15         1.7829  -19.2213  -49.3679 C.3       23 UNK        -0.0205 
     16 S16         1.3065  -20.9639  -49.1423 S.3       23 UNK        -0.2404 
     17 C17        -0.3121  -20.7629  -48.3363 C.3       23 UNK        -0.0398 
     18 CA         -0.7049  -21.9747  -47.4660 C.3       11 UNK         0.1400 
     19 N           0.1238  -22.1121  -46.2635 N.am      11 UNK        -0.5000 
     20 C           0.0982  -23.1753  -45.4470 C.2       10 UNK         0.5000 
     21 O          -0.6050  -24.1655  -45.6428 O.2       10 UNK        -0.5000 
     22 CA          0.9489  -23.1027  -44.1667 C.3       10 UNK         0.1400 
     23 CB          2.4285  -23.3854  -44.4656 C.3       10 UNK        -0.1800 
     24 N           0.8079  -21.8204  -43.4761 N.am      10 UNK        -0.5000 
     25 C          -0.3384  -21.3758  -42.9403 C.2       9 UNK         0.5000 
     26 O          -1.3800  -22.0317  -42.9224 O.2       9 UNK        -0.5000 
     27 CA         -0.3398  -19.9428  -42.3755 C.3       9 UNK         0.1400 
     28 CB          0.2404  -19.9109  -40.9541 C.3       9 UNK        -0.1800 
     29 N           0.3912  -19.0014  -43.2225 N.am      9 UNK        -0.5000 
     30 C           0.0588  -18.6919  -44.4834 C.2       8 UNK         0.5000 
     31 O          -0.9333  -19.1301  -45.0640 O.2       8 UNK        -0.5000 
     32 CA          1.0420  -17.7919  -45.2485 C.3       8 UNK         0.1400 
     33 CB          0.8657  -16.3205  -44.8540 C.3       8 UNK        -0.1800 
     34 N           2.4335  -18.1953  -45.0455 N.am      8 UNK        -0.5000 
     35 C           2.9466  -19.3682  -45.4423 C.2       7 UNK         0.5000 
     36 O           2.3037  -20.2212  -46.0495 O.2       7 UNK        -0.5000 
     37 CA          4.4078  -19.6524  -45.0540 C.3       7 UNK         0.1400 
     38 CB          5.3711  -18.9666  -46.0341 C.3       7 UNK        -0.1800 
     39 N           4.7113  -19.2233  -43.6884 N.am      7 UNK        -0.5000 
     40 C           4.1834  -19.7750  -42.5857 C.2       6 UNK         0.5000 
     41 O           3.4251  -20.7440  -42.6012 O.2       6 UNK        -0.5000 
     42 CA          4.5144  -19.0867  -41.2474 C.3       6 UNK         0.1400 
     43 CB          5.8510  -19.5976  -40.6895 C.3       6 UNK        -0.1800 
     44 N           4.5558  -17.6246  -41.3583 N.am      6 UNK        -0.5000 
     45 C           3.5021  -16.8684  -41.6926 C.2       5 UNK         0.5000 
     46 O           2.3803  -17.3305  -41.9147 O.2       5 UNK        -0.5000 
     47 CA          3.7692  -15.3641  -41.8812 C.3       5 UNK         0.1400 
     48 CB          4.4115  -15.1035  -43.2536 C.3       5 UNK        -0.1800 
     49 N           2.5382  -14.5823  -41.7960 N.am      5 UNK        -0.5000 
     50 C           1.8780  -14.2991  -40.6684 C.2       4 UNK         0.5000 
     51 O           2.2899  -14.6039  -39.5471 O.2       4 UNK        -0.5000 
     52 CA          0.5538  -13.5200  -40.8317 C.3       4 UNK         0.1400 
     53 CB         -0.0571  -13.0958  -39.4836 C.3       4 UNK        -0.1800 
     54 N           0.7129  -12.3281  -41.6711 N.am      4 UNK        -0.5000 
     55 C           0.7129  -12.3191  -43.0086 C.2       3 UNK         0.5000 
     56 O           0.5992  -13.3363  -43.6983 O.2       3 UNK        -0.5000 
     57 CA          0.9113  -10.9598  -43.6907 C.3       3 UNK         0.1400 
     58 CB          2.4059  -10.6449  -43.8632 C.3       3 UNK        -0.1800 
     59 N           0.2741  -11.0255  -44.9987 N.am      3 UNK        -0.5000 
     60 C          -0.4567  -10.0614  -45.5667 C.2       2 UNK         0.5000 
     61 O          -0.5598   -8.9222  -45.1093 O.2       2 UNK        -0.5000 
     62 CA         -1.2207  -10.4326  -46.8564 C.3       2 UNK         0.1400 
     63 CB         -0.4623   -9.9259  -48.0929 C.3       2 UNK        -0.1800 
     64 N          -1.4801  -11.8688  -47.0188 N.am      2 UNK        -0.5000 
     65 C          -2.2324  -12.6249  -46.2069 C.2       1 UNK         0.5000 
     66 O          -2.8015  -12.1788  -45.2067 O.2       1 UNK        -0.5000 
     67 C          -2.2111  -21.9167  -47.1465 C.2       11 UNK         0.5000 
     68 O          -3.0042  -22.4309  -47.9352 O.2       11 UNK        -0.5000 
     69 N          -2.5871  -21.3085  -46.0138 N.am      12 UNK        -0.5000 
     70 CA         -3.9600  -21.2900  -45.5115 C.3       12 UNK         0.1400 
     71 CB         -4.0823  -20.2842  -44.3568 C.3       12 UNK        -0.1800 
     72 C          -4.4257  -22.6901  -45.0742 C.2       12 UNK         0.5000 
     73 O          -5.5149  -23.1132  -45.4608 O.2       12 UNK        -0.5000 
     74 N          -3.5778  -23.3946  -44.3105 N.am      13 UNK        -0.5000 
     75 CA         -3.8208  -24.7529  -43.8194 C.3       13 UNK         0.1400 
     76 CB         -2.7356  -25.1281  -42.7988 C.3       13 UNK        -0.1800 
     77 C          -3.8955  -25.8007  -44.9458 C.2       13 UNK         0.5000 
     78 O          -4.7674  -26.6697  -44.9118 O.2       13 UNK        -0.5000 
     79 N          -2.9988  -25.6852  -45.9344 N.am      14 UNK        -0.5000 
     80 CA         -2.9515  -26.5366  -47.1259 C.3       14 UNK         0.1400 
     81 CB         -1.5603  -26.4080  -47.7674 C.3       14 UNK        -0.1800 
     82 C          -4.0416  -26.2037  -48.1644 C.2       14 UNK         0.5000 
     83 O          -4.2482  -26.9915  -49.0876 O.2       14 UNK        -0.5000 
     84 N          -4.6820  -25.0339  -48.0188 N.am      15 UNK        -0.5000 
     85 CA         -5.6567  -24.4153  -48.9248 C.3       15 UNK         0.1400 
     86 CB         -6.9106  -25.2954  -49.1005 C.3       15 UNK        -0.1800 
     87 C          -5.0520  -23.9670  -50.2728 C.2       15 UNK         0.5000 
     88 O          -5.7964  -23.6555  -51.2013 O.2       15 UNK        -0.5000 
     89 N          -3.7174  -23.8758  -50.3446 N.am      16 UNK        -0.5000 
     90 CA         -2.9526  -23.3642  -51.4822 C.3       16 UNK         0.1400 
     91 CB         -1.4602  -23.6289  -51.2362 C.3       16 UNK        -0.1800 
     92 C          -3.2012  -21.8658  -51.7320 C.2       16 UNK         0.5000 
     93 O          -3.1885  -21.4305  -52.8848 O.2       16 UNK        -0.5000 
     94 N          -3.4633  -21.1182  -50.6494 N.am      17 UNK        -0.5000 
     95 CA         -3.8712  -19.7144  -50.6903 C.3       17 UNK         0.1400 
     96 CB         -3.8278  -19.1270  -49.2703 C.3       17 UNK        -0.1800 
     97 C          -5.2730  -19.5358  -51.3024 C.2       17 UNK         0.5000 
     98 O          -5.4776  -18.6207  -52.0991 O.2       17 UNK        -0.5000 
     99 N          -6.2027  -20.4280  -50.9317 N.am      18 UNK        -0.5000 
    100 CA        -7.5847  -20.4439  -51.4147 C.3       18 UNK         0.1400 
    101 CB        -8.4412  -21.3126  -50.4804 C.3       18 UNK        -0.1800 
    102 C         -7.6886  -20.9352  -52.8691 C.2       18 UNK         0.5000 
    103 O         -8.4543  -20.3703  -53.6506 O.2       18 UNK        -0.5000 
    104 N         -6.8954  -21.9598  -53.2105 N.am      19 UNK        -0.5000 
    105 CA        -6.7749  -22.5198  -54.5579 C.3       19 UNK         0.1400 
    106 CB        -6.0604  -23.8773  -54.4662 C.3       19 UNK        -0.1800 
    107 C         -6.0320  -21.5970  -55.5443 C.2       19 UNK         0.5000 
    108 O         -6.1489  -21.8000  -56.7533 O.2       19 UNK        -0.5000 
    109 N         -5.2800  -20.6209  -55.0122 N.am      20 UNK        -0.5000 
    110 CA        -4.4123  -19.6746  -55.7160 C.3       20 UNK         0.1400 
    111 CB        -5.2318  -18.7251  -56.6140 C.3       20 UNK        -0.1800 
    112 C         -3.2778  -20.4013  -56.4635 C.2       20 UNK         0.5000 
    113 O         -3.0790  -20.1953  -57.6632 O.2       20 UNK        -0.5000 
    114 N         -2.5442  -21.2429  -55.7195 N.am      21 UNK        -0.5000 
    115 CA        -1.4519  -22.1011  -56.1996 C.3       21 UNK         0.1400 
    116 CB        -0.9479  -22.9501  -55.0237 C.3       21 UNK        -0.1800 
    117 C         -0.2745  -21.3514  -56.8607 C.2       21 UNK         0.5000 
    118 O          0.5020  -21.9622  -57.5960 O.2       21 UNK        -0.5000 
    119 N         -0.1795  -20.0439  -56.5984 N.am      22 UNK        -0.5000 
    120 CA         0.7334  -19.0915  -57.2430 C.3       22 UNK         0.1400 
    121 C          0.4213  -18.8329  -58.7482 C.2       22 UNK         0.5000 
    122 N         -0.7660  -19.1542  -59.2522 N.am      22 UNK        -0.7600 
    123 O          1.2762  -18.3306  -59.4724 O.2       22 UNK        -0.5000 
    124 C124        0.7700  -17.7455  -56.4732 C.3       23 UNK        -0.0398 
    125 S125        1.3064  -17.8970  -54.7333 S.3       23 UNK        -0.2404 
    126 C126       -0.2751  -18.2211  -53.8842 C.3       23 UNK        -0.0205 
    127 H127       -4.0279  -16.2723  -47.1884 H         1 UNK         0.0600 
    128 H128       -2.7984  -17.4627  -46.7099 H         1 UNK         0.0600 
    129 H129       -4.4458  -17.5738  -46.1000 H         1 UNK         0.0600 
    130 H130       -2.5121  -14.2709  -44.4967 H         1 UNK         0.3000 
    131 H131       -3.2579  -14.1787  -47.1985 H         1 UNK         0.0600 
    132 H132       -0.2165  -14.3644  -46.9039 H         1 UNK         0.0800 
    133 H133       -1.1218  -15.8086  -47.1892 H         1 UNK         0.0800 
    134 H134       -2.7566  -15.5526  -50.4951 H         1 UNK         0.0800 
    135 H135       -2.5572  -16.3805  -48.9819 H         1 UNK         0.0800 
    136 H136       -1.7672  -16.5045  -52.3932 H         1 UNK         0.1150 
    137 H137        1.3853  -19.3882  -52.0538 H         1 UNK         0.1150 
    138 H138       -0.0744  -17.3857  -48.5573 H         1 UNK         0.1150 
    139 H139        1.9037  -18.7499  -48.3921 H         1 UNK         0.0800 
    140 H140        2.7621  -19.1822  -49.8469 H         1 UNK         0.0800 
    141 H141       -1.0330  -20.6082  -49.1405 H         1 UNK         0.0800 
    142 H142       -0.3151  -19.8524  -47.7348 H         1 UNK         0.0800 
    143 H143       -0.5522  -22.8786  -48.0587 H         1 UNK         0.0600 
    144 H144        0.7762  -21.3557  -46.0709 H         1 UNK         0.3000 
    145 H145        0.5916  -23.8815  -43.4898 H         1 UNK         0.0600 
    146 H146        3.0197  -23.3983  -43.5499 H         1 UNK         0.0600 
    147 H147        2.5491  -24.3577  -44.9447 H         1 UNK         0.0600 
    148 H148        2.8593  -22.6380  -45.1308 H         1 UNK         0.0600 
    149 H149        1.6410  -21.2456  -43.4043 H         1 UNK         0.3000 
    150 H150       -1.3775  -19.6064  -42.3275 H         1 UNK         0.0600 
    151 H151        1.2852  -20.2218  -40.9379 H         1 UNK         0.0600 
    152 H152       -0.3121  -20.5785  -40.2920 H         1 UNK         0.0600 
    153 H153        0.1846  -18.9087  -40.5285 H         1 UNK         0.0600 
    154 H154        1.2053  -18.5531  -42.8105 H         1 UNK         0.3000 
    155 H155        0.8146  -17.8863  -46.3116 H         1 UNK         0.0600 
    156 H156        1.1458  -16.1384  -43.8185 H         1 UNK         0.0600 
    157 H157       -0.1734  -16.0121  -44.9523 H         1 UNK         0.0600 
    158 H158        1.4661  -15.6643  -45.4839 H         1 UNK         0.0600 
    159 H159        3.0131  -17.5727  -44.5053 H         1 UNK         0.3000 
    160 H160        4.5670  -20.7310  -45.1162 H         1 UNK         0.0600 
    161 H161        5.2805  -17.8802  -45.9984 H         1 UNK         0.0600 
    162 H162        5.1703  -19.2793  -47.0599 H         1 UNK         0.0600 
    163 H163        6.4070  -19.2248  -45.8138 H         1 UNK         0.0600 
    164 H164        5.3314  -18.4344  -43.5831 H         1 UNK         0.3000 
    165 H165        3.7263  -19.3477  -40.5379 H         1 UNK         0.0600 
    166 H166        6.0535  -19.1770  -39.7043 H         1 UNK         0.0600 
    167 H167        6.6862  -19.3420  -41.3426 H         1 UNK         0.0600 
    168 H168        5.8387  -20.6831  -40.5816 H         1 UNK         0.0600 
    169 H169        5.4492  -17.1831  -41.1935 H         1 UNK         0.3000 
    170 H170        4.4545  -15.0299  -41.0994 H         1 UNK         0.0600 
    171 H171        5.3526  -15.6443  -43.3605 H         1 UNK         0.0600 
    172 H172        3.7592  -15.4115  -44.0713 H         1 UNK         0.0600 
    173 H173        4.6329  -14.0443  -43.3874 H         1 UNK         0.0600 
    174 H174        2.0981  -14.3199  -42.6703 H         1 UNK         0.3000 
    175 H175       -0.1537  -14.1991  -41.3127 H         1 UNK         0.0600 
    176 H176        0.6028  -12.4214  -38.9365 H         1 UNK         0.0600 
    177 H177       -1.0118  -12.5891  -39.6259 H         1 UNK         0.0600 
    178 H178       -0.2446  -13.9620  -38.8478 H         1 UNK         0.0600 
    179 H179        0.8584  -11.4584  -41.1787 H         1 UNK         0.3000 
    180 H180        0.4395  -10.1898  -43.0765 H         1 UNK         0.0600 
    181 H181        2.9115  -11.4073  -44.4575 H         1 UNK         0.0600 
    182 H182        2.9097  -10.5926  -42.8973 H         1 UNK         0.0600 
    183 H183        2.5505   -9.6845  -44.3582 H         1 UNK         0.0600 
    184 H184        0.2595  -11.9520  -45.4036 H         1 UNK         0.3000 
    185 H185       -2.1865   -9.9249  -46.8162 H         1 UNK         0.0600 
    186 H186       -1.0333  -10.0993  -49.0053 H         1 UNK         0.0600 
    187 H187       -0.2771   -8.8529  -48.0265 H         1 UNK         0.0600 
    188 H188        0.5040  -10.4199  -48.2014 H         1 UNK         0.0600 
    189 H189       -1.0658  -12.3074  -47.8309 H         1 UNK         0.3000 
    190 H190       -1.8890  -20.8210  -45.4607 H         1 UNK         0.3000 
    191 H191       -4.6105  -20.9539  -46.3217 H         1 UNK         0.0600 
    192 H192       -5.1223  -20.1710  -44.0490 H         1 UNK         0.0600 
    193 H193       -3.7186  -19.3000  -44.6480 H         1 UNK         0.0600 
    194 H194       -3.5151  -20.5961  -43.4807 H         1 UNK         0.0600 
    195 H195       -2.7127  -22.9537  -44.0098 H         1 UNK         0.3000 
    196 H196       -4.7837  -24.7521  -43.3045 H         1 UNK         0.0600 
    197 H197       -1.7406  -25.1119  -43.2447 H         1 UNK         0.0600 
    198 H198       -2.7335  -24.4377  -41.9550 H         1 UNK         0.0600 
    199 H199       -2.9020  -26.1295  -42.4001 H         1 UNK         0.0600 
    200 H200       -2.2638  -24.9859  -45.8487 H         1 UNK         0.3000 
    201 H201       -3.0936  -27.5748  -46.8192 H         1 UNK         0.0600 
    202 H202       -1.3636  -25.3874  -48.0985 H         1 UNK         0.0600 
    203 H203       -1.4654  -27.0596  -48.6369 H         1 UNK         0.0600 
    204 H204       -0.7750  -26.6884  -47.0652 H         1 UNK         0.0600 
    205 H205       -4.4200  -24.4622  -47.2265 H         1 UNK         0.3000 
    206 H206       -5.9726  -23.4977  -48.4265 H         1 UNK         0.0600 
    207 H207       -7.3170  -25.5990  -48.1358 H         1 UNK         0.0600 
    208 H208       -7.6974  -24.7539  -49.6267 H         1 UNK         0.0600 
    209 H209       -6.6990  -26.1965  -49.6763 H         1 UNK         0.0600 
    210 H210       -3.2000  -24.0591  -49.4964 H         1 UNK         0.3000 
    211 H211       -3.2614  -23.9111  -52.3748 H         1 UNK         0.0600 
    212 H212       -0.8563  -23.2947  -52.0792 H         1 UNK         0.0600 
    213 H213       -1.2649  -24.6926  -51.0987 H         1 UNK         0.0600 
    214 H214       -1.0989  -23.1041  -50.3524 H         1 UNK         0.0600 
    215 H215       -3.4431  -21.5691  -49.7411 H         1 UNK         0.3000 
    216 H216       -3.1607  -19.1662  -51.3127 H         1 UNK         0.0600 
    217 H217       -4.4232  -19.7139  -48.5702 H         1 UNK         0.0600 
    218 H218       -4.2207  -18.1099  -49.2573 H         1 UNK         0.0600 
    219 H219       -2.8088  -19.0828  -48.8885 H         1 UNK         0.0600 
    220 H220       -5.9358  -21.1696  -50.3030 H         1 UNK         0.3000 
    221 H221       -7.9727  -19.4235  -51.3782 H         1 UNK         0.0600 
    222 H222       -8.4149  -20.9366  -49.4575 H         1 UNK         0.0600 
    223 H223       -8.1026  -22.3488  -50.4659 H         1 UNK         0.0600 
    224 H224       -9.4844  -21.3142  -50.7989 H         1 UNK         0.0600 
    225 H225       -6.3587  -22.4250  -52.4819 H         1 UNK         0.3000 
    226 H226       -7.7796  -22.6853  -54.9520 H         1 UNK         0.0600 
    227 H227       -5.0463  -23.7694  -54.0800 H         1 UNK         0.0600 
    228 H228       -6.5975  -24.5633  -53.8109 H         1 UNK         0.0600 
    229 H229       -5.9903  -24.3514  -55.4459 H         1 UNK         0.0600 
    230 H230       -5.2320  -20.5795  -54.0035 H         1 UNK         0.3000 
    231 H231       -3.9356  -19.0666  -54.9455 H         1 UNK         0.0600 
    232 H232       -5.7075  -19.2522  -57.4414 H         1 UNK         0.0600 
    233 H233       -4.5945  -17.9520  -57.0445 H         1 UNK         0.0600 
    234 H234       -6.0127  -18.2222  -56.0435 H         1 UNK         0.0600 
    235 H235       -2.7853  -21.3387  -54.7352 H         1 UNK         0.3000 
    236 H236       -1.8709  -22.7703  -56.9534 H         1 UNK         0.0600 
    237 H237       -1.7526  -23.5456  -54.5921 H         1 UNK         0.0600 
    238 H238       -0.1673  -23.6418  -55.3429 H         1 UNK         0.0600 
    239 H239       -0.5302  -22.3231  -54.2352 H         1 UNK         0.0600 
    240 H240       -0.8748  -19.6443  -55.9898 H         1 UNK         0.3000 
    241 H241        1.7337  -19.5268  -57.2067 H         1 UNK         0.0600 
    242 H242       -0.9502  -18.9829  -60.2280 H         1 UNK         0.3800 
    243 H243       -1.4942  -19.5586  -58.6713 H         1 UNK         0.3800 
    244 H244       -0.2025  -17.2519  -56.5121 H         1 UNK         0.0800 
    245 H245        1.4682  -17.0597  -56.9567 H         1 UNK         0.0800 
    246 H246       -1.0595  -17.6070  -54.3291 H         1 UNK         0.0800 
    247 H247       -0.5665  -19.2609  -54.0332 H         1 UNK         0.0800 
@<TRIPOS>BOND
     1    1    2 1    
     2    1  127 1    
     3    1  128 1    
     4    1  129 1    
     5    2    3 2    
     6    2    4 am   BACKBONE|DICT|INTERRES
     7    4    5 1    
     8    4  130 1    
     9    5    6 1    
    10    5   65 1    
    11    5  131 1    
    12    6    7 1    
    13    6  132 1    
    14    6  133 1    
    15    7    8 1    
    16    8    9 1    
    17    8  134 1    
    18    8  135 1    
    19    9   10 ar   
    20    9   14 ar   
    21   10   11 ar   
    22   10  136 1    
    23   11   12 ar   
    24   11  126 1    
    25   12   13 ar   
    26   12  137 1    
    27   13   14 ar   
    28   13   15 1    
    29   14  138 1    
    30   15   16 1    
    31   15  139 1    
    32   15  140 1    
    33   16   17 1    
    34   17   18 1    
    35   17  141 1    
    36   17  142 1    
    37   18   19 1    
    38   18   67 1    
    39   18  143 1    
    40   19   20 am   BACKBONE|DICT|INTERRES
    41   19  144 1    
    42   20   21 2    
    43   20   22 1    
    44   22   23 1    
    45   22   24 1    
    46   22  145 1    
    47   23  146 1    
    48   23  147 1    
    49   23  148 1    
    50   24   25 am   BACKBONE|DICT|INTERRES
    51   24  149 1    
    52   25   26 2    
    53   25   27 1    
    54   27   28 1    
    55   27   29 1    
    56   27  150 1    
    57   28  151 1    
    58   28  152 1    
    59   28  153 1    
    60   29   30 am   BACKBONE|DICT|INTERRES
    61   29  154 1    
    62   30   31 2    
    63   30   32 1    
    64   32   33 1    
    65   32   34 1    
    66   32  155 1    
    67   33  156 1    
    68   33  157 1    
    69   33  158 1    
    70   34   35 am   BACKBONE|DICT|INTERRES
    71   34  159 1    
    72   35   36 2    
    73   35   37 1    
    74   37   38 1    
    75   37   39 1    
    76   37  160 1    
    77   38  161 1    
    78   38  162 1    
    79   38  163 1    
    80   39   40 am   BACKBONE|DICT|INTERRES
    81   39  164 1    
    82   40   41 2    
    83   40   42 1    
    84   42   43 1    
    85   42   44 1    
    86   42  165 1    
    87   43  166 1    
    88   43  167 1    
    89   43  168 1    
    90   44   45 am   BACKBONE|DICT|INTERRES
    91   44  169 1    
    92   45   46 2    
    93   45   47 1    
    94   47   48 1    
    95   47   49 1    
    96   47  170 1    
    97   48  171 1    
    98   48  172 1    
    99   48  173 1    
   100   49   50 am   BACKBONE|DICT|INTERRES
   101   49  174 1    
   102   50   51 2    
   103   50   52 1    
   104   52   53 1    
   105   52   54 1    
   106   52  175 1    
   107   53  176 1    
   108   53  177 1    
   109   53  178 1    
   110   54   55 am   BACKBONE|DICT|INTERRES
   111   54  179 1    
   112   55   56 2    
   113   55   57 1    
   114   57   58 1    
   115   57   59 1    
   116   57  180 1    
   117   58  181 1    
   118   58  182 1    
   119   58  183 1    
   120   59   60 am   BACKBONE|DICT|INTERRES
   121   59  184 1    
   122   60   61 2    
   123   60   62 1    
   124   62   63 1    
   125   62   64 1    
   126   62  185 1    
   127   63  186 1    
   128   63  187 1    
   129   63  188 1    
   130   64   65 am   BACKBONE|DICT|INTERRES
   131   64  189 1    
   132   65   66 2    
   133   67   68 2    
   134   67   69 am   BACKBONE|DICT|INTERRES
   135   69   70 1    
   136   69  190 1    
   137   70   71 1    
   138   70   72 1    
   139   70  191 1    
   140   71  192 1    
   141   71  193 1    
   142   71  194 1    
   143   72   73 2    
   144   72   74 am   BACKBONE|DICT|INTERRES
   145   74   75 1    
   146   74  195 1    
   147   75   76 1    
   148   75   77 1    
   149   75  196 1    
   150   76  197 1    
   151   76  198 1    
   152   76  199 1    
   153   77   78 2    
   154   77   79 am   BACKBONE|DICT|INTERRES
   155   79   80 1    
   156   79  200 1    
   157   80   81 1    
   158   80   82 1    
   159   80  201 1    
   160   81  202 1    
   161   81  203 1    
   162   81  204 1    
   163   82   83 2    
   164   82   84 am   BACKBONE|DICT|INTERRES
   165   84   85 1    
   166   84  205 1    
   167   85   86 1    
   168   85   87 1    
   169   85  206 1    
   170   86  207 1    
   171   86  208 1    
   172   86  209 1    
   173   87   88 2    
   174   87   89 am   BACKBONE|DICT|INTERRES
   175   89   90 1    
   176   89  210 1    
   177   90   91 1    
   178   90   92 1    
   179   90  211 1    
   180   91  212 1    
   181   91  213 1    
   182   91  214 1    
   183   92   93 2    
   184   92   94 am   BACKBONE|DICT|INTERRES
   185   94   95 1    
   186   94  215 1    
   187   95   96 1    
   188   95   97 1    
   189   95  216 1    
   190   96  217 1    
   191   96  218 1    
   192   96  219 1    
   193   97   98 2    
   194   97   99 am   BACKBONE|DICT|INTERRES
   195   99  100 1    
   196   99  220 1    
   197  100  101 1    
   198  100  102 1    
   199  100  221 1    
   200  101  222 1    
   201  101  223 1    
   202  101  224 1    
   203  102  103 2    
   204  102  104 am   BACKBONE|DICT|INTERRES
   205  104  105 1    
   206  104  225 1    
   207  105  106 1    
   208  105  107 1    
   209  105  226 1    
   210  106  227 1    
   211  106  228 1    
   212  106  229 1    
   213  107  108 2    
   214  107  109 am   BACKBONE|DICT|INTERRES
   215  109  110 1    
   216  109  230 1    
   217  110  111 1    
   218  110  112 1    
   219  110  231 1    
   220  111  232 1    
   221  111  233 1    
   222  111  234 1    
   223  112  113 2    
   224  112  114 am   BACKBONE|DICT|INTERRES
   225  114  115 1    
   226  114  235 1    
   227  115  116 1    
   228  115  117 1    
   229  115  236 1    
   230  116  237 1    
   231  116  238 1    
   232  116  239 1    
   233  117  118 2    
   234  117  119 am   BACKBONE|DICT|INTERRES
   235  119  120 1    
   236  119  240 1    
   237  120  121 1    
   238  120  124 1    
   239  120  241 1    
   240  121  122 am   BACKBONE|DICT|INTERRES
   241  121  123 2    
   242  122  242 1    
   243  122  243 1    
   244  124  125 1    
   245  124  244 1    
   246  124  245 1    
   247  125  126 1    
   248  126  246 1    
   249  126  247 1    
@<TRIPOS>SUBSTRUCTURE
     1 UNK         1 GROUP             0       ****    0 ROOT    
