@<TRIPOS>MOLECULE
3R540
247   249    1
SMALL
USER_CHARGES


@<TRIPOS>ATOM
      1 CA         -3.5275  -13.9663  -48.9244 C.3       0 UNK        -0.1800 
      2 C          -2.4757  -12.9966  -49.4443 C.2       0 UNK         0.5000 
      3 O          -2.8140  -11.9479  -49.9930 O.2       0 UNK        -0.5000 
      4 N          -1.1967  -13.3377  -49.2510 N.am      1 UNK        -0.5000 
      5 CA         -0.0050  -12.6458  -49.7626 C.3       1 UNK         0.1400 
      6 C6          1.2317  -13.5880  -49.7994 C.3       23 UNK        -0.0398 
      7 S7          0.8973  -15.2248  -50.5351 S.3       23 UNK        -0.2404 
      8 C8          0.8064  -16.2339  -49.0232 C.3       23 UNK        -0.0205 
      9 C9         -0.0281  -17.4869  -49.2212 C.ar      23 UNK        -0.0193 
     10 C10        -1.4234  -17.4060  -49.2584 C.ar      23 UNK        -0.1150 
     11 C11        -2.1991  -18.5617  -49.3863 C.ar      23 UNK        -0.0193 
     12 C12        -1.5688  -19.8053  -49.4818 C.ar      23 UNK        -0.1150 
     13 C13        -0.1756  -19.8984  -49.4303 C.ar      23 UNK        -0.0193 
     14 C14         0.5899  -18.7347  -49.3166 C.ar      23 UNK        -0.1150 
     15 C15         0.5057  -21.2551  -49.4579 C.3       23 UNK        -0.0205 
     16 S16         1.3270  -21.5817  -47.8717 S.3       23 UNK        -0.2404 
     17 C17         1.6773  -23.3671  -47.9650 C.3       23 UNK        -0.0398 
     18 CA          0.8458  -24.2178  -46.9725 C.3       11 UNK         0.1400 
     19 N           0.9198  -23.7293  -45.5893 N.am      11 UNK        -0.5000 
     20 C           0.6208  -24.4735  -44.5156 C.2       10 UNK         0.5000 
     21 O           0.0400  -25.5558  -44.5826 O.2       10 UNK        -0.5000 
     22 CA          1.0580  -23.9351  -43.1439 C.3       10 UNK         0.1400 
     23 CB          2.5486  -23.5526  -43.1222 C.3       10 UNK        -0.1800 
     24 N           0.2511  -22.7751  -42.7959 N.am      10 UNK        -0.5000 
     25 C          -0.7807  -22.7893  -41.9411 C.2       9 UNK         0.5000 
     26 O          -1.0586  -23.7476  -41.2197 O.2       9 UNK        -0.5000 
     27 CA         -1.6726  -21.5304  -41.8847 C.3       9 UNK         0.1400 
     28 CB         -1.3718  -20.7130  -40.6196 C.3       9 UNK        -0.1800 
     29 N          -1.5504  -20.6591  -43.0561 N.am      9 UNK        -0.5000 
     30 C          -1.8487  -21.0152  -44.3147 C.2       8 UNK         0.5000 
     31 O          -2.2956  -22.1208  -44.6187 O.2       8 UNK        -0.5000 
     32 CA         -1.5200  -20.0017  -45.4284 C.3       8 UNK         0.1400 
     33 CB         -2.7482  -19.1349  -45.7385 C.3       8 UNK        -0.1800 
     34 N          -0.3860  -19.1288  -45.1176 N.am      8 UNK        -0.5000 
     35 C           0.8547  -19.5370  -44.8046 C.2       7 UNK         0.5000 
     36 O           1.1857  -20.7213  -44.7183 O.2       7 UNK        -0.5000 
     37 CA          1.8863  -18.4404  -44.4771 C.3       7 UNK         0.1400 
     38 CB          2.6830  -18.0774  -45.7386 C.3       7 UNK        -0.1800 
     39 N           1.2930  -17.2241  -43.9115 N.am      7 UNK        -0.5000 
     40 C           0.5831  -17.1719  -42.7717 C.2       6 UNK         0.5000 
     41 O           0.3959  -18.1487  -42.0461 O.2       6 UNK        -0.5000 
     42 CA         -0.0603  -15.8238  -42.3831 C.3       6 UNK         0.1400 
     43 CB          0.7613  -15.1369  -41.2818 C.3       6 UNK        -0.1800 
     44 N          -0.2282  -14.8883  -43.4967 N.am      6 UNK        -0.5000 
     45 C          -0.9557  -15.1037  -44.6019 C.2       5 UNK         0.5000 
     46 O          -1.6196  -16.1217  -44.7958 O.2       5 UNK        -0.5000 
     47 CA         -0.8859  -14.0243  -45.7006 C.3       5 UNK         0.1400 
     48 CB         -2.1061  -13.0975  -45.6128 C.3       5 UNK        -0.1800 
     49 N           0.3430  -13.2177  -45.6875 N.am      5 UNK        -0.5000 
     50 C           1.5926  -13.7015  -45.7923 C.2       4 UNK         0.5000 
     51 O           1.8322  -14.9007  -45.9346 O.2       4 UNK        -0.5000 
     52 CA          2.7680  -12.7073  -45.6949 C.3       4 UNK         0.1400 
     53 CB          3.8238  -12.9507  -46.7873 C.3       4 UNK        -0.1800 
     54 N           2.3349  -11.3107  -45.7545 N.am      4 UNK        -0.5000 
     55 C           2.1132  -10.5268  -44.6901 C.2       3 UNK         0.5000 
     56 O           2.2497  -10.9058  -43.5266 O.2       3 UNK        -0.5000 
     57 CA          1.6479   -9.0803  -44.9608 C.3       3 UNK         0.1400 
     58 CB          2.8355   -8.1100  -44.8704 C.3       3 UNK        -0.1800 
     59 N           0.9901   -8.9038  -46.2579 N.am      3 UNK        -0.5000 
     60 C          -0.1882   -9.4425  -46.5970 C.2       2 UNK         0.5000 
     61 O          -0.8624  -10.1273  -45.8276 O.2       2 UNK        -0.5000 
     62 CA         -0.6844   -9.2262  -48.0426 C.3       2 UNK         0.1400 
     63 CB          0.1008   -8.1518  -48.8282 C.3       2 UNK        -0.1800 
     64 N          -0.7107  -10.4872  -48.7901 N.am      2 UNK        -0.5000 
     65 C           0.3068  -11.3349  -48.9955 C.2       1 UNK         0.5000 
     66 O           1.4492  -11.1216  -48.5834 O.2       1 UNK        -0.5000 
     67 C          -0.5834  -24.4767  -47.4875 C.2       11 UNK         0.5000 
     68 O          -0.7772  -25.4620  -48.2008 O.2       11 UNK        -0.5000 
     69 N          -1.5573  -23.6330  -47.1168 N.am      12 UNK        -0.5000 
     70 CA         -2.9568  -23.8112  -47.5194 C.3       12 UNK         0.1400 
     71 CB         -3.7219  -22.4792  -47.4558 C.3       12 UNK        -0.1800 
     72 C          -3.6469  -24.8843  -46.6642 C.2       12 UNK         0.5000 
     73 O          -4.4474  -25.6549  -47.1927 O.2       12 UNK        -0.5000 
     74 N          -3.2900  -24.9464  -45.3731 N.am      13 UNK        -0.5000 
     75 CA         -3.7480  -25.9640  -44.4252 C.3       13 UNK         0.1400 
     76 CB         -3.2830  -25.5882  -43.0116 C.3       13 UNK        -0.1800 
     77 C          -3.2724  -27.3806  -44.8017 C.2       13 UNK         0.5000 
     78 O          -4.0544  -28.3282  -44.7193 O.2       13 UNK        -0.5000 
     79 N          -2.0131  -27.4907  -45.2471 N.am      14 UNK        -0.5000 
     80 CA         -1.4164  -28.7186  -45.7782 C.3       14 UNK         0.1400 
     81 CB          0.1137  -28.5727  -45.7540 C.3       14 UNK        -0.1800 
     82 C          -1.8876  -29.0614  -47.2064 C.2       14 UNK         0.5000 
     83 O          -1.6703  -30.1886  -47.6523 O.2       14 UNK        -0.5000 
     84 N          -2.4897  -28.0830  -47.9001 N.am      15 UNK        -0.5000 
     85 CA         -2.9003  -28.1006  -49.3085 C.3       15 UNK         0.1400 
     86 CB         -4.0355  -29.1182  -49.5432 C.3       15 UNK        -0.1800 
     87 C          -1.7054  -28.2833  -50.2698 C.2       15 UNK         0.5000 
     88 O          -1.8298  -28.9383  -51.3063 O.2       15 UNK        -0.5000 
     89 N          -0.5619  -27.6953  -49.8974 N.am      16 UNK        -0.5000 
     90 CA          0.6815  -27.7016  -50.6640 C.3       16 UNK         0.1400 
     91 CB          1.8560  -27.4618  -49.7024 C.3       16 UNK        -0.1800 
     92 C           0.6722  -26.6416  -51.7791 C.2       16 UNK         0.5000 
     93 O           1.3001  -26.8480  -52.8183 O.2       16 UNK        -0.5000 
     94 N          -0.0455  -25.5369  -51.5489 N.am      17 UNK        -0.5000 
     95 CA         -0.2450  -24.4333  -52.4791 C.3       17 UNK         0.1400 
     96 CB          1.0044  -23.5350  -52.5128 C.3       17 UNK        -0.1800 
     97 C          -1.4913  -23.6524  -52.0427 C.2       17 UNK         0.5000 
     98 O          -1.8793  -23.7239  -50.8750 O.2       17 UNK        -0.5000 
     99 N          -2.0926  -22.9217  -52.9832 N.am      18 UNK        -0.5000 
    100 CA        -3.2935  -22.1122  -52.8031 C.3       18 UNK         0.1400 
    101 CB        -4.5325  -23.0200  -52.6492 C.3       18 UNK        -0.1800 
    102 C         -3.4310  -21.1653  -54.0074 C.2       18 UNK         0.5000 
    103 O         -2.6027  -21.2108  -54.9214 O.2       18 UNK        -0.5000 
    104 N         -4.4770  -20.3279  -53.9796 N.am      19 UNK        -0.5000 
    105 CA        -4.8618  -19.3345  -54.9934 C.3       19 UNK         0.1400 
    106 CB        -5.1406  -19.9983  -56.3581 C.3       19 UNK        -0.1800 
    107 C         -3.9020  -18.1300  -55.1075 C.2       19 UNK         0.5000 
    108 O         -4.0243  -17.3372  -56.0428 O.2       19 UNK        -0.5000 
    109 N         -3.0084  -17.9617  -54.1254 N.am      20 UNK        -0.5000 
    110 CA        -2.0927  -16.8311  -53.9753 C.3       20 UNK         0.1400 
    111 CB        -0.8606  -17.3081  -53.1867 C.3       20 UNK        -0.1800 
    112 C         -2.8113  -15.6395  -53.3075 C.2       20 UNK         0.5000 
    113 O         -2.4275  -15.2105  -52.2196 O.2       20 UNK        -0.5000 
    114 N         -3.8836  -15.1666  -53.9623 N.am      21 UNK        -0.5000 
    115 CA        -4.8279  -14.1369  -53.5052 C.3       21 UNK         0.1400 
    116 CB        -4.1344  -12.7631  -53.3945 C.3       21 UNK        -0.1800 
    117 C         -5.5872  -14.5381  -52.2188 C.2       21 UNK         0.5000 
    118 O         -5.9515  -13.6761  -51.4181 O.2       21 UNK        -0.5000 
    119 N         -5.8088  -15.8485  -52.0481 N.am      22 UNK        -0.5000 
    120 CA        -6.3901  -16.4754  -50.8479 C.3       22 UNK         0.1400 
    121 C         -7.9046  -16.1965  -50.6128 C.2       22 UNK         0.5000 
    122 N         -8.6401  -15.6468  -51.5712 N.am      22 UNK        -0.7600 
    123 O         -8.4216  -16.4852  -49.5372 O.2       22 UNK        -0.5000 
    124 C124       -6.1094  -18.0026  -50.7993 C.3       23 UNK        -0.0398 
    125 S125       -4.3591  -18.4354  -51.0857 S.3       23 UNK        -0.2404 
    126 C126       -3.7159  -18.4673  -49.3907 C.3       23 UNK        -0.0205 
    127 H127       -4.4132  -13.4266  -48.5891 H         1 UNK         0.0600 
    128 H128       -3.1534  -14.5569  -48.0883 H         1 UNK         0.0600 
    129 H129       -3.8231  -14.6498  -49.7198 H         1 UNK         0.0600 
    130 H130       -1.0022  -14.2264  -48.8197 H         1 UNK         0.3000 
    131 H131       -0.2190  -12.3551  -50.7932 H         1 UNK         0.0600 
    132 H132        1.6297  -13.7403  -48.7965 H         1 UNK         0.0800 
    133 H133        2.0368  -13.1242  -50.3717 H         1 UNK         0.0800 
    134 H134        1.8195  -16.4860  -48.7060 H         1 UNK         0.0800 
    135 H135        0.3728  -15.6590  -48.2069 H         1 UNK         0.0800 
    136 H136       -1.9064  -16.4429  -49.1880 H         1 UNK         0.1150 
    137 H137       -2.1628  -20.7011  -49.5870 H         1 UNK         0.1150 
    138 H138        1.6673  -18.8076  -49.2689 H         1 UNK         0.1150 
    139 H139       -0.2183  -22.0446  -49.6606 H         1 UNK         0.0800 
    140 H140        1.2421  -21.2741  -50.2613 H         1 UNK         0.0800 
    141 H141        1.5553  -23.7238  -48.9896 H         1 UNK         0.0800 
    142 H142        2.7367  -23.4958  -47.7399 H         1 UNK         0.0800 
    143 H143        1.3206  -25.2018  -46.9617 H         1 UNK         0.0600 
    144 H144        1.3208  -22.8071  -45.4601 H         1 UNK         0.3000 
    145 H145        0.9146  -24.7368  -42.4165 H         1 UNK         0.0600 
    146 H146        2.8610  -23.2667  -42.1178 H         1 UNK         0.0600 
    147 H147        3.1714  -24.3940  -43.4283 H         1 UNK         0.0600 
    148 H148        2.7732  -22.7176  -43.7863 H         1 UNK         0.0600 
    149 H149        0.4038  -21.9464  -43.3621 H         1 UNK         0.3000 
    150 H150       -2.7089  -21.8707  -41.8352 H         1 UNK         0.0600 
    151 H151       -1.5253  -21.3124  -39.7214 H         1 UNK         0.0600 
    152 H152       -2.0239  -19.8426  -40.5449 H         1 UNK         0.0600 
    153 H153       -0.3393  -20.3619  -40.6063 H         1 UNK         0.0600 
    154 H154       -1.1323  -19.7513  -42.8980 H         1 UNK         0.3000 
    155 H155       -1.2593  -20.5646  -46.3265 H         1 UNK         0.0600 
    156 H156       -3.0678  -18.5660  -44.8645 H         1 UNK         0.0600 
    157 H157       -3.5917  -19.7465  -46.0596 H         1 UNK         0.0600 
    158 H158       -2.5379  -18.4234  -46.5363 H         1 UNK         0.0600 
    159 H159       -0.5758  -18.1344  -45.1260 H         1 UNK         0.3000 
    160 H160        2.5774  -18.8488  -43.7372 H         1 UNK         0.0600 
    161 H161        2.0372  -17.6562  -46.5097 H         1 UNK         0.0600 
    162 H162        3.1668  -18.9583  -46.1630 H         1 UNK         0.0600 
    163 H163        3.4634  -17.3486  -45.5195 H         1 UNK         0.0600 
    164 H164        1.3967  -16.3795  -44.4630 H         1 UNK         0.3000 
    165 H165       -1.0531  -16.0437  -41.9853 H         1 UNK         0.0600 
    166 H166        1.7578  -14.8668  -41.6336 H         1 UNK         0.0600 
    167 H167        0.2707  -14.2290  -40.9304 H         1 UNK         0.0600 
    168 H168        0.8842  -15.7924  -40.4184 H         1 UNK         0.0600 
    169 H169        0.2856  -14.0219  -43.4342 H         1 UNK         0.3000 
    170 H170       -0.9278  -14.5472  -46.6554 H         1 UNK         0.0600 
    171 H171       -3.0360  -13.6677  -45.6215 H         1 UNK         0.0600 
    172 H172       -2.0933  -12.5031  -44.6985 H         1 UNK         0.0600 
    173 H173       -2.1418  -12.4103  -46.4576 H         1 UNK         0.0600 
    174 H174        0.2214  -12.2196  -45.5729 H         1 UNK         0.3000 
    175 H175        3.2497  -12.9028  -44.7348 H         1 UNK         0.0600 
    176 H176        4.1670  -13.9861  -46.7874 H         1 UNK         0.0600 
    177 H177        3.4418  -12.7296  -47.7827 H         1 UNK         0.0600 
    178 H178        4.7003  -12.3232  -46.6257 H         1 UNK         0.0600 
    179 H179        2.1504  -10.9456  -46.6842 H         1 UNK         0.3000 
    180 H180        0.9309   -8.8166  -44.1804 H         1 UNK         0.0600 
    181 H181        2.5098   -7.0755  -44.9806 H         1 UNK         0.0600 
    182 H182        3.3340   -8.1908  -43.9035 H         1 UNK         0.0600 
    183 H183        3.5799   -8.3129  -45.6414 H         1 UNK         0.0600 
    184 H184        1.4974   -8.3794  -46.9558 H         1 UNK         0.3000 
    185 H185       -1.7189   -8.8892  -47.9632 H         1 UNK         0.0600 
    186 H186       -0.3469   -7.9867  -49.8083 H         1 UNK         0.0600 
    187 H187        0.0871   -7.1938  -48.3068 H         1 UNK         0.0600 
    188 H188        1.1425   -8.4312  -48.9887 H         1 UNK         0.0600 
    189 H189       -1.6174  -10.7741  -49.1513 H         1 UNK         0.3000 
    190 H190       -1.3550  -22.8895  -46.4628 H         1 UNK         0.3000 
    191 H191       -2.9765  -24.1481  -48.5573 H         1 UNK         0.0600 
    192 H192       -4.6212  -22.5280  -48.0705 H         1 UNK         0.0600 
    193 H193       -3.1203  -21.6515  -47.8233 H         1 UNK         0.0600 
    194 H194       -4.0440  -22.2339  -46.4445 H         1 UNK         0.0600 
    195 H195       -2.6578  -24.2382  -45.0194 H         1 UNK         0.3000 
    196 H196       -4.8399  -25.9631  -44.4369 H         1 UNK         0.0600 
    197 H197       -3.6592  -26.2987  -42.2748 H         1 UNK         0.0600 
    198 H198       -3.6428  -24.5995  -42.7255 H         1 UNK         0.0600 
    199 H199       -2.1954  -25.5829  -42.9356 H         1 UNK         0.0600 
    200 H200       -1.4046  -26.6773  -45.2022 H         1 UNK         0.3000 
    201 H201       -1.6930  -29.5516  -45.1287 H         1 UNK         0.0600 
    202 H202        0.4478  -27.7513  -46.3896 H         1 UNK         0.0600 
    203 H203        0.6016  -29.4815  -46.1085 H         1 UNK         0.0600 
    204 H204        0.4761  -28.3831  -44.7435 H         1 UNK         0.0600 
    205 H205       -2.6166  -27.1975  -47.4299 H         1 UNK         0.3000 
    206 H206       -3.3020  -27.1075  -49.5159 H         1 UNK         0.0600 
    207 H207       -4.8600  -28.9533  -48.8495 H         1 UNK         0.0600 
    208 H208       -4.4385  -29.0271  -50.5525 H         1 UNK         0.0600 
    209 H209       -3.6930  -30.1459  -49.4204 H         1 UNK         0.0600 
    210 H210       -0.5821  -27.0992  -49.0737 H         1 UNK         0.3000 
    211 H211        0.8101  -28.6820  -51.1275 H         1 UNK         0.0600 
    212 H212        1.7843  -26.4899  -49.2132 H         1 UNK         0.0600 
    213 H213        2.8079  -27.4929  -50.2339 H         1 UNK         0.0600 
    214 H214        1.8913  -28.2259  -48.9256 H         1 UNK         0.0600 
    215 H215       -0.5644  -25.4465  -50.6820 H         1 UNK         0.3000 
    216 H216       -0.4317  -24.8367  -53.4766 H         1 UNK         0.0600 
    217 H217        0.8300  -22.6304  -53.0968 H         1 UNK         0.0600 
    218 H218        1.8493  -24.0535  -52.9660 H         1 UNK         0.0600 
    219 H219        1.3037  -23.2323  -51.5107 H         1 UNK         0.0600 
    220 H220       -1.6965  -22.8524  -53.9134 H         1 UNK         0.3000 
    221 H221       -3.1744  -21.4995  -51.9068 H         1 UNK         0.0600 
    222 H222       -4.6857  -23.6387  -53.5342 H         1 UNK         0.0600 
    223 H223       -4.4386  -23.6848  -51.7907 H         1 UNK         0.0600 
    224 H224       -5.4401  -22.4361  -52.4945 H         1 UNK         0.0600 
    225 H225       -5.0818  -20.3612  -53.1707 H         1 UNK         0.3000 
    226 H226       -5.8068  -18.9166  -54.6436 H         1 UNK         0.0600 
    227 H227       -5.8267  -20.8391  -56.2556 H         1 UNK         0.0600 
    228 H228       -5.5988  -19.2911  -57.0504 H         1 UNK         0.0600 
    229 H229       -4.2275  -20.3642  -56.8280 H         1 UNK         0.0600 
    230 H230       -3.0193  -18.6217  -53.3613 H         1 UNK         0.3000 
    231 H231       -1.7541  -16.5044  -54.9606 H         1 UNK         0.0600 
    232 H232       -0.3669  -18.1400  -53.6889 H         1 UNK         0.0600 
    233 H233       -1.1265  -17.6357  -52.1809 H         1 UNK         0.0600 
    234 H234       -0.1275  -16.5071  -53.0893 H         1 UNK         0.0600 
    235 H235       -4.1108  -15.6120  -54.8450 H         1 UNK         0.3000 
    236 H236       -5.5865  -14.0562  -54.2847 H         1 UNK         0.0600 
    237 H237       -3.3957  -12.7454  -52.5931 H         1 UNK         0.0600 
    238 H238       -3.6275  -12.5012  -54.3231 H         1 UNK         0.0600 
    239 H239       -4.8576  -11.9738  -53.1869 H         1 UNK         0.0600 
    240 H240       -5.4569  -16.4832  -52.7472 H         1 UNK         0.3000 
    241 H241       -5.8792  -16.0308  -49.9920 H         1 UNK         0.0600 
    242 H242       -8.2260  -15.3949  -52.4540 H         1 UNK         0.3800 
    243 H243       -9.6183  -15.4676  -51.4063 H         1 UNK         0.3800 
    244 H244       -6.7016  -18.5148  -51.5593 H         1 UNK         0.0800 
    245 H245       -6.4238  -18.4216  -49.8416 H         1 UNK         0.0800 
    246 H246       -4.0353  -17.5677  -48.8623 H         1 UNK         0.0800 
    247 H247       -4.1456  -19.3136  -48.8525 H         1 UNK         0.0800 
@<TRIPOS>BOND
     1    1    2 1    
     2    1  127 1    
     3    1  128 1    
     4    1  129 1    
     5    2    3 2    
     6    2    4 am   BACKBONE|DICT|INTERRES
     7    4    5 1    
     8    4  130 1    
     9    5    6 1    
    10    5   65 1    
    11    5  131 1    
    12    6    7 1    
    13    6  132 1    
    14    6  133 1    
    15    7    8 1    
    16    8    9 1    
    17    8  134 1    
    18    8  135 1    
    19    9   10 ar   
    20    9   14 ar   
    21   10   11 ar   
    22   10  136 1    
    23   11   12 ar   
    24   11  126 1    
    25   12   13 ar   
    26   12  137 1    
    27   13   14 ar   
    28   13   15 1    
    29   14  138 1    
    30   15   16 1    
    31   15  139 1    
    32   15  140 1    
    33   16   17 1    
    34   17   18 1    
    35   17  141 1    
    36   17  142 1    
    37   18   19 1    
    38   18   67 1    
    39   18  143 1    
    40   19   20 am   BACKBONE|DICT|INTERRES
    41   19  144 1    
    42   20   21 2    
    43   20   22 1    
    44   22   23 1    
    45   22   24 1    
    46   22  145 1    
    47   23  146 1    
    48   23  147 1    
    49   23  148 1    
    50   24   25 am   BACKBONE|DICT|INTERRES
    51   24  149 1    
    52   25   26 2    
    53   25   27 1    
    54   27   28 1    
    55   27   29 1    
    56   27  150 1    
    57   28  151 1    
    58   28  152 1    
    59   28  153 1    
    60   29   30 am   BACKBONE|DICT|INTERRES
    61   29  154 1    
    62   30   31 2    
    63   30   32 1    
    64   32   33 1    
    65   32   34 1    
    66   32  155 1    
    67   33  156 1    
    68   33  157 1    
    69   33  158 1    
    70   34   35 am   BACKBONE|DICT|INTERRES
    71   34  159 1    
    72   35   36 2    
    73   35   37 1    
    74   37   38 1    
    75   37   39 1    
    76   37  160 1    
    77   38  161 1    
    78   38  162 1    
    79   38  163 1    
    80   39   40 am   BACKBONE|DICT|INTERRES
    81   39  164 1    
    82   40   41 2    
    83   40   42 1    
    84   42   43 1    
    85   42   44 1    
    86   42  165 1    
    87   43  166 1    
    88   43  167 1    
    89   43  168 1    
    90   44   45 am   BACKBONE|DICT|INTERRES
    91   44  169 1    
    92   45   46 2    
    93   45   47 1    
    94   47   48 1    
    95   47   49 1    
    96   47  170 1    
    97   48  171 1    
    98   48  172 1    
    99   48  173 1    
   100   49   50 am   BACKBONE|DICT|INTERRES
   101   49  174 1    
   102   50   51 2    
   103   50   52 1    
   104   52   53 1    
   105   52   54 1    
   106   52  175 1    
   107   53  176 1    
   108   53  177 1    
   109   53  178 1    
   110   54   55 am   BACKBONE|DICT|INTERRES
   111   54  179 1    
   112   55   56 2    
   113   55   57 1    
   114   57   58 1    
   115   57   59 1    
   116   57  180 1    
   117   58  181 1    
   118   58  182 1    
   119   58  183 1    
   120   59   60 am   BACKBONE|DICT|INTERRES
   121   59  184 1    
   122   60   61 2    
   123   60   62 1    
   124   62   63 1    
   125   62   64 1    
   126   62  185 1    
   127   63  186 1    
   128   63  187 1    
   129   63  188 1    
   130   64   65 am   BACKBONE|DICT|INTERRES
   131   64  189 1    
   132   65   66 2    
   133   67   68 2    
   134   67   69 am   BACKBONE|DICT|INTERRES
   135   69   70 1    
   136   69  190 1    
   137   70   71 1    
   138   70   72 1    
   139   70  191 1    
   140   71  192 1    
   141   71  193 1    
   142   71  194 1    
   143   72   73 2    
   144   72   74 am   BACKBONE|DICT|INTERRES
   145   74   75 1    
   146   74  195 1    
   147   75   76 1    
   148   75   77 1    
   149   75  196 1    
   150   76  197 1    
   151   76  198 1    
   152   76  199 1    
   153   77   78 2    
   154   77   79 am   BACKBONE|DICT|INTERRES
   155   79   80 1    
   156   79  200 1    
   157   80   81 1    
   158   80   82 1    
   159   80  201 1    
   160   81  202 1    
   161   81  203 1    
   162   81  204 1    
   163   82   83 2    
   164   82   84 am   BACKBONE|DICT|INTERRES
   165   84   85 1    
   166   84  205 1    
   167   85   86 1    
   168   85   87 1    
   169   85  206 1    
   170   86  207 1    
   171   86  208 1    
   172   86  209 1    
   173   87   88 2    
   174   87   89 am   BACKBONE|DICT|INTERRES
   175   89   90 1    
   176   89  210 1    
   177   90   91 1    
   178   90   92 1    
   179   90  211 1    
   180   91  212 1    
   181   91  213 1    
   182   91  214 1    
   183   92   93 2    
   184   92   94 am   BACKBONE|DICT|INTERRES
   185   94   95 1    
   186   94  215 1    
   187   95   96 1    
   188   95   97 1    
   189   95  216 1    
   190   96  217 1    
   191   96  218 1    
   192   96  219 1    
   193   97   98 2    
   194   97   99 am   BACKBONE|DICT|INTERRES
   195   99  100 1    
   196   99  220 1    
   197  100  101 1    
   198  100  102 1    
   199  100  221 1    
   200  101  222 1    
   201  101  223 1    
   202  101  224 1    
   203  102  103 2    
   204  102  104 am   BACKBONE|DICT|INTERRES
   205  104  105 1    
   206  104  225 1    
   207  105  106 1    
   208  105  107 1    
   209  105  226 1    
   210  106  227 1    
   211  106  228 1    
   212  106  229 1    
   213  107  108 2    
   214  107  109 am   BACKBONE|DICT|INTERRES
   215  109  110 1    
   216  109  230 1    
   217  110  111 1    
   218  110  112 1    
   219  110  231 1    
   220  111  232 1    
   221  111  233 1    
   222  111  234 1    
   223  112  113 2    
   224  112  114 am   BACKBONE|DICT|INTERRES
   225  114  115 1    
   226  114  235 1    
   227  115  116 1    
   228  115  117 1    
   229  115  236 1    
   230  116  237 1    
   231  116  238 1    
   232  116  239 1    
   233  117  118 2    
   234  117  119 am   BACKBONE|DICT|INTERRES
   235  119  120 1    
   236  119  240 1    
   237  120  121 1    
   238  120  124 1    
   239  120  241 1    
   240  121  122 am   BACKBONE|DICT|INTERRES
   241  121  123 2    
   242  122  242 1    
   243  122  243 1    
   244  124  125 1    
   245  124  244 1    
   246  124  245 1    
   247  125  126 1    
   248  126  246 1    
   249  126  247 1    
@<TRIPOS>SUBSTRUCTURE
     1 UNK         1 GROUP             0       ****    0 ROOT    
