@<TRIPOS>MOLECULE
3R540
247   249    1
SMALL
USER_CHARGES


@<TRIPOS>ATOM
      1 CA          1.5083   -9.2242  -52.3860 C.3       0 UNK        -0.1800 
      2 C           1.3324  -10.1102  -51.1604 C.2       0 UNK         0.5000 
      3 O           1.1579   -9.5973  -50.0544 O.2       0 UNK        -0.5000 
      4 N           1.3863  -11.4342  -51.3515 N.am      1 UNK        -0.5000 
      5 CA          1.1668  -12.4415  -50.3080 C.3       1 UNK         0.1400 
      6 C6          1.7689  -13.8102  -50.7187 C.3       23 UNK        -0.0398 
      7 S7          2.4264  -14.7238  -49.2819 S.3       23 UNK        -0.2404 
      8 C8          1.5132  -16.2934  -49.3667 C.3       23 UNK        -0.0205 
      9 C9          2.2383  -17.3578  -50.1837 C.ar      23 UNK        -0.0193 
     10 C10         2.3974  -17.2126  -51.5650 C.ar      23 UNK        -0.1150 
     11 C11         3.0930  -18.1715  -52.3054 C.ar      23 UNK        -0.0193 
     12 C12         3.5918  -19.3068  -51.6596 C.ar      23 UNK        -0.1150 
     13 C13         3.4306  -19.4833  -50.2812 C.ar      23 UNK        -0.0193 
     14 C14         2.7593  -18.4924  -49.5513 C.ar      23 UNK        -0.1150 
     15 C15         4.0515  -20.7277  -49.6351 C.3       23 UNK        -0.0205 
     16 S16         3.6248  -21.0423  -47.8831 S.3       23 UNK        -0.2404 
     17 C17         1.9514  -21.7602  -48.0041 C.3       23 UNK        -0.0398 
     18 CA          1.7861  -23.0668  -47.1818 C.3       11 UNK         0.1400 
     19 N           2.0689  -22.8437  -45.7639 N.am      11 UNK        -0.5000 
     20 C           2.4898  -23.7649  -44.8903 C.2       10 UNK         0.5000 
     21 O           2.8040  -24.9144  -45.2071 O.2       10 UNK        -0.5000 
     22 CA          2.5506  -23.3130  -43.4151 C.3       10 UNK         0.1400 
     23 CB          3.3617  -24.2661  -42.5122 C.3       10 UNK        -0.1800 
     24 N           2.9996  -21.9249  -43.2656 N.am      10 UNK        -0.5000 
     25 C           4.1987  -21.4118  -43.5804 C.2       9 UNK         0.5000 
     26 O           5.1460  -22.0839  -43.9903 O.2       9 UNK        -0.5000 
     27 CA          4.3809  -19.8870  -43.4200 C.3       9 UNK         0.1400 
     28 CB          4.5517  -19.2170  -44.7923 C.3       9 UNK        -0.1800 
     29 N           3.2786  -19.2290  -42.7150 N.am      9 UNK        -0.5000 
     30 C           3.0702  -19.2726  -41.3927 C.2       8 UNK         0.5000 
     31 O           3.8201  -19.8444  -40.6010 O.2       8 UNK        -0.5000 
     32 CA          1.7903  -18.5892  -40.8720 C.3       8 UNK         0.1400 
     33 CB          2.0272  -17.0878  -40.6503 C.3       8 UNK        -0.1800 
     34 N           0.6369  -18.7774  -41.7567 N.am      8 UNK        -0.5000 
     35 C           0.0576  -19.9604  -42.0102 C.2       7 UNK         0.5000 
     36 O           0.4202  -21.0218  -41.5026 O.2       7 UNK        -0.5000 
     37 CA         -1.0850  -19.9724  -43.0427 C.3       7 UNK         0.1400 
     38 CB         -2.4042  -19.5019  -42.4132 C.3       7 UNK        -0.1800 
     39 N          -0.7844  -19.1633  -44.2234 N.am      7 UNK        -0.5000 
     40 C           0.2168  -19.4186  -45.0759 C.2       6 UNK         0.5000 
     41 O           0.9625  -20.3914  -44.9809 O.2       6 UNK        -0.5000 
     42 CA          0.4519  -18.4029  -46.2050 C.3       6 UNK         0.1400 
     43 CB         -0.5605  -18.6093  -47.3392 C.3       6 UNK        -0.1800 
     44 N           0.3967  -17.0183  -45.7439 N.am      6 UNK        -0.5000 
     45 C           1.2210  -16.4819  -44.8336 C.2       5 UNK         0.5000 
     46 O           2.1571  -17.0859  -44.3134 O.2       5 UNK        -0.5000 
     47 CA          0.9049  -15.0466  -44.3842 C.3       5 UNK         0.1400 
     48 CB          1.4188  -14.0214  -45.4068 C.3       5 UNK        -0.1800 
     49 N          -0.5285  -14.8553  -44.1627 N.am      5 UNK        -0.5000 
     50 C          -1.2277  -15.4457  -43.1821 C.2       4 UNK         0.5000 
     51 O          -0.7291  -16.1816  -42.3304 O.2       4 UNK        -0.5000 
     52 CA         -2.7482  -15.2064  -43.1850 C.3       4 UNK         0.1400 
     53 CB         -3.0888  -13.8654  -42.5181 C.3       4 UNK        -0.1800 
     54 N          -3.3136  -15.2364  -44.5350 N.am      4 UNK        -0.5000 
     55 C          -3.3694  -16.3326  -45.3049 C.2       3 UNK         0.5000 
     56 O          -2.9830  -17.4421  -44.9418 O.2       3 UNK        -0.5000 
     57 CA         -3.8969  -16.1446  -46.7384 C.3       3 UNK         0.1400 
     58 CB         -5.4293  -16.2282  -46.7654 C.3       3 UNK        -0.1800 
     59 N          -3.4669  -14.8818  -47.3487 N.am      3 UNK        -0.5000 
     60 C          -2.1935  -14.5424  -47.5905 C.2       2 UNK         0.5000 
     61 O          -1.2311  -15.2718  -47.3419 O.2       2 UNK        -0.5000 
     62 CA         -1.9640  -13.1376  -48.1628 C.3       2 UNK         0.1400 
     63 CB         -2.1053  -12.0818  -47.0534 C.3       2 UNK        -0.1800 
     64 N          -0.6216  -13.0342  -48.7328 N.am      2 UNK        -0.5000 
     65 C          -0.3333  -12.5430  -49.9423 C.2       1 UNK         0.5000 
     66 O          -1.1908  -12.1804  -50.7526 O.2       1 UNK        -0.5000 
     67 C           0.3733  -23.6823  -47.3511 C.2       11 UNK         0.5000 
     68 O          -0.3316  -23.9229  -46.3670 O.2       11 UNK        -0.5000 
     69 N          -0.0297  -23.9210  -48.6075 N.am      12 UNK        -0.5000 
     70 CA         -1.2594  -24.6162  -49.0130 C.3       12 UNK         0.1400 
     71 CB         -1.2254  -24.8099  -50.5383 C.3       12 UNK        -0.1800 
     72 C          -2.6003  -23.9715  -48.5950 C.2       12 UNK         0.5000 
     73 O          -3.6432  -24.5835  -48.8269 O.2       12 UNK        -0.5000 
     74 N          -2.5810  -22.7716  -47.9949 N.am      13 UNK        -0.5000 
     75 CA         -3.7549  -21.9991  -47.5615 C.3       13 UNK         0.1400 
     76 CB         -3.2945  -20.6822  -46.9306 C.3       13 UNK        -0.1800 
     77 C          -4.7115  -22.7346  -46.6066 C.2       13 UNK         0.5000 
     78 O          -5.9006  -22.4200  -46.5939 O.2       13 UNK        -0.5000 
     79 N          -4.1985  -23.7320  -45.8737 N.am      14 UNK        -0.5000 
     80 CA         -4.9806  -24.6465  -45.0387 C.3       14 UNK         0.1400 
     81 CB         -4.0166  -25.5757  -44.2859 C.3       14 UNK        -0.1800 
     82 C          -6.0246  -25.4709  -45.8250 C.2       14 UNK         0.5000 
     83 O          -7.0377  -25.8626  -45.2442 O.2       14 UNK        -0.5000 
     84 N          -5.7696  -25.7029  -47.1203 N.am      15 UNK        -0.5000 
     85 CA         -6.6828  -26.3624  -48.0521 C.3       15 UNK         0.1400 
     86 CB         -5.9519  -27.5389  -48.7184 C.3       15 UNK        -0.1800 
     87 C          -7.1990  -25.3814  -49.1194 C.2       15 UNK         0.5000 
     88 O          -8.3773  -25.4383  -49.4725 O.2       15 UNK        -0.5000 
     89 N          -6.3141  -24.5112  -49.6270 N.am      16 UNK        -0.5000 
     90 CA         -6.5849  -23.6010  -50.7411 C.3       16 UNK         0.1400 
     91 CB         -5.2481  -23.1394  -51.3458 C.3       16 UNK        -0.1800 
     92 C          -7.4503  -22.3820  -50.3725 C.2       16 UNK         0.5000 
     93 O          -8.0311  -21.7783  -51.2744 O.2       16 UNK        -0.5000 
     94 N          -7.4930  -22.0109  -49.0833 N.am      17 UNK        -0.5000 
     95 CA         -8.2020  -20.8750  -48.4677 C.3       17 UNK         0.1400 
     96 CB         -9.7224  -20.9742  -48.6962 C.3       17 UNK        -0.1800 
     97 C          -7.6716  -19.4750  -48.8513 C.2       17 UNK         0.5000 
     98 O          -7.7296  -18.5640  -48.0248 O.2       17 UNK        -0.5000 
     99 N          -7.1652  -19.3242  -50.0794 N.am      18 UNK        -0.5000 
    100 CA        -6.4923  -18.1391  -50.6067 C.3       18 UNK         0.1400 
    101 CB        -6.5676  -18.1994  -52.1440 C.3       18 UNK        -0.1800 
    102 C         -5.0334  -18.0387  -50.1101 C.2       18 UNK         0.5000 
    103 O         -4.6235  -18.7787  -49.2127 O.2       18 UNK        -0.5000 
    104 N         -4.2551  -17.1335  -50.7197 N.am      19 UNK        -0.5000 
    105 CA        -2.8173  -16.9316  -50.5063 C.3       19 UNK         0.1400 
    106 CB        -2.4208  -15.5826  -51.1324 C.3       19 UNK        -0.1800 
    107 C         -1.9706  -18.1041  -51.0478 C.2       19 UNK         0.5000 
    108 O         -1.1661  -17.9193  -51.9607 O.2       19 UNK        -0.5000 
    109 N         -2.2073  -19.2993  -50.4918 N.am      20 UNK        -0.5000 
    110 CA        -1.7171  -20.6013  -50.9425 C.3       20 UNK         0.1400 
    111 CB        -0.1791  -20.6794  -50.8118 C.3       20 UNK        -0.1800 
    112 C         -2.2384  -20.9372  -52.3560 C.2       20 UNK         0.5000 
    113 O         -3.3077  -20.4632  -52.7482 O.2       20 UNK        -0.5000 
    114 N         -1.4660  -21.7267  -53.1132 N.am      21 UNK        -0.5000 
    115 CA        -1.7039  -21.9975  -54.5343 C.3       21 UNK         0.1400 
    116 CB        -0.8070  -23.1666  -54.9696 C.3       21 UNK        -0.1800 
    117 C         -1.4612  -20.7609  -55.4283 C.2       21 UNK         0.5000 
    118 O         -1.9059  -20.7434  -56.5765 O.2       21 UNK        -0.5000 
    119 N         -0.7654  -19.7557  -54.8829 N.am      22 UNK        -0.5000 
    120 CA        -0.4700  -18.4629  -55.5124 C.3       22 UNK         0.1400 
    121 C         -1.6782  -17.4800  -55.5530 C.2       22 UNK         0.5000 
    122 N         -2.7963  -17.7602  -54.8920 N.am      22 UNK        -0.7600 
    123 O         -1.6048  -16.4482  -56.2148 O.2       22 UNK        -0.5000 
    124 C124        0.7697  -17.7932  -54.8640 C.3       23 UNK        -0.0398 
    125 S125        2.2390  -18.8777  -54.8662 S.3       23 UNK        -0.2404 
    126 C126        3.3712  -17.9509  -53.7867 C.3       23 UNK        -0.0205 
    127 H127        1.6667   -9.8105  -53.2915 H         1 UNK         0.0600 
    128 H128        2.3666   -8.5656  -52.2532 H         1 UNK         0.0600 
    129 H129        0.6223   -8.6063  -52.5320 H         1 UNK         0.0600 
    130 H130        1.4945  -11.7899  -52.2903 H         1 UNK         0.3000 
    131 H131        1.6939  -12.0848  -49.4197 H         1 UNK         0.0600 
    132 H132        1.0486  -14.4101  -51.2768 H         1 UNK         0.0800 
    133 H133        2.6147  -13.6662  -51.3927 H         1 UNK         0.0800 
    134 H134        0.5050  -16.1406  -49.7510 H         1 UNK         0.0800 
    135 H135        1.3995  -16.6282  -48.3375 H         1 UNK         0.0800 
    136 H136        2.0074  -16.3382  -52.0631 H         1 UNK         0.1150 
    137 H137        4.1332  -20.0463  -52.2332 H         1 UNK         0.1150 
    138 H138        2.6516  -18.5885  -48.4834 H         1 UNK         0.1150 
    139 H139        3.8018  -21.6103  -50.2257 H         1 UNK         0.0800 
    140 H140        5.1356  -20.6232  -49.6935 H         1 UNK         0.0800 
    141 H141        1.7431  -21.9432  -49.0571 H         1 UNK         0.0800 
    142 H142        1.2391  -21.0068  -47.6738 H         1 UNK         0.0800 
    143 H143        2.4996  -23.7986  -47.5662 H         1 UNK         0.0600 
    144 H144        1.7888  -21.9335  -45.4028 H         1 UNK         0.3000 
    145 H145        1.5197  -23.3288  -43.0585 H         1 UNK         0.0600 
    146 H146        3.3759  -23.9140  -41.4807 H         1 UNK         0.0600 
    147 H147        2.9231  -25.2645  -42.5075 H         1 UNK         0.0600 
    148 H148        4.3940  -24.3664  -42.8479 H         1 UNK         0.0600 
    149 H149        2.2865  -21.2745  -42.9621 H         1 UNK         0.3000 
    150 H150        5.2988  -19.7302  -42.8501 H         1 UNK         0.0600 
    151 H151        5.3647  -19.6728  -45.3587 H         1 UNK         0.0600 
    152 H152        4.7830  -18.1569  -44.6877 H         1 UNK         0.0600 
    153 H153        3.6449  -19.3027  -45.3916 H         1 UNK         0.0600 
    154 H154        2.6506  -18.6723  -43.2882 H         1 UNK         0.3000 
    155 H155        1.5460  -19.0387  -39.9073 H         1 UNK         0.0600 
    156 H156        2.8696  -16.9194  -39.9783 H         1 UNK         0.0600 
    157 H157        1.1538  -16.6134  -40.2024 H         1 UNK         0.0600 
    158 H158        2.2442  -16.5718  -41.5859 H         1 UNK         0.0600 
    159 H159        0.2551  -17.9414  -42.1884 H         1 UNK         0.3000 
    160 H160       -1.2197  -21.0041  -43.3748 H         1 UNK         0.0600 
    161 H161       -2.3515  -18.4591  -42.0991 H         1 UNK         0.0600 
    162 H162       -2.6539  -20.0989  -41.5354 H         1 UNK         0.0600 
    163 H163       -3.2308  -19.5970  -43.1176 H         1 UNK         0.0600 
    164 H164       -1.4016  -18.3766  -44.4062 H         1 UNK         0.3000 
    165 H165        1.4538  -18.5844  -46.5947 H         1 UNK         0.0600 
    166 H166       -0.3129  -18.0347  -48.2277 H         1 UNK         0.0600 
    167 H167       -0.6039  -19.6542  -47.6409 H         1 UNK         0.0600 
    168 H168       -1.5596  -18.3089  -47.0307 H         1 UNK         0.0600 
    169 H169       -0.3209  -16.4288  -46.1569 H         1 UNK         0.3000 
    170 H170        1.4204  -14.8700  -43.4378 H         1 UNK         0.0600 
    171 H171        2.4972  -14.1159  -45.5408 H         1 UNK         0.0600 
    172 H172        0.9593  -14.1563  -46.3849 H         1 UNK         0.0600 
    173 H173        1.2200  -13.0011  -45.0789 H         1 UNK         0.0600 
    174 H174       -1.0249  -14.3044  -44.8451 H         1 UNK         0.3000 
    175 H175       -3.2126  -16.0055  -42.6031 H         1 UNK         0.0600 
    176 H176       -2.6896  -13.8224  -41.5038 H         1 UNK         0.0600 
    177 H177       -2.6739  -13.0213  -43.0705 H         1 UNK         0.0600 
    178 H178       -4.1673  -13.7233  -42.4477 H         1 UNK         0.0600 
    179 H179       -3.6586  -14.3646  -44.9077 H         1 UNK         0.3000 
    180 H180       -3.5060  -16.9666  -47.3385 H         1 UNK         0.0600 
    181 H181       -5.7727  -17.1805  -46.3586 H         1 UNK         0.0600 
    182 H182       -5.8902  -15.4330  -46.1784 H         1 UNK         0.0600 
    183 H183       -5.8117  -16.1592  -47.7836 H         1 UNK         0.0600 
    184 H184       -4.1998  -14.2248  -47.5747 H         1 UNK         0.3000 
    185 H185       -2.7246  -12.9595  -48.9254 H         1 UNK         0.0600 
    186 H186       -3.0983  -12.1071  -46.6030 H         1 UNK         0.0600 
    187 H187       -1.3766  -12.2336  -46.2559 H         1 UNK         0.0600 
    188 H188       -1.9581  -11.0769  -47.4499 H         1 UNK         0.0600 
    189 H189        0.1194  -13.4177  -48.1625 H         1 UNK         0.3000 
    190 H190        0.6105  -23.7174  -49.3603 H         1 UNK         0.3000 
    191 H191       -1.2383  -25.6037  -48.5480 H         1 UNK         0.0600 
    192 H192       -1.2387  -23.8564  -51.0656 H         1 UNK         0.0600 
    193 H193       -2.0863  -25.3843  -50.8837 H         1 UNK         0.0600 
    194 H194       -0.3340  -25.3548  -50.8494 H         1 UNK         0.0600 
    195 H195       -1.6791  -22.3762  -47.7785 H         1 UNK         0.3000 
    196 H196       -4.3339  -21.7533  -48.4532 H         1 UNK         0.0600 
    197 H197       -4.1329  -20.1223  -46.5126 H         1 UNK         0.0600 
    198 H198       -2.8482  -20.0491  -47.6916 H         1 UNK         0.0600 
    199 H199       -2.5687  -20.8387  -46.1318 H         1 UNK         0.0600 
    200 H200       -3.2079  -23.9176  -45.9469 H         1 UNK         0.3000 
    201 H201       -5.5228  -24.0455  -44.3058 H         1 UNK         0.0600 
    202 H202       -4.5614  -26.2566  -43.6305 H         1 UNK         0.0600 
    203 H203       -3.4257  -26.1828  -44.9729 H         1 UNK         0.0600 
    204 H204       -3.3270  -25.0074  -43.6614 H         1 UNK         0.0600 
    205 H205       -4.9151  -25.3306  -47.5205 H         1 UNK         0.3000 
    206 H206       -7.5520  -26.7606  -47.5247 H         1 UNK         0.0600 
    207 H207       -5.6355  -28.2736  -47.9779 H         1 UNK         0.0600 
    208 H208       -6.6016  -28.0518  -49.4287 H         1 UNK         0.0600 
    209 H209       -5.0651  -27.2086  -49.2613 H         1 UNK         0.0600 
    210 H210       -5.3477  -24.5518  -49.3105 H         1 UNK         0.3000 
    211 H211       -7.1241  -24.1589  -51.5097 H         1 UNK         0.0600 
    212 H212       -5.4104  -22.5185  -52.2281 H         1 UNK         0.0600 
    213 H213       -4.6383  -23.9883  -51.6557 H         1 UNK         0.0600 
    214 H214       -4.6653  -22.5500  -50.6388 H         1 UNK         0.0600 
    215 H215       -6.9463  -22.5516  -48.4232 H         1 UNK         0.3000 
    216 H216       -8.0326  -20.9767  -47.3949 H         1 UNK         0.0600 
    217 H217      -10.2500  -20.2055  -48.1303 H         1 UNK         0.0600 
    218 H218      -10.1077  -21.9402  -48.3698 H         1 UNK         0.0600 
    219 H219       -9.9881  -20.8427  -49.7453 H         1 UNK         0.0600 
    220 H220       -7.2145  -20.1288  -50.6946 H         1 UNK         0.3000 
    221 H221       -7.0245  -17.2501  -50.2627 H         1 UNK         0.0600 
    222 H222       -5.9690  -19.0206  -52.5421 H         1 UNK         0.0600 
    223 H223       -7.5942  -18.3430  -52.4822 H         1 UNK         0.0600 
    224 H224       -6.2109  -17.2769  -52.6026 H         1 UNK         0.0600 
    225 H225       -4.6617  -16.5858  -51.4634 H         1 UNK         0.3000 
    226 H226       -2.6249  -16.8744  -49.4356 H         1 UNK         0.0600 
    227 H227       -2.9995  -14.7625  -50.7081 H         1 UNK         0.0600 
    228 H228       -1.3689  -15.3607  -50.9555 H         1 UNK         0.0600 
    229 H229       -2.5778  -15.5782  -52.2119 H         1 UNK         0.0600 
    230 H230       -2.9771  -19.3263  -49.8270 H         1 UNK         0.3000 
    231 H231       -2.1551  -21.3391  -50.2725 H         1 UNK         0.0600 
    232 H232        0.1470  -20.3125  -49.8404 H         1 UNK         0.0600 
    233 H233        0.3295  -20.0778  -51.5666 H         1 UNK         0.0600 
    234 H234        0.1790  -21.7037  -50.9098 H         1 UNK         0.0600 
    235 H235       -0.5988  -22.0753  -52.7325 H         1 UNK         0.3000 
    236 H236       -2.7465  -22.2970  -54.6604 H         1 UNK         0.0600 
    237 H237       -1.0083  -24.0602  -54.3783 H         1 UNK         0.0600 
    238 H238       -0.9812  -23.4242  -56.0152 H         1 UNK         0.0600 
    239 H239        0.2509  -22.9231  -54.8637 H         1 UNK         0.0600 
    240 H240       -0.4511  -19.8497  -53.9290 H         1 UNK         0.3000 
    241 H241       -0.2196  -18.6633  -56.5558 H         1 UNK         0.0600 
    242 H242       -2.8599  -18.5919  -54.3233 H         1 UNK         0.3800 
    243 H243       -3.5726  -17.1210  -54.9419 H         1 UNK         0.3800 
    244 H244        1.0282  -16.8749  -55.3940 H         1 UNK         0.0800 
    245 H245        0.5499  -17.5027  -53.8367 H         1 UNK         0.0800 
    246 H246        3.3269  -16.8890  -54.0337 H         1 UNK         0.0800 
    247 H247        4.3925  -18.2653  -54.0069 H         1 UNK         0.0800 
@<TRIPOS>BOND
     1    1    2 1    
     2    1  127 1    
     3    1  128 1    
     4    1  129 1    
     5    2    3 2    
     6    2    4 am   BACKBONE|DICT|INTERRES
     7    4    5 1    
     8    4  130 1    
     9    5    6 1    
    10    5   65 1    
    11    5  131 1    
    12    6    7 1    
    13    6  132 1    
    14    6  133 1    
    15    7    8 1    
    16    8    9 1    
    17    8  134 1    
    18    8  135 1    
    19    9   10 ar   
    20    9   14 ar   
    21   10   11 ar   
    22   10  136 1    
    23   11   12 ar   
    24   11  126 1    
    25   12   13 ar   
    26   12  137 1    
    27   13   14 ar   
    28   13   15 1    
    29   14  138 1    
    30   15   16 1    
    31   15  139 1    
    32   15  140 1    
    33   16   17 1    
    34   17   18 1    
    35   17  141 1    
    36   17  142 1    
    37   18   19 1    
    38   18   67 1    
    39   18  143 1    
    40   19   20 am   BACKBONE|DICT|INTERRES
    41   19  144 1    
    42   20   21 2    
    43   20   22 1    
    44   22   23 1    
    45   22   24 1    
    46   22  145 1    
    47   23  146 1    
    48   23  147 1    
    49   23  148 1    
    50   24   25 am   BACKBONE|DICT|INTERRES
    51   24  149 1    
    52   25   26 2    
    53   25   27 1    
    54   27   28 1    
    55   27   29 1    
    56   27  150 1    
    57   28  151 1    
    58   28  152 1    
    59   28  153 1    
    60   29   30 am   BACKBONE|DICT|INTERRES
    61   29  154 1    
    62   30   31 2    
    63   30   32 1    
    64   32   33 1    
    65   32   34 1    
    66   32  155 1    
    67   33  156 1    
    68   33  157 1    
    69   33  158 1    
    70   34   35 am   BACKBONE|DICT|INTERRES
    71   34  159 1    
    72   35   36 2    
    73   35   37 1    
    74   37   38 1    
    75   37   39 1    
    76   37  160 1    
    77   38  161 1    
    78   38  162 1    
    79   38  163 1    
    80   39   40 am   BACKBONE|DICT|INTERRES
    81   39  164 1    
    82   40   41 2    
    83   40   42 1    
    84   42   43 1    
    85   42   44 1    
    86   42  165 1    
    87   43  166 1    
    88   43  167 1    
    89   43  168 1    
    90   44   45 am   BACKBONE|DICT|INTERRES
    91   44  169 1    
    92   45   46 2    
    93   45   47 1    
    94   47   48 1    
    95   47   49 1    
    96   47  170 1    
    97   48  171 1    
    98   48  172 1    
    99   48  173 1    
   100   49   50 am   BACKBONE|DICT|INTERRES
   101   49  174 1    
   102   50   51 2    
   103   50   52 1    
   104   52   53 1    
   105   52   54 1    
   106   52  175 1    
   107   53  176 1    
   108   53  177 1    
   109   53  178 1    
   110   54   55 am   BACKBONE|DICT|INTERRES
   111   54  179 1    
   112   55   56 2    
   113   55   57 1    
   114   57   58 1    
   115   57   59 1    
   116   57  180 1    
   117   58  181 1    
   118   58  182 1    
   119   58  183 1    
   120   59   60 am   BACKBONE|DICT|INTERRES
   121   59  184 1    
   122   60   61 2    
   123   60   62 1    
   124   62   63 1    
   125   62   64 1    
   126   62  185 1    
   127   63  186 1    
   128   63  187 1    
   129   63  188 1    
   130   64   65 am   BACKBONE|DICT|INTERRES
   131   64  189 1    
   132   65   66 2    
   133   67   68 2    
   134   67   69 am   BACKBONE|DICT|INTERRES
   135   69   70 1    
   136   69  190 1    
   137   70   71 1    
   138   70   72 1    
   139   70  191 1    
   140   71  192 1    
   141   71  193 1    
   142   71  194 1    
   143   72   73 2    
   144   72   74 am   BACKBONE|DICT|INTERRES
   145   74   75 1    
   146   74  195 1    
   147   75   76 1    
   148   75   77 1    
   149   75  196 1    
   150   76  197 1    
   151   76  198 1    
   152   76  199 1    
   153   77   78 2    
   154   77   79 am   BACKBONE|DICT|INTERRES
   155   79   80 1    
   156   79  200 1    
   157   80   81 1    
   158   80   82 1    
   159   80  201 1    
   160   81  202 1    
   161   81  203 1    
   162   81  204 1    
   163   82   83 2    
   164   82   84 am   BACKBONE|DICT|INTERRES
   165   84   85 1    
   166   84  205 1    
   167   85   86 1    
   168   85   87 1    
   169   85  206 1    
   170   86  207 1    
   171   86  208 1    
   172   86  209 1    
   173   87   88 2    
   174   87   89 am   BACKBONE|DICT|INTERRES
   175   89   90 1    
   176   89  210 1    
   177   90   91 1    
   178   90   92 1    
   179   90  211 1    
   180   91  212 1    
   181   91  213 1    
   182   91  214 1    
   183   92   93 2    
   184   92   94 am   BACKBONE|DICT|INTERRES
   185   94   95 1    
   186   94  215 1    
   187   95   96 1    
   188   95   97 1    
   189   95  216 1    
   190   96  217 1    
   191   96  218 1    
   192   96  219 1    
   193   97   98 2    
   194   97   99 am   BACKBONE|DICT|INTERRES
   195   99  100 1    
   196   99  220 1    
   197  100  101 1    
   198  100  102 1    
   199  100  221 1    
   200  101  222 1    
   201  101  223 1    
   202  101  224 1    
   203  102  103 2    
   204  102  104 am   BACKBONE|DICT|INTERRES
   205  104  105 1    
   206  104  225 1    
   207  105  106 1    
   208  105  107 1    
   209  105  226 1    
   210  106  227 1    
   211  106  228 1    
   212  106  229 1    
   213  107  108 2    
   214  107  109 am   BACKBONE|DICT|INTERRES
   215  109  110 1    
   216  109  230 1    
   217  110  111 1    
   218  110  112 1    
   219  110  231 1    
   220  111  232 1    
   221  111  233 1    
   222  111  234 1    
   223  112  113 2    
   224  112  114 am   BACKBONE|DICT|INTERRES
   225  114  115 1    
   226  114  235 1    
   227  115  116 1    
   228  115  117 1    
   229  115  236 1    
   230  116  237 1    
   231  116  238 1    
   232  116  239 1    
   233  117  118 2    
   234  117  119 am   BACKBONE|DICT|INTERRES
   235  119  120 1    
   236  119  240 1    
   237  120  121 1    
   238  120  124 1    
   239  120  241 1    
   240  121  122 am   BACKBONE|DICT|INTERRES
   241  121  123 2    
   242  122  242 1    
   243  122  243 1    
   244  124  125 1    
   245  124  244 1    
   246  124  245 1    
   247  125  126 1    
   248  126  246 1    
   249  126  247 1    
@<TRIPOS>SUBSTRUCTURE
     1 UNK         1 GROUP             0       ****    0 ROOT    
