@<TRIPOS>MOLECULE
3R540
247   249    1
SMALL
USER_CHARGES


@<TRIPOS>ATOM
      1 CA         -2.0797  -13.6377  -48.0608 C.3       0 UNK        -0.1800 
      2 C          -0.5656  -13.6632  -48.1932 C.2       0 UNK         0.5000 
      3 O           0.1119  -12.7932  -47.6474 O.2       0 UNK        -0.5000 
      4 N          -0.0386  -14.6568  -48.9204 N.am      1 UNK        -0.5000 
      5 CA          1.3816  -14.7975  -49.2682 C.3       1 UNK         0.1400 
      6 C6          1.6550  -15.9469  -50.2741 C.3       23 UNK        -0.0398 
      7 S7          0.5435  -15.9330  -51.7257 S.3       23 UNK        -0.2404 
      8 C8         -0.4394  -17.4471  -51.4663 C.3       23 UNK        -0.0205 
      9 C9         -1.3636  -17.3340  -50.2631 C.ar      23 UNK        -0.0193 
     10 C10        -2.6010  -16.6981  -50.3850 C.ar      23 UNK        -0.1150 
     11 C11        -3.4528  -16.5883  -49.2823 C.ar      23 UNK        -0.0193 
     12 C12        -3.0601  -17.1256  -48.0532 C.ar      23 UNK        -0.1150 
     13 C13        -1.8274  -17.7702  -47.9136 C.ar      23 UNK        -0.0193 
     14 C14        -0.9823  -17.8635  -49.0273 C.ar      23 UNK        -0.1150 
     15 C15        -1.4454  -18.3516  -46.5499 C.3       23 UNK        -0.0205 
     16 S16        -0.3223  -19.7938  -46.6092 S.3       23 UNK        -0.2404 
     17 C17        -1.2657  -20.9348  -47.6746 C.3       23 UNK        -0.0398 
     18 CA         -1.6944  -22.2481  -46.9852 C.3       11 UNK         0.1400 
     19 N          -2.3439  -22.0303  -45.6858 N.am      11 UNK        -0.5000 
     20 C          -2.8055  -22.9905  -44.8735 C.2       10 UNK         0.5000 
     21 O          -2.8425  -24.1831  -45.1832 O.2       10 UNK        -0.5000 
     22 CA         -3.2524  -22.5358  -43.4716 C.3       10 UNK         0.1400 
     23 CB         -3.9329  -23.6638  -42.6749 C.3       10 UNK        -0.1800 
     24 N          -2.0933  -22.0554  -42.7200 N.am      10 UNK        -0.5000 
     25 C          -1.5939  -20.8158  -42.7858 C.2       9 UNK         0.5000 
     26 O          -2.1098  -19.9047  -43.4379 O.2       9 UNK        -0.5000 
     27 CA         -0.2584  -20.5885  -42.0584 C.3       9 UNK         0.1400 
     28 CB          0.9209  -20.8591  -43.0063 C.3       9 UNK        -0.1800 
     29 N          -0.1348  -19.2284  -41.5460 N.am      9 UNK        -0.5000 
     30 C          -0.7487  -18.7455  -40.4607 C.2       8 UNK         0.5000 
     31 O          -1.5170  -19.4108  -39.7630 O.2       8 UNK        -0.5000 
     32 CA         -0.3893  -17.2934  -40.0683 C.3       8 UNK         0.1400 
     33 CB         -1.0480  -16.8508  -38.7491 C.3       8 UNK        -0.1800 
     34 N           1.0632  -17.1169  -39.9538 N.am      8 UNK        -0.5000 
     35 C           1.8920  -16.9310  -40.9873 C.2       7 UNK         0.5000 
     36 O           1.5034  -16.8391  -42.1516 O.2       7 UNK        -0.5000 
     37 CA          3.3952  -16.9510  -40.6882 C.3       7 UNK         0.1400 
     38 CB          3.9391  -18.3785  -40.9034 C.3       7 UNK        -0.1800 
     39 N           4.0833  -15.9964  -41.5563 N.am      7 UNK        -0.5000 
     40 C           5.3643  -15.6226  -41.4321 C.2       6 UNK         0.5000 
     41 O           6.1198  -16.0455  -40.5559 O.2       6 UNK        -0.5000 
     42 CA          5.8839  -14.5721  -42.4273 C.3       6 UNK         0.1400 
     43 CB          6.0116  -15.1475  -43.8472 C.3       6 UNK        -0.1800 
     44 N           5.0191  -13.3892  -42.4195 N.am      6 UNK        -0.5000 
     45 C           5.2026  -12.3555  -41.5838 C.2       5 UNK         0.5000 
     46 O           6.1576  -12.2871  -40.8070 O.2       5 UNK        -0.5000 
     47 CA          4.1541  -11.2212  -41.5625 C.3       5 UNK         0.1400 
     48 CB          4.7926   -9.8368  -41.3193 C.3       5 UNK        -0.1800 
     49 N           3.2448  -11.1686  -42.7099 N.am      5 UNK        -0.5000 
     50 C           3.5226  -10.9071  -43.9937 C.2       4 UNK         0.5000 
     51 O           4.6656  -10.7603  -44.4296 O.2       4 UNK        -0.5000 
     52 CA          2.2999  -10.7827  -44.9375 C.3       4 UNK         0.1400 
     53 CB          2.7043  -10.5371  -46.4022 C.3       4 UNK        -0.1800 
     54 N           1.4287  -11.9574  -44.8927 N.am      4 UNK        -0.5000 
     55 C           0.6478  -12.3461  -43.8752 C.2       3 UNK         0.5000 
     56 O           0.4543  -11.6648  -42.8671 O.2       3 UNK        -0.5000 
     57 CA          0.0332  -13.7565  -43.9629 C.3       3 UNK         0.1400 
     58 CB         -1.4507  -13.6806  -44.3490 C.3       3 UNK        -0.1800 
     59 N           0.7349  -14.6488  -44.8905 N.am      3 UNK        -0.5000 
     60 C           2.0055  -15.0594  -44.7531 C.2       2 UNK         0.5000 
     61 O           2.7501  -14.6807  -43.8471 O.2       2 UNK        -0.5000 
     62 CA          2.5372  -16.0386  -45.8144 C.3       2 UNK         0.1400 
     63 CB          2.3496  -17.4886  -45.3445 C.3       2 UNK        -0.1800 
     64 N           1.8772  -15.8494  -47.1082 N.am      2 UNK        -0.5000 
     65 C           2.2747  -14.9498  -48.0203 C.2       1 UNK         0.5000 
     66 O           3.2737  -14.2405  -47.8955 O.2       1 UNK        -0.5000 
     67 C          -2.5477  -23.0731  -47.9683 C.2       11 UNK         0.5000 
     68 O          -2.0051  -23.9088  -48.6877 O.2       11 UNK        -0.5000 
     69 N          -3.8685  -22.8483  -47.9517 N.am      12 UNK        -0.5000 
     70 CA         -4.8372  -23.5430  -48.7982 C.3       12 UNK         0.1400 
     71 CB         -6.1935  -22.8298  -48.6917 C.3       12 UNK        -0.1800 
     72 C          -4.9830  -25.0444  -48.4785 C.2       12 UNK         0.5000 
     73 O          -5.3551  -25.8151  -49.3630 O.2       12 UNK        -0.5000 
     74 N          -4.6821  -25.4395  -47.2334 N.am      13 UNK        -0.5000 
     75 CA         -4.6133  -26.8410  -46.8215 C.3       13 UNK         0.1400 
     76 CB         -4.8961  -26.9465  -45.3145 C.3       13 UNK        -0.1800 
     77 C          -3.2460  -27.4592  -47.1656 C.2       13 UNK         0.5000 
     78 O          -3.1752  -28.6586  -47.4362 O.2       13 UNK        -0.5000 
     79 N          -2.1888  -26.6352  -47.1483 N.am      14 UNK        -0.5000 
     80 CA         -0.8171  -27.0335  -47.4548 C.3       14 UNK         0.1400 
     81 CB          0.1585  -25.9779  -46.9108 C.3       14 UNK        -0.1800 
     82 C          -0.5802  -27.2775  -48.9568 C.2       14 UNK         0.5000 
     83 O           0.1264  -28.2273  -49.2990 O.2       14 UNK        -0.5000 
     84 N          -1.1603  -26.4362  -49.8243 N.am      15 UNK        -0.5000 
     85 CA         -1.0009  -26.5186  -51.2735 C.3       15 UNK         0.1400 
     86 CB          0.2337  -25.7078  -51.7050 C.3       15 UNK        -0.1800 
     87 C          -2.2547  -26.0100  -51.9959 C.2       15 UNK         0.5000 
     88 O          -2.7747  -24.9441  -51.6599 O.2       15 UNK        -0.5000 
     89 N          -2.6711  -26.7444  -53.0361 N.am      16 UNK        -0.5000 
     90 CA         -3.7782  -26.3785  -53.9241 C.3       16 UNK         0.1400 
     91 CB         -4.1433  -27.5832  -54.8035 C.3       16 UNK        -0.1800 
     92 C          -3.4668  -25.1478  -54.7974 C.2       16 UNK         0.5000 
     93 O          -4.3796  -24.3938  -55.1318 O.2       16 UNK        -0.5000 
     94 N          -2.1819  -24.9394  -55.1199 N.am      17 UNK        -0.5000 
     95 CA         -1.6909  -23.7559  -55.8284 C.3       17 UNK         0.1400 
     96 CB         -0.2179  -23.9630  -56.2107 C.3       17 UNK        -0.1800 
     97 C          -1.8636  -22.4710  -54.9986 C.2       17 UNK         0.5000 
     98 O          -2.2617  -21.4407  -55.5427 O.2       17 UNK        -0.5000 
     99 N          -1.6114  -22.5702  -53.6854 N.am      18 UNK        -0.5000 
    100 CA        -1.8456  -21.4898  -52.7309 C.3       18 UNK         0.1400 
    101 CB        -1.1154  -21.7776  -51.4156 C.3       18 UNK        -0.1800 
    102 C         -3.3452  -21.2520  -52.4932 C.2       18 UNK         0.5000 
    103 O         -3.7534  -20.0977  -52.3907 O.2       18 UNK        -0.5000 
    104 N         -4.1460  -22.3298  -52.4696 N.am      19 UNK        -0.5000 
    105 CA        -5.6100  -22.2682  -52.4015 C.3       19 UNK         0.1400 
    106 CB        -6.2011  -23.6847  -52.3032 C.3       19 UNK        -0.1800 
    107 C         -6.2232  -21.5194  -53.5989 C.2       19 UNK         0.5000 
    108 O         -7.1190  -20.6983  -53.4050 O.2       19 UNK        -0.5000 
    109 N         -5.7030  -21.7940  -54.8039 N.am      20 UNK        -0.5000 
    110 CA        -6.0650  -21.1107  -56.0439 C.3       20 UNK         0.1400 
    111 CB        -5.4516  -21.8521  -57.2415 C.3       20 UNK        -0.1800 
    112 C         -5.6522  -19.6278  -56.0361 C.2       20 UNK         0.5000 
    113 O         -6.4747  -18.7717  -56.3643 O.2       20 UNK        -0.5000 
    114 N         -4.4080  -19.3437  -55.6213 N.am      21 UNK        -0.5000 
    115 CA        -3.8600  -17.9887  -55.4895 C.3       21 UNK         0.1400 
    116 CB        -2.3697  -18.0730  -55.1302 C.3       21 UNK        -0.1800 
    117 C         -4.6175  -17.1166  -54.4680 C.2       21 UNK         0.5000 
    118 O         -4.7912  -15.9197  -54.6998 O.2       21 UNK        -0.5000 
    119 N         -5.0816  -17.7409  -53.3797 N.am      22 UNK        -0.5000 
    120 CA        -5.9657  -17.1505  -52.3647 C.3       22 UNK         0.1400 
    121 C         -7.4445  -16.9496  -52.8256 C.2       22 UNK         0.5000 
    122 N         -7.8548  -17.4020  -54.0051 N.am      22 UNK        -0.7600 
    123 O         -8.2386  -16.3442  -52.1117 O.2       22 UNK        -0.5000 
    124 C124       -5.8552  -17.9421  -51.0322 C.3       23 UNK        -0.0398 
    125 S125       -6.2131  -16.9741  -49.5255 S.3       23 UNK        -0.2404 
    126 C126       -4.7796  -15.8534  -49.4089 C.3       23 UNK        -0.0205 
    127 H127       -2.4199  -12.6570  -47.7277 H         1 UNK         0.0600 
    128 H128       -2.4113  -14.3793  -47.3348 H         1 UNK         0.0600 
    129 H129       -2.5535  -13.8471  -49.0193 H         1 UNK         0.0600 
    130 H130       -0.6546  -15.3377  -49.3451 H         1 UNK         0.3000 
    131 H131        1.6711  -13.8641  -49.7559 H         1 UNK         0.0600 
    132 H132        2.6779  -15.8697  -50.6468 H         1 UNK         0.0800 
    133 H133        1.5987  -16.9200  -49.7864 H         1 UNK         0.0800 
    134 H134       -1.0348  -17.6340  -52.3601 H         1 UNK         0.0800 
    135 H135        0.2259  -18.3058  -51.3630 H         1 UNK         0.0800 
    136 H136       -2.8975  -16.2842  -51.3389 H         1 UNK         0.1150 
    137 H137       -3.7205  -17.0379  -47.2017 H         1 UNK         0.1150 
    138 H138       -0.0260  -18.3575  -48.9399 H         1 UNK         0.1150 
    139 H139       -0.9797  -17.5671  -45.9533 H         1 UNK         0.0800 
    140 H140       -2.3459  -18.6496  -46.0105 H         1 UNK         0.0800 
    141 H141       -0.6261  -21.1630  -48.5277 H         1 UNK         0.0800 
    142 H142       -2.1385  -20.4199  -48.0794 H         1 UNK         0.0800 
    143 H143       -0.7907  -22.8254  -46.7810 H         1 UNK         0.0600 
    144 H144       -2.3027  -21.0851  -45.3235 H         1 UNK         0.3000 
    145 H145       -3.9770  -21.7283  -43.5955 H         1 UNK         0.0600 
    146 H146       -4.2745  -23.3078  -41.7029 H         1 UNK         0.0600 
    147 H147       -4.8062  -24.0450  -43.2061 H         1 UNK         0.0600 
    148 H148       -3.2591  -24.5048  -42.5056 H         1 UNK         0.0600 
    149 H149       -1.5883  -22.7559  -42.1963 H         1 UNK         0.3000 
    150 H150       -0.1937  -21.2819  -41.2170 H         1 UNK         0.0600 
    151 H151        0.9345  -20.1564  -43.8403 H         1 UNK         0.0600 
    152 H152        0.8684  -21.8649  -43.4253 H         1 UNK         0.0600 
    153 H153        1.8739  -20.7734  -42.4837 H         1 UNK         0.0600 
    154 H154        0.4514  -18.5914  -42.0741 H         1 UNK         0.3000 
    155 H155       -0.7687  -16.6435  -40.8600 H         1 UNK         0.0600 
    156 H156       -0.7197  -17.4635  -37.9086 H         1 UNK         0.0600 
    157 H157       -2.1344  -16.9274  -38.8088 H         1 UNK         0.0600 
    158 H158       -0.8103  -15.8119  -38.5199 H         1 UNK         0.0600 
    159 H159        1.4528  -17.2394  -39.0300 H         1 UNK         0.3000 
    160 H160        3.5510  -16.6529  -39.6494 H         1 UNK         0.0600 
    161 H161        3.8627  -18.6806  -41.9488 H         1 UNK         0.0600 
    162 H162        3.3802  -19.1049  -40.3118 H         1 UNK         0.0600 
    163 H163        4.9839  -18.4637  -40.6064 H         1 UNK         0.0600 
    164 H164        3.5119  -15.5976  -42.2991 H         1 UNK         0.3000 
    165 H165        6.8915  -14.2864  -42.1175 H         1 UNK         0.0600 
    166 H166        6.8035  -15.8962  -43.8853 H         1 UNK         0.0600 
    167 H167        5.0988  -15.6362  -44.1792 H         1 UNK         0.0600 
    168 H168        6.2622  -14.3709  -44.5700 H         1 UNK         0.0600 
    169 H169        4.1893  -13.4278  -43.0009 H         1 UNK         0.3000 
    170 H170        3.5183  -11.4362  -40.7027 H         1 UNK         0.0600 
    171 H171        5.3336   -9.8117  -40.3727 H         1 UNK         0.0600 
    172 H172        5.5004   -9.5747  -42.1063 H         1 UNK         0.0600 
    173 H173        4.0347   -9.0547  -41.2752 H         1 UNK         0.0600 
    174 H174        2.2615  -11.3056  -42.4887 H         1 UNK         0.3000 
    175 H175        1.7237   -9.9185  -44.6012 H         1 UNK         0.0600 
    176 H176        1.8270  -10.4002  -47.0350 H         1 UNK         0.0600 
    177 H177        3.3154   -9.6388  -46.4973 H         1 UNK         0.0600 
    178 H178        3.2779  -11.3732  -46.8050 H         1 UNK         0.0600 
    179 H179        1.4849  -12.5755  -45.6913 H         1 UNK         0.3000 
    180 H180        0.1040  -14.2042  -42.9691 H         1 UNK         0.0600 
    181 H181       -1.5908  -13.1642  -45.2977 H         1 UNK         0.0600 
    182 H182       -2.0182  -13.1323  -43.5961 H         1 UNK         0.0600 
    183 H183       -1.8944  -14.6731  -44.4311 H         1 UNK         0.0600 
    184 H184        0.2084  -14.9766  -45.6841 H         1 UNK         0.3000 
    185 H185        3.6076  -15.8623  -45.9327 H         1 UNK         0.0600 
    186 H186        2.9341  -17.6806  -44.4437 H         1 UNK         0.0600 
    187 H187        1.3088  -17.7045  -45.1037 H         1 UNK         0.0600 
    188 H188        2.6766  -18.2004  -46.1026 H         1 UNK         0.0600 
    189 H189        1.0506  -16.3992  -47.2891 H         1 UNK         0.3000 
    190 H190       -4.2338  -22.1575  -47.3127 H         1 UNK         0.3000 
    191 H191       -4.4802  -23.4625  -49.8256 H         1 UNK         0.0600 
    192 H192       -6.1155  -21.7846  -48.9915 H         1 UNK         0.0600 
    193 H193       -6.9345  -23.2993  -49.3397 H         1 UNK         0.0600 
    194 H194       -6.5834  -22.8594  -47.6736 H         1 UNK         0.0600 
    195 H195       -4.3427  -24.7577  -46.5657 H         1 UNK         0.3000 
    196 H196       -5.3826  -27.4119  -47.3460 H         1 UNK         0.0600 
    197 H197       -4.9120  -27.9893  -44.9955 H         1 UNK         0.0600 
    198 H198       -5.8651  -26.5149  -45.0635 H         1 UNK         0.0600 
    199 H199       -4.1377  -26.4363  -44.7204 H         1 UNK         0.0600 
    200 H200       -2.3366  -25.6653  -46.9040 H         1 UNK         0.3000 
    201 H201       -0.6160  -27.9705  -46.9309 H         1 UNK         0.0600 
    202 H202        1.1910  -26.3084  -47.0295 H         1 UNK         0.0600 
    203 H203        0.0609  -25.0274  -47.4342 H         1 UNK         0.0600 
    204 H204       -0.0058  -25.7956  -45.8485 H         1 UNK         0.0600 
    205 H205       -1.7018  -25.6451  -49.4810 H         1 UNK         0.3000 
    206 H206       -0.8502  -27.5615  -51.5610 H         1 UNK         0.0600 
    207 H207        1.1447  -26.1120  -51.2633 H         1 UNK         0.0600 
    208 H208        0.3622  -25.7291  -52.7878 H         1 UNK         0.0600 
    209 H209        0.1521  -24.6634  -51.4013 H         1 UNK         0.0600 
    210 H210       -2.1887  -27.6045  -53.2543 H         1 UNK         0.3000 
    211 H211       -4.6426  -26.1354  -53.3033 H         1 UNK         0.0600 
    212 H212       -3.3091  -27.8894  -55.4360 H         1 UNK         0.0600 
    213 H213       -4.9829  -27.3471  -55.4589 H         1 UNK         0.0600 
    214 H214       -4.4379  -28.4397  -54.1967 H         1 UNK         0.0600 
    215 H215       -1.4942  -25.6157  -54.8241 H         1 UNK         0.3000 
    216 H216       -2.2718  -23.6417  -56.7463 H         1 UNK         0.0600 
    217 H217        0.1689  -23.0989  -56.7526 H         1 UNK         0.0600 
    218 H218       -0.0974  -24.8316  -56.8584 H         1 UNK         0.0600 
    219 H219        0.4120  -24.1088  -55.3323 H         1 UNK         0.0600 
    220 H220       -1.3316  -23.4617  -53.3055 H         1 UNK         0.3000 
    221 H221       -1.4242  -20.5722  -53.1459 H         1 UNK         0.0600 
    222 H222       -1.4811  -22.6882  -50.9435 H         1 UNK         0.0600 
    223 H223       -0.0422  -21.8857  -51.5718 H         1 UNK         0.0600 
    224 H224       -1.2634  -20.9547  -50.7166 H         1 UNK         0.0600 
    225 H225       -3.7229  -23.2501  -52.5022 H         1 UNK         0.3000 
    226 H226       -5.8684  -21.7223  -51.4924 H         1 UNK         0.0600 
    227 H227       -7.2444  -23.6427  -51.9891 H         1 UNK         0.0600 
    228 H228       -6.1779  -24.2051  -53.2597 H         1 UNK         0.0600 
    229 H229       -5.6685  -24.3034  -51.5840 H         1 UNK         0.0600 
    230 H230       -5.0160  -22.5383  -54.8769 H         1 UNK         0.3000 
    231 H231       -7.1517  -21.1530  -56.1426 H         1 UNK         0.0600 
    232 H232       -4.3629  -21.8716  -57.1927 H         1 UNK         0.0600 
    233 H233       -5.7301  -21.3734  -58.1810 H         1 UNK         0.0600 
    234 H234       -5.8006  -22.8840  -57.2853 H         1 UNK         0.0600 
    235 H235       -3.7790  -20.1098  -55.4022 H         1 UNK         0.3000 
    236 H236       -3.9469  -17.5026  -56.4632 H         1 UNK         0.0600 
    237 H237       -1.8077  -18.6049  -55.8980 H         1 UNK         0.0600 
    238 H238       -1.9312  -17.0790  -55.0334 H         1 UNK         0.0600 
    239 H239       -2.2191  -18.5930  -54.1853 H         1 UNK         0.0600 
    240 H240       -4.8277  -18.7139  -53.2357 H         1 UNK         0.3000 
    241 H241       -5.5841  -16.1449  -52.1875 H         1 UNK         0.0600 
    242 H242       -7.2276  -17.8954  -54.6282 H         1 UNK         0.3800 
    243 H243       -8.8118  -17.2529  -54.2821 H         1 UNK         0.3800 
    244 H244       -4.8495  -18.3414  -50.9086 H         1 UNK         0.0800 
    245 H245       -6.5068  -18.8174  -51.0532 H         1 UNK         0.0800 
    246 H246       -4.9150  -15.2123  -48.5366 H         1 UNK         0.0800 
    247 H247       -4.7652  -15.1811  -50.2672 H         1 UNK         0.0800 
@<TRIPOS>BOND
     1    1    2 1    
     2    1  127 1    
     3    1  128 1    
     4    1  129 1    
     5    2    3 2    
     6    2    4 am   BACKBONE|DICT|INTERRES
     7    4    5 1    
     8    4  130 1    
     9    5    6 1    
    10    5   65 1    
    11    5  131 1    
    12    6    7 1    
    13    6  132 1    
    14    6  133 1    
    15    7    8 1    
    16    8    9 1    
    17    8  134 1    
    18    8  135 1    
    19    9   10 ar   
    20    9   14 ar   
    21   10   11 ar   
    22   10  136 1    
    23   11   12 ar   
    24   11  126 1    
    25   12   13 ar   
    26   12  137 1    
    27   13   14 ar   
    28   13   15 1    
    29   14  138 1    
    30   15   16 1    
    31   15  139 1    
    32   15  140 1    
    33   16   17 1    
    34   17   18 1    
    35   17  141 1    
    36   17  142 1    
    37   18   19 1    
    38   18   67 1    
    39   18  143 1    
    40   19   20 am   BACKBONE|DICT|INTERRES
    41   19  144 1    
    42   20   21 2    
    43   20   22 1    
    44   22   23 1    
    45   22   24 1    
    46   22  145 1    
    47   23  146 1    
    48   23  147 1    
    49   23  148 1    
    50   24   25 am   BACKBONE|DICT|INTERRES
    51   24  149 1    
    52   25   26 2    
    53   25   27 1    
    54   27   28 1    
    55   27   29 1    
    56   27  150 1    
    57   28  151 1    
    58   28  152 1    
    59   28  153 1    
    60   29   30 am   BACKBONE|DICT|INTERRES
    61   29  154 1    
    62   30   31 2    
    63   30   32 1    
    64   32   33 1    
    65   32   34 1    
    66   32  155 1    
    67   33  156 1    
    68   33  157 1    
    69   33  158 1    
    70   34   35 am   BACKBONE|DICT|INTERRES
    71   34  159 1    
    72   35   36 2    
    73   35   37 1    
    74   37   38 1    
    75   37   39 1    
    76   37  160 1    
    77   38  161 1    
    78   38  162 1    
    79   38  163 1    
    80   39   40 am   BACKBONE|DICT|INTERRES
    81   39  164 1    
    82   40   41 2    
    83   40   42 1    
    84   42   43 1    
    85   42   44 1    
    86   42  165 1    
    87   43  166 1    
    88   43  167 1    
    89   43  168 1    
    90   44   45 am   BACKBONE|DICT|INTERRES
    91   44  169 1    
    92   45   46 2    
    93   45   47 1    
    94   47   48 1    
    95   47   49 1    
    96   47  170 1    
    97   48  171 1    
    98   48  172 1    
    99   48  173 1    
   100   49   50 am   BACKBONE|DICT|INTERRES
   101   49  174 1    
   102   50   51 2    
   103   50   52 1    
   104   52   53 1    
   105   52   54 1    
   106   52  175 1    
   107   53  176 1    
   108   53  177 1    
   109   53  178 1    
   110   54   55 am   BACKBONE|DICT|INTERRES
   111   54  179 1    
   112   55   56 2    
   113   55   57 1    
   114   57   58 1    
   115   57   59 1    
   116   57  180 1    
   117   58  181 1    
   118   58  182 1    
   119   58  183 1    
   120   59   60 am   BACKBONE|DICT|INTERRES
   121   59  184 1    
   122   60   61 2    
   123   60   62 1    
   124   62   63 1    
   125   62   64 1    
   126   62  185 1    
   127   63  186 1    
   128   63  187 1    
   129   63  188 1    
   130   64   65 am   BACKBONE|DICT|INTERRES
   131   64  189 1    
   132   65   66 2    
   133   67   68 2    
   134   67   69 am   BACKBONE|DICT|INTERRES
   135   69   70 1    
   136   69  190 1    
   137   70   71 1    
   138   70   72 1    
   139   70  191 1    
   140   71  192 1    
   141   71  193 1    
   142   71  194 1    
   143   72   73 2    
   144   72   74 am   BACKBONE|DICT|INTERRES
   145   74   75 1    
   146   74  195 1    
   147   75   76 1    
   148   75   77 1    
   149   75  196 1    
   150   76  197 1    
   151   76  198 1    
   152   76  199 1    
   153   77   78 2    
   154   77   79 am   BACKBONE|DICT|INTERRES
   155   79   80 1    
   156   79  200 1    
   157   80   81 1    
   158   80   82 1    
   159   80  201 1    
   160   81  202 1    
   161   81  203 1    
   162   81  204 1    
   163   82   83 2    
   164   82   84 am   BACKBONE|DICT|INTERRES
   165   84   85 1    
   166   84  205 1    
   167   85   86 1    
   168   85   87 1    
   169   85  206 1    
   170   86  207 1    
   171   86  208 1    
   172   86  209 1    
   173   87   88 2    
   174   87   89 am   BACKBONE|DICT|INTERRES
   175   89   90 1    
   176   89  210 1    
   177   90   91 1    
   178   90   92 1    
   179   90  211 1    
   180   91  212 1    
   181   91  213 1    
   182   91  214 1    
   183   92   93 2    
   184   92   94 am   BACKBONE|DICT|INTERRES
   185   94   95 1    
   186   94  215 1    
   187   95   96 1    
   188   95   97 1    
   189   95  216 1    
   190   96  217 1    
   191   96  218 1    
   192   96  219 1    
   193   97   98 2    
   194   97   99 am   BACKBONE|DICT|INTERRES
   195   99  100 1    
   196   99  220 1    
   197  100  101 1    
   198  100  102 1    
   199  100  221 1    
   200  101  222 1    
   201  101  223 1    
   202  101  224 1    
   203  102  103 2    
   204  102  104 am   BACKBONE|DICT|INTERRES
   205  104  105 1    
   206  104  225 1    
   207  105  106 1    
   208  105  107 1    
   209  105  226 1    
   210  106  227 1    
   211  106  228 1    
   212  106  229 1    
   213  107  108 2    
   214  107  109 am   BACKBONE|DICT|INTERRES
   215  109  110 1    
   216  109  230 1    
   217  110  111 1    
   218  110  112 1    
   219  110  231 1    
   220  111  232 1    
   221  111  233 1    
   222  111  234 1    
   223  112  113 2    
   224  112  114 am   BACKBONE|DICT|INTERRES
   225  114  115 1    
   226  114  235 1    
   227  115  116 1    
   228  115  117 1    
   229  115  236 1    
   230  116  237 1    
   231  116  238 1    
   232  116  239 1    
   233  117  118 2    
   234  117  119 am   BACKBONE|DICT|INTERRES
   235  119  120 1    
   236  119  240 1    
   237  120  121 1    
   238  120  124 1    
   239  120  241 1    
   240  121  122 am   BACKBONE|DICT|INTERRES
   241  121  123 2    
   242  122  242 1    
   243  122  243 1    
   244  124  125 1    
   245  124  244 1    
   246  124  245 1    
   247  125  126 1    
   248  126  246 1    
   249  126  247 1    
@<TRIPOS>SUBSTRUCTURE
     1 UNK         1 GROUP             0       ****    0 ROOT    
