@<TRIPOS>MOLECULE
3R540
247   249    1
SMALL
USER_CHARGES


@<TRIPOS>ATOM
      1 CA          0.6452   -9.5911  -47.1427 C.3       0 UNK        -0.1800 
      2 C           0.1624  -11.0321  -47.0724 C.2       0 UNK         0.5000 
      3 O          -1.0149  -11.2680  -46.7985 O.2       0 UNK        -0.5000 
      4 N           1.0684  -11.9943  -47.3025 N.am      1 UNK        -0.5000 
      5 CA          0.8330  -13.4423  -47.2467 C.3       1 UNK         0.1400 
      6 C6         -0.0345  -13.9442  -48.4343 C.3       23 UNK        -0.0398 
      7 S7         -0.0280  -15.7623  -48.6159 S.3       23 UNK        -0.2404 
      8 C8          1.3238  -15.9899  -49.8097 C.3       23 UNK        -0.0205 
      9 C9          1.4261  -17.4354  -50.2711 C.ar      23 UNK        -0.0193 
     10 C10         0.5121  -17.9301  -51.2044 C.ar      23 UNK        -0.1150 
     11 C11         0.6149  -19.2410  -51.6749 C.ar      23 UNK        -0.0193 
     12 C12         1.6454  -20.0609  -51.2088 C.ar      23 UNK        -0.1150 
     13 C13         2.5672  -19.5801  -50.2734 C.ar      23 UNK        -0.0193 
     14 C14         2.4470  -18.2679  -49.8011 C.ar      23 UNK        -0.1150 
     15 C15         3.7192  -20.4623  -49.8075 C.3       23 UNK        -0.0205 
     16 S16         3.1669  -22.0237  -49.0474 S.3       23 UNK        -0.2404 
     17 C17         2.3532  -21.4158  -47.5347 C.3       23 UNK        -0.0398 
     18 CA          1.1072  -22.2445  -47.1449 C.3       11 UNK         0.1400 
     19 N           0.7388  -22.0290  -45.7439 N.am      11 UNK        -0.5000 
     20 C          -0.1869  -22.7277  -45.0733 C.2       10 UNK         0.5000 
     21 O          -0.8004  -23.6816  -45.5490 O.2       10 UNK        -0.5000 
     22 CA         -0.5202  -22.2504  -43.6477 C.3       10 UNK         0.1400 
     23 CB          0.4863  -22.8079  -42.6306 C.3       10 UNK        -0.1800 
     24 N          -0.5709  -20.7921  -43.5415 N.am      10 UNK        -0.5000 
     25 C          -1.4481  -20.0121  -44.1896 C.2       9 UNK         0.5000 
     26 O          -2.3484  -20.4441  -44.9082 O.2       9 UNK        -0.5000 
     27 CA         -1.2495  -18.4921  -44.0538 C.3       9 UNK         0.1400 
     28 CB         -1.7829  -18.0012  -42.6961 C.3       9 UNK        -0.1800 
     29 N           0.1524  -18.0996  -44.2344 N.am      9 UNK        -0.5000 
     30 C           0.8505  -18.3029  -45.3639 C.2       8 UNK         0.5000 
     31 O           0.3591  -18.7640  -46.3922 O.2       8 UNK        -0.5000 
     32 CA          2.3646  -18.0271  -45.3238 C.3       8 UNK         0.1400 
     33 CB          2.6913  -16.5729  -45.6771 C.3       8 UNK        -0.1800 
     34 N           2.9484  -18.3598  -44.0267 N.am      8 UNK        -0.5000 
     35 C           3.1285  -19.6119  -43.5854 C.2       7 UNK         0.5000 
     36 O           2.8705  -20.6134  -44.2519 O.2       7 UNK        -0.5000 
     37 CA          3.6284  -19.7639  -42.1375 C.3       7 UNK         0.1400 
     38 CB          5.1555  -19.6144  -42.0711 C.3       7 UNK        -0.1800 
     39 N           3.0040  -18.7940  -41.2359 N.am      7 UNK        -0.5000 
     40 C           1.6975  -18.7767  -40.9340 C.2       6 UNK         0.5000 
     41 O           0.9011  -19.6282  -41.3262 O.2       6 UNK        -0.5000 
     42 CA          1.1883  -17.5883  -40.0960 C.3       6 UNK         0.1400 
     43 CB          1.1949  -17.9420  -38.6018 C.3       6 UNK        -0.1800 
     44 N           1.9684  -16.3663  -40.3089 N.am      6 UNK        -0.5000 
     45 C           1.9836  -15.6590  -41.4466 C.2       5 UNK         0.5000 
     46 O           1.3162  -15.9458  -42.4425 O.2       5 UNK        -0.5000 
     47 CA          2.9827  -14.4975  -41.4965 C.3       5 UNK         0.1400 
     48 CB          4.3094  -14.9638  -42.1236 C.3       5 UNK        -0.1800 
     49 N           2.4491  -13.3704  -42.2577 N.am      5 UNK        -0.5000 
     50 C           2.8134  -12.0965  -42.0522 C.2       4 UNK         0.5000 
     51 O           3.6028  -11.7493  -41.1721 O.2       4 UNK        -0.5000 
     52 CA          2.2112  -11.0201  -42.9691 C.3       4 UNK         0.1400 
     53 CB          3.0050  -10.9210  -44.2818 C.3       4 UNK        -0.1800 
     54 N           0.8038  -11.2761  -43.2656 N.am      4 UNK        -0.5000 
     55 C          -0.2242  -10.7571  -42.5790 C.2       3 UNK         0.5000 
     56 O          -0.0858  -10.0095  -41.6099 O.2       3 UNK        -0.5000 
     57 CA         -1.6498  -11.1049  -43.0530 C.3       3 UNK         0.1400 
     58 CB         -2.2641   -9.9223  -43.8181 C.3       3 UNK        -0.1800 
     59 N          -1.6899  -12.2939  -43.9036 N.am      3 UNK        -0.5000 
     60 C          -1.6725  -13.5509  -43.4378 C.2       2 UNK         0.5000 
     61 O          -1.7109  -13.8343  -42.2405 O.2       2 UNK        -0.5000 
     62 CA         -1.5751  -14.6839  -44.4791 C.3       2 UNK         0.1400 
     63 CB         -2.9713  -15.2410  -44.7964 C.3       2 UNK        -0.1800 
     64 N          -0.9259  -14.2998  -45.7317 N.am      2 UNK        -0.5000 
     65 C           0.3266  -13.8394  -45.8419 C.2       1 UNK         0.5000 
     66 O           1.0683  -13.6650  -44.8744 O.2       1 UNK        -0.5000 
     67 C          -0.0846  -22.0026  -48.0978 C.2       11 UNK         0.5000 
     68 O          -0.3694  -22.8554  -48.9382 O.2       11 UNK        -0.5000 
     69 N          -0.7989  -20.8832  -47.9130 N.am      12 UNK        -0.5000 
     70 CA         -2.0126  -20.5462  -48.6580 C.3       12 UNK         0.1400 
     71 CB         -2.4413  -19.1102  -48.3248 C.3       12 UNK        -0.1800 
     72 C          -3.1640  -21.5389  -48.4074 C.2       12 UNK         0.5000 
     73 O          -3.8650  -21.9039  -49.3515 O.2       12 UNK        -0.5000 
     74 N          -3.3233  -21.9855  -47.1533 N.am      13 UNK        -0.5000 
     75 CA         -4.2921  -23.0078  -46.7565 C.3       13 UNK         0.1400 
     76 CB         -4.3597  -23.1017  -45.2257 C.3       13 UNK        -0.1800 
     77 C          -3.9934  -24.3834  -47.3812 C.2       13 UNK         0.5000 
     78 O          -4.9168  -25.0443  -47.8580 O.2       13 UNK        -0.5000 
     79 N          -2.7116  -24.7745  -47.4084 N.am      14 UNK        -0.5000 
     80 CA         -2.2304  -25.9835  -48.0798 C.3       14 UNK         0.1400 
     81 CB         -0.7557  -26.2228  -47.7232 C.3       14 UNK        -0.1800 
     82 C          -2.4243  -25.9248  -49.6066 C.2       14 UNK         0.5000 
     83 O          -2.7854  -26.9334  -50.2147 O.2       14 UNK        -0.5000 
     84 N          -2.2384  -24.7352  -50.1932 N.am      15 UNK        -0.5000 
     85 CA         -2.4614  -24.4222  -51.6043 C.3       15 UNK         0.1400 
     86 CB         -1.6416  -23.1765  -51.9676 C.3       15 UNK        -0.1800 
     87 C          -3.9584  -24.2678  -51.9561 C.2       15 UNK         0.5000 
     88 O          -4.3647  -23.2478  -52.5223 O.2       15 UNK        -0.5000 
     89 N          -4.7310  -25.3165  -51.6456 N.am      16 UNK        -0.5000 
     90 CA         -6.1517  -25.5113  -51.9344 C.3       16 UNK         0.1400 
     91 CB         -6.3983  -25.5638  -53.4572 C.3       16 UNK        -0.1800 
     92 C          -7.0690  -24.5131  -51.2020 C.2       16 UNK         0.5000 
     93 O          -7.9332  -23.9004  -51.8275 O.2       16 UNK        -0.5000 
     94 N          -6.8842  -24.3840  -49.8798 N.am      17 UNK        -0.5000 
     95 CA         -7.7446  -23.6411  -48.9488 C.3       17 UNK         0.1400 
     96 CB         -9.1032  -24.3561  -48.7912 C.3       17 UNK        -0.1800 
     97 C          -7.8887  -22.1476  -49.3070 C.2       17 UNK         0.5000 
     98 O          -8.9986  -21.6124  -49.3056 O.2       17 UNK        -0.5000 
     99 N          -6.7523  -21.5133  -49.6267 N.am      18 UNK        -0.5000 
    100 CA        -6.6046  -20.1134  -50.0336 C.3       18 UNK         0.1400 
    101 CB        -7.0788  -19.1455  -48.9292 C.3       18 UNK        -0.1800 
    102 C         -7.1927  -19.7878  -51.4231 C.2       18 UNK         0.5000 
    103 O         -7.3499  -18.6099  -51.7478 O.2       18 UNK        -0.5000 
    104 N         -7.4371  -20.8135  -52.2561 N.am      19 UNK        -0.5000 
    105 CA        -7.7172  -20.6542  -53.6896 C.3       19 UNK         0.1400 
    106 CB        -8.3551  -21.9357  -54.2439 C.3       19 UNK        -0.1800 
    107 C         -6.4555  -20.2852  -54.4998 C.2       19 UNK         0.5000 
    108 O         -6.5818  -19.8558  -55.6470 O.2       19 UNK        -0.5000 
    109 N         -5.2775  -20.4409  -53.8766 N.am      20 UNK        -0.5000 
    110 CA        -3.9468  -20.0797  -54.3568 C.3       20 UNK         0.1400 
    111 CB        -3.8392  -18.5703  -54.6590 C.3       20 UNK        -0.1800 
    112 C         -3.4838  -20.9778  -55.5138 C.2       20 UNK         0.5000 
    113 O         -3.1471  -20.4921  -56.5962 O.2       20 UNK        -0.5000 
    114 N         -3.4104  -22.2873  -55.2314 N.am      21 UNK        -0.5000 
    115 CA        -2.8400  -23.3112  -56.1197 C.3       21 UNK         0.1400 
    116 CB        -3.0816  -24.7009  -55.5124 C.3       21 UNK        -0.1800 
    117 C         -1.3392  -23.1111  -56.4415 C.2       21 UNK         0.5000 
    118 O         -0.8261  -23.7530  -57.3587 O.2       21 UNK        -0.5000 
    119 N         -0.6751  -22.2091  -55.7057 N.am      22 UNK        -0.5000 
    120 CA         0.6470  -21.6448  -56.0118 C.3       22 UNK         0.1400 
    121 C          0.7252  -20.8520  -57.3540 C.2       22 UNK         0.5000 
    122 N         -0.3827  -20.3784  -57.9161 N.am      22 UNK        -0.7600 
    123 O          1.8121  -20.6729  -57.8967 O.2       22 UNK        -0.5000 
    124 C124        1.1797  -20.7926  -54.8268 C.3       23 UNK        -0.0398 
    125 S125        0.0907  -19.3826  -54.3913 S.3       23 UNK        -0.2404 
    126 C126       -0.3952  -19.7628  -52.6810 C.3       23 UNK        -0.0205 
    127 H127        0.5062   -9.1035  -46.1777 H         1 UNK         0.0600 
    128 H128        0.0739   -9.0404  -47.8899 H         1 UNK         0.0600 
    129 H129        1.7011   -9.5289  -47.4069 H         1 UNK         0.0600 
    130 H130        2.0228  -11.7249  -47.4961 H         1 UNK         0.3000 
    131 H131        1.8187  -13.8990  -47.3464 H         1 UNK         0.0600 
    132 H132       -1.0657  -13.5989  -48.3476 H         1 UNK         0.0800 
    133 H133        0.3327  -13.5053  -49.3629 H         1 UNK         0.0800 
    134 H134        1.1572  -15.3508  -50.6782 H         1 UNK         0.0800 
    135 H135        2.2622  -15.6630  -49.3593 H         1 UNK         0.0800 
    136 H136       -0.2782  -17.2891  -51.5695 H         1 UNK         0.1150 
    137 H137        1.7341  -21.0745  -51.5730 H         1 UNK         0.1150 
    138 H138        3.1598  -17.8860  -49.0839 H         1 UNK         0.1150 
    139 H139        4.3472  -20.6963  -50.6680 H         1 UNK         0.0800 
    140 H140        4.3569  -19.9308  -49.0994 H         1 UNK         0.0800 
    141 H141        2.0971  -20.3617  -47.6402 H         1 UNK         0.0800 
    142 H142        3.0988  -21.4670  -46.7408 H         1 UNK         0.0800 
    143 H143        1.3729  -23.3007  -47.2275 H         1 UNK         0.0600 
    144 H144        1.2397  -21.2976  -45.2513 H         1 UNK         0.3000 
    145 H145       -1.5086  -22.6358  -43.3908 H         1 UNK         0.0600 
    146 H146        0.2152  -22.5248  -41.6133 H         1 UNK         0.0600 
    147 H147        0.5164  -23.8975  -42.6690 H         1 UNK         0.0600 
    148 H148        1.4964  -22.4445  -42.8193 H         1 UNK         0.0600 
    149 H149        0.1030  -20.3551  -42.9188 H         1 UNK         0.3000 
    150 H150       -1.8243  -18.0092  -44.8450 H         1 UNK         0.0600 
    151 H151       -2.8712  -18.0646  -42.6703 H         1 UNK         0.0600 
    152 H152       -1.5135  -16.9666  -42.4917 H         1 UNK         0.0600 
    153 H153       -1.4116  -18.6031  -41.8680 H         1 UNK         0.0600 
    154 H154        0.6163  -17.6590  -43.4488 H         1 UNK         0.3000 
    155 H155        2.8321  -18.6593  -46.0812 H         1 UNK         0.0600 
    156 H156        2.3355  -15.8896  -44.9089 H         1 UNK         0.0600 
    157 H157        3.7661  -16.4251  -45.7813 H         1 UNK         0.0600 
    158 H158        2.2305  -16.2884  -46.6228 H         1 UNK         0.0600 
    159 H159        3.1413  -17.5900  -43.4043 H         1 UNK         0.3000 
    160 H160        3.3656  -20.7675  -41.7961 H         1 UNK         0.0600 
    161 H161        5.4789  -18.6191  -42.3788 H         1 UNK         0.0600 
    162 H162        5.6462  -20.3362  -42.7254 H         1 UNK         0.0600 
    163 H163        5.5249  -19.7901  -41.0606 H         1 UNK         0.0600 
    164 H164        3.5968  -18.0708  -40.8574 H         1 UNK         0.3000 
    165 H165        0.1575  -17.3882  -40.3945 H         1 UNK         0.0600 
    166 H166        0.7690  -17.1361  -38.0038 H         1 UNK         0.0600 
    167 H167        0.5998  -18.8361  -38.4103 H         1 UNK         0.0600 
    168 H168        2.2044  -18.1351  -38.2367 H         1 UNK         0.0600 
    169 H169        2.5520  -16.0699  -39.5395 H         1 UNK         0.3000 
    170 H170        3.1706  -14.1786  -40.4689 H         1 UNK         0.0600 
    171 H171        4.1786  -15.2551  -43.1665 H         1 UNK         0.0600 
    172 H172        5.0605  -14.1745  -42.0913 H         1 UNK         0.0600 
    173 H173        4.7207  -15.8211  -41.5895 H         1 UNK         0.0600 
    174 H174        1.8058  -13.6054  -43.0096 H         1 UNK         0.3000 
    175 H175        2.3084  -10.0593  -42.4588 H         1 UNK         0.0600 
    176 H176        2.6170  -10.1250  -44.9166 H         1 UNK         0.0600 
    177 H177        2.9748  -11.8506  -44.8499 H         1 UNK         0.0600 
    178 H178        4.0536  -10.6950  -44.0846 H         1 UNK         0.0600 
    179 H179        0.6199  -11.9556  -43.9950 H         1 UNK         0.3000 
    180 H180       -2.2592  -11.2825  -42.1643 H         1 UNK         0.0600 
    181 H181       -1.6795   -9.6647  -44.7015 H         1 UNK         0.0600 
    182 H182       -2.3123   -9.0332  -43.1882 H         1 UNK         0.0600 
    183 H183       -3.2808  -10.1460  -44.1417 H         1 UNK         0.0600 
    184 H184       -1.6427  -12.1380  -44.9046 H         1 UNK         0.3000 
    185 H185       -0.9640  -15.4733  -44.0435 H         1 UNK         0.0600 
    186 H186       -3.6240  -14.4712  -45.2099 H         1 UNK         0.0600 
    187 H187       -2.9223  -16.0561  -45.5180 H         1 UNK         0.0600 
    188 H188       -3.4507  -15.6288  -43.8967 H         1 UNK         0.0600 
    189 H189       -1.4783  -14.4004  -46.5703 H         1 UNK         0.3000 
    190 H190       -0.4803  -20.1996  -47.2295 H         1 UNK         0.3000 
    191 H191       -1.7676  -20.5839  -49.7211 H         1 UNK         0.0600 
    192 H192       -1.6571  -18.3992  -48.5854 H         1 UNK         0.0600 
    193 H193       -3.3359  -18.8283  -48.8814 H         1 UNK         0.0600 
    194 H194       -2.6602  -18.9901  -47.2633 H         1 UNK         0.0600 
    195 H195       -2.7529  -21.5836  -46.4143 H         1 UNK         0.3000 
    196 H196       -5.2710  -22.6845  -47.1134 H         1 UNK         0.0600 
    197 H197       -5.1072  -23.8315  -44.9125 H         1 UNK         0.0600 
    198 H198       -4.6348  -22.1438  -44.7839 H         1 UNK         0.0600 
    199 H199       -3.4051  -23.4057  -44.7972 H         1 UNK         0.0600 
    200 H200       -2.0124  -24.2045  -46.9396 H         1 UNK         0.3000 
    201 H201       -2.8114  -26.8283  -47.7044 H         1 UNK         0.0600 
    202 H202       -0.6249  -26.3372  -46.6470 H         1 UNK         0.0600 
    203 H203       -0.1219  -25.3983  -48.0501 H         1 UNK         0.0600 
    204 H204       -0.3821  -27.1321  -48.1953 H         1 UNK         0.0600 
    205 H205       -1.8994  -23.9697  -49.6189 H         1 UNK         0.3000 
    206 H206       -2.0770  -25.2520  -52.2005 H         1 UNK         0.0600 
    207 H207       -0.5867  -23.3126  -51.7281 H         1 UNK         0.0600 
    208 H208       -1.7054  -22.9615  -53.0331 H         1 UNK         0.0600 
    209 H209       -1.9987  -22.2999  -51.4272 H         1 UNK         0.0600 
    210 H210       -4.2715  -26.0858  -51.1670 H         1 UNK         0.3000 
    211 H211       -6.4067  -26.4938  -51.5350 H         1 UNK         0.0600 
    212 H212       -6.1790  -24.6111  -53.9384 H         1 UNK         0.0600 
    213 H213       -7.4383  -25.8079  -53.6771 H         1 UNK         0.0600 
    214 H214       -5.7807  -26.3277  -53.9293 H         1 UNK         0.0600 
    215 H215       -6.1100  -24.8731  -49.4401 H         1 UNK         0.3000 
    216 H216       -7.2535  -23.6729  -47.9765 H         1 UNK         0.0600 
    217 H217       -9.7075  -23.8825  -48.0167 H         1 UNK         0.0600 
    218 H218       -8.9681  -25.3985  -48.5025 H         1 UNK         0.0600 
    219 H219       -9.6818  -24.3363  -49.7155 H         1 UNK         0.0600 
    220 H220       -5.8815  -22.0362  -49.6134 H         1 UNK         0.3000 
    221 H221       -5.5308  -19.9586  -50.1430 H         1 UNK         0.0600 
    222 H222       -8.1622  -19.1604  -48.8103 H         1 UNK         0.0600 
    223 H223       -6.6297  -19.3951  -47.9678 H         1 UNK         0.0600 
    224 H224       -6.7930  -18.1189  -49.1607 H         1 UNK         0.0600 
    225 H225       -7.3433  -21.7639  -51.9169 H         1 UNK         0.3000 
    226 H226       -8.4365  -19.8418  -53.8127 H         1 UNK         0.0600 
    227 H227       -9.2391  -22.2188  -53.6723 H         1 UNK         0.0600 
    228 H228       -8.6675  -21.7988  -55.2798 H         1 UNK         0.0600 
    229 H229       -7.6563  -22.7715  -54.2235 H         1 UNK         0.0600 
    230 H230       -5.3003  -20.8864  -52.9697 H         1 UNK         0.3000 
    231 H231       -3.2715  -20.2875  -53.5266 H         1 UNK         0.0600 
    232 H232       -4.4561  -18.2760  -55.5082 H         1 UNK         0.0600 
    233 H233       -2.8112  -18.2948  -54.8966 H         1 UNK         0.0600 
    234 H234       -4.1442  -17.9738  -53.7992 H         1 UNK         0.0600 
    235 H235       -3.7454  -22.6062  -54.3266 H         1 UNK         0.3000 
    236 H236       -3.3795  -23.2572  -57.0673 H         1 UNK         0.0600 
    237 H237       -4.1385  -24.8640  -55.3048 H         1 UNK         0.0600 
    238 H238       -2.7628  -25.4866  -56.1984 H         1 UNK         0.0600 
    239 H239       -2.5271  -24.8361  -54.5849 H         1 UNK         0.0600 
    240 H240       -1.1901  -21.7254  -54.9879 H         1 UNK         0.3000 
    241 H241        1.3244  -22.4925  -56.1297 H         1 UNK         0.0600 
    242 H242       -0.3183  -19.8714  -58.7843 H         1 UNK         0.3800 
    243 H243       -1.2848  -20.4851  -57.4652 H         1 UNK         0.3800 
    244 H244        1.3148  -21.4340  -53.9558 H         1 UNK         0.0800 
    245 H245        2.1734  -20.4018  -55.0524 H         1 UNK         0.0800 
    246 H246       -1.3671  -19.3106  -52.4804 H         1 UNK         0.0800 
    247 H247       -0.5251  -20.8354  -52.5635 H         1 UNK         0.0800 
@<TRIPOS>BOND
     1    1    2 1    
     2    1  127 1    
     3    1  128 1    
     4    1  129 1    
     5    2    3 2    
     6    2    4 am   BACKBONE|DICT|INTERRES
     7    4    5 1    
     8    4  130 1    
     9    5    6 1    
    10    5   65 1    
    11    5  131 1    
    12    6    7 1    
    13    6  132 1    
    14    6  133 1    
    15    7    8 1    
    16    8    9 1    
    17    8  134 1    
    18    8  135 1    
    19    9   10 ar   
    20    9   14 ar   
    21   10   11 ar   
    22   10  136 1    
    23   11   12 ar   
    24   11  126 1    
    25   12   13 ar   
    26   12  137 1    
    27   13   14 ar   
    28   13   15 1    
    29   14  138 1    
    30   15   16 1    
    31   15  139 1    
    32   15  140 1    
    33   16   17 1    
    34   17   18 1    
    35   17  141 1    
    36   17  142 1    
    37   18   19 1    
    38   18   67 1    
    39   18  143 1    
    40   19   20 am   BACKBONE|DICT|INTERRES
    41   19  144 1    
    42   20   21 2    
    43   20   22 1    
    44   22   23 1    
    45   22   24 1    
    46   22  145 1    
    47   23  146 1    
    48   23  147 1    
    49   23  148 1    
    50   24   25 am   BACKBONE|DICT|INTERRES
    51   24  149 1    
    52   25   26 2    
    53   25   27 1    
    54   27   28 1    
    55   27   29 1    
    56   27  150 1    
    57   28  151 1    
    58   28  152 1    
    59   28  153 1    
    60   29   30 am   BACKBONE|DICT|INTERRES
    61   29  154 1    
    62   30   31 2    
    63   30   32 1    
    64   32   33 1    
    65   32   34 1    
    66   32  155 1    
    67   33  156 1    
    68   33  157 1    
    69   33  158 1    
    70   34   35 am   BACKBONE|DICT|INTERRES
    71   34  159 1    
    72   35   36 2    
    73   35   37 1    
    74   37   38 1    
    75   37   39 1    
    76   37  160 1    
    77   38  161 1    
    78   38  162 1    
    79   38  163 1    
    80   39   40 am   BACKBONE|DICT|INTERRES
    81   39  164 1    
    82   40   41 2    
    83   40   42 1    
    84   42   43 1    
    85   42   44 1    
    86   42  165 1    
    87   43  166 1    
    88   43  167 1    
    89   43  168 1    
    90   44   45 am   BACKBONE|DICT|INTERRES
    91   44  169 1    
    92   45   46 2    
    93   45   47 1    
    94   47   48 1    
    95   47   49 1    
    96   47  170 1    
    97   48  171 1    
    98   48  172 1    
    99   48  173 1    
   100   49   50 am   BACKBONE|DICT|INTERRES
   101   49  174 1    
   102   50   51 2    
   103   50   52 1    
   104   52   53 1    
   105   52   54 1    
   106   52  175 1    
   107   53  176 1    
   108   53  177 1    
   109   53  178 1    
   110   54   55 am   BACKBONE|DICT|INTERRES
   111   54  179 1    
   112   55   56 2    
   113   55   57 1    
   114   57   58 1    
   115   57   59 1    
   116   57  180 1    
   117   58  181 1    
   118   58  182 1    
   119   58  183 1    
   120   59   60 am   BACKBONE|DICT|INTERRES
   121   59  184 1    
   122   60   61 2    
   123   60   62 1    
   124   62   63 1    
   125   62   64 1    
   126   62  185 1    
   127   63  186 1    
   128   63  187 1    
   129   63  188 1    
   130   64   65 am   BACKBONE|DICT|INTERRES
   131   64  189 1    
   132   65   66 2    
   133   67   68 2    
   134   67   69 am   BACKBONE|DICT|INTERRES
   135   69   70 1    
   136   69  190 1    
   137   70   71 1    
   138   70   72 1    
   139   70  191 1    
   140   71  192 1    
   141   71  193 1    
   142   71  194 1    
   143   72   73 2    
   144   72   74 am   BACKBONE|DICT|INTERRES
   145   74   75 1    
   146   74  195 1    
   147   75   76 1    
   148   75   77 1    
   149   75  196 1    
   150   76  197 1    
   151   76  198 1    
   152   76  199 1    
   153   77   78 2    
   154   77   79 am   BACKBONE|DICT|INTERRES
   155   79   80 1    
   156   79  200 1    
   157   80   81 1    
   158   80   82 1    
   159   80  201 1    
   160   81  202 1    
   161   81  203 1    
   162   81  204 1    
   163   82   83 2    
   164   82   84 am   BACKBONE|DICT|INTERRES
   165   84   85 1    
   166   84  205 1    
   167   85   86 1    
   168   85   87 1    
   169   85  206 1    
   170   86  207 1    
   171   86  208 1    
   172   86  209 1    
   173   87   88 2    
   174   87   89 am   BACKBONE|DICT|INTERRES
   175   89   90 1    
   176   89  210 1    
   177   90   91 1    
   178   90   92 1    
   179   90  211 1    
   180   91  212 1    
   181   91  213 1    
   182   91  214 1    
   183   92   93 2    
   184   92   94 am   BACKBONE|DICT|INTERRES
   185   94   95 1    
   186   94  215 1    
   187   95   96 1    
   188   95   97 1    
   189   95  216 1    
   190   96  217 1    
   191   96  218 1    
   192   96  219 1    
   193   97   98 2    
   194   97   99 am   BACKBONE|DICT|INTERRES
   195   99  100 1    
   196   99  220 1    
   197  100  101 1    
   198  100  102 1    
   199  100  221 1    
   200  101  222 1    
   201  101  223 1    
   202  101  224 1    
   203  102  103 2    
   204  102  104 am   BACKBONE|DICT|INTERRES
   205  104  105 1    
   206  104  225 1    
   207  105  106 1    
   208  105  107 1    
   209  105  226 1    
   210  106  227 1    
   211  106  228 1    
   212  106  229 1    
   213  107  108 2    
   214  107  109 am   BACKBONE|DICT|INTERRES
   215  109  110 1    
   216  109  230 1    
   217  110  111 1    
   218  110  112 1    
   219  110  231 1    
   220  111  232 1    
   221  111  233 1    
   222  111  234 1    
   223  112  113 2    
   224  112  114 am   BACKBONE|DICT|INTERRES
   225  114  115 1    
   226  114  235 1    
   227  115  116 1    
   228  115  117 1    
   229  115  236 1    
   230  116  237 1    
   231  116  238 1    
   232  116  239 1    
   233  117  118 2    
   234  117  119 am   BACKBONE|DICT|INTERRES
   235  119  120 1    
   236  119  240 1    
   237  120  121 1    
   238  120  124 1    
   239  120  241 1    
   240  121  122 am   BACKBONE|DICT|INTERRES
   241  121  123 2    
   242  122  242 1    
   243  122  243 1    
   244  124  125 1    
   245  124  244 1    
   246  124  245 1    
   247  125  126 1    
   248  126  246 1    
   249  126  247 1    
@<TRIPOS>SUBSTRUCTURE
     1 UNK         1 GROUP             0       ****    0 ROOT    
