@<TRIPOS>MOLECULE
3R540
247   249    1
SMALL
USER_CHARGES


@<TRIPOS>ATOM
      1 CA          0.9074  -12.4220  -48.2300 C.3       0 UNK        -0.1800 
      2 C           2.2867  -13.0367  -48.4269 C.2       0 UNK         0.5000 
      3 O           2.6505  -13.3732  -49.5536 O.2       0 UNK        -0.5000 
      4 N           3.0501  -13.1754  -47.3382 N.am      1 UNK        -0.5000 
      5 CA          4.3992  -13.7563  -47.3085 C.3       1 UNK         0.1400 
      6 C6          4.4364  -15.1739  -46.6695 C.3       23 UNK        -0.0398 
      7 S7          3.2469  -16.3648  -47.3618 S.3       23 UNK        -0.2404 
      8 C8          4.1368  -16.9883  -48.8165 C.3       23 UNK        -0.0205 
      9 C9          3.3777  -18.1495  -49.4372 C.ar      23 UNK        -0.0193 
     10 C10         2.4154  -17.9225  -50.4253 C.ar      23 UNK        -0.1150 
     11 C11         1.6912  -18.9887  -50.9681 C.ar      23 UNK        -0.0193 
     12 C12         1.9313  -20.2872  -50.5081 C.ar      23 UNK        -0.1150 
     13 C13         2.8968  -20.5296  -49.5259 C.ar      23 UNK        -0.0193 
     14 C14         3.6253  -19.4549  -49.0051 C.ar      23 UNK        -0.1150 
     15 C15         3.1448  -21.9569  -49.0453 C.3       23 UNK        -0.0205 
     16 S16         3.3001  -22.1244  -47.2315 S.3       23 UNK        -0.2404 
     17 C17         1.7602  -21.3498  -46.6280 C.3       23 UNK        -0.0398 
     18 CA          0.6398  -22.3620  -46.2964 C.3       11 UNK         0.1400 
     19 N          -0.4127  -21.7413  -45.4935 N.am      11 UNK        -0.5000 
     20 C          -1.4064  -22.4027  -44.8866 C.2       10 UNK         0.5000 
     21 O          -1.5071  -23.6299  -44.8749 O.2       10 UNK        -0.5000 
     22 CA         -2.4871  -21.5446  -44.2029 C.3       10 UNK         0.1400 
     23 CB         -2.0338  -21.1178  -42.7989 C.3       10 UNK        -0.1800 
     24 N          -2.8573  -20.3584  -44.9788 N.am      10 UNK        -0.5000 
     25 C          -3.4133  -20.3953  -46.1991 C.2       9 UNK         0.5000 
     26 O          -3.6766  -21.4348  -46.8016 O.2       9 UNK        -0.5000 
     27 CA         -3.6844  -19.0439  -46.8806 C.3       9 UNK         0.1400 
     28 CB         -4.8746  -18.3325  -46.2170 C.3       9 UNK        -0.1800 
     29 N          -2.5235  -18.1550  -46.8684 N.am      9 UNK        -0.5000 
     30 C          -1.3139  -18.4400  -47.3724 C.2       8 UNK         0.5000 
     31 O          -1.0389  -19.4881  -47.9502 O.2       8 UNK        -0.5000 
     32 CA         -0.2009  -17.4138  -47.1082 C.3       8 UNK         0.1400 
     33 CB         -0.3357  -16.1845  -48.0206 C.3       8 UNK        -0.1800 
     34 N          -0.1804  -16.9878  -45.7090 N.am      8 UNK        -0.5000 
     35 C           0.0740  -17.7944  -44.6687 C.2       7 UNK         0.5000 
     36 O           0.3539  -18.9884  -44.7729 O.2       7 UNK        -0.5000 
     37 CA         -0.0622  -17.1670  -43.2720 C.3       7 UNK         0.1400 
     38 CB          1.2152  -16.4015  -42.8908 C.3       7 UNK        -0.1800 
     39 N          -1.2200  -16.2748  -43.1980 N.am      7 UNK        -0.5000 
     40 C          -2.4933  -16.7001  -43.2010 C.2       6 UNK         0.5000 
     41 O          -2.8129  -17.8891  -43.2111 O.2       6 UNK        -0.5000 
     42 CA         -3.5954  -15.6217  -43.2471 C.3       6 UNK         0.1400 
     43 CB         -3.9486  -15.1508  -41.8287 C.3       6 UNK        -0.1800 
     44 N          -3.2257  -14.4627  -44.0606 N.am      6 UNK        -0.5000 
     45 C          -2.9601  -14.5061  -45.3733 C.2       5 UNK         0.5000 
     46 O          -3.1199  -15.5123  -46.0615 O.2       5 UNK        -0.5000 
     47 CA         -2.3710  -13.2403  -46.0274 C.3       5 UNK         0.1400 
     48 CB         -3.4387  -12.5249  -46.8679 C.3       5 UNK        -0.1800 
     49 N          -1.7664  -12.2782  -45.0982 N.am      5 UNK        -0.5000 
     50 C          -0.7489  -12.5243  -44.2608 C.2       4 UNK         0.5000 
     51 O          -0.2492  -13.6400  -44.1002 O.2       4 UNK        -0.5000 
     52 CA         -0.2659  -11.3234  -43.4232 C.3       4 UNK         0.1400 
     53 CB         -1.1695  -11.1477  -42.1922 C.3       4 UNK        -0.1800 
     54 N           1.1242  -11.4178  -42.9683 N.am      4 UNK        -0.5000 
     55 C           2.1980  -11.5853  -43.7501 C.2       3 UNK         0.5000 
     56 O           2.1439  -11.7458  -44.9739 O.2       3 UNK        -0.5000 
     57 CA          3.5659  -11.5779  -43.0333 C.3       3 UNK         0.1400 
     58 CB          3.8131  -12.9287  -42.3424 C.3       3 UNK        -0.1800 
     59 N           4.6498  -11.3412  -43.9842 N.am      3 UNK        -0.5000 
     60 C           4.8587  -10.2027  -44.6575 C.2       2 UNK         0.5000 
     61 O           4.4016   -9.1117  -44.3141 O.2       2 UNK        -0.5000 
     62 CA          5.6221  -10.3257  -45.9941 C.3       2 UNK         0.1400 
     63 CB          7.1501  -10.3176  -45.7930 C.3       2 UNK        -0.1800 
     64 N           5.1533  -11.4731  -46.7933 N.am      2 UNK        -0.5000 
     65 C           5.3323  -12.7832  -46.5584 C.2       1 UNK         0.5000 
     66 O           6.1110  -13.2135  -45.7060 O.2       1 UNK        -0.5000 
     67 C           0.0564  -23.0121  -47.5663 C.2       11 UNK         0.5000 
     68 O           0.2767  -24.2003  -47.8011 O.2       11 UNK        -0.5000 
     69 N          -0.6999  -22.2330  -48.3497 N.am      12 UNK        -0.5000 
     70 CA         -1.2972  -22.6472  -49.6169 C.3       12 UNK         0.1400 
     71 CB         -1.9093  -21.4273  -50.3051 C.3       12 UNK        -0.1800 
     72 C          -2.3308  -23.7750  -49.4778 C.2       12 UNK         0.5000 
     73 O          -2.4184  -24.6149  -50.3747 O.2       12 UNK        -0.5000 
     74 N          -3.0548  -23.8101  -48.3499 N.am      13 UNK        -0.5000 
     75 CA         -3.9689  -24.8888  -47.9705 C.3       13 UNK         0.1400 
     76 CB         -4.6725  -24.5301  -46.6524 C.3       13 UNK        -0.1800 
     77 C          -3.2705  -26.2542  -47.8285 C.2       13 UNK         0.5000 
     78 O          -3.8695  -27.2751  -48.1646 O.2       13 UNK        -0.5000 
     79 N          -2.0208  -26.2486  -47.3490 N.am      14 UNK        -0.5000 
     80 CA         -1.1889  -27.4418  -47.2241 C.3       14 UNK         0.1400 
     81 CB         -0.2119  -27.2575  -46.0519 C.3       14 UNK        -0.1800 
     82 C          -0.4288  -27.7383  -48.5277 C.2       14 UNK         0.5000 
     83 O          -0.3664  -28.8953  -48.9445 O.2       14 UNK        -0.5000 
     84 N           0.1521  -26.6940  -49.1334 N.am      15 UNK        -0.5000 
     85 CA          1.0569  -26.8000  -50.2763 C.3       15 UNK         0.1400 
     86 CB          1.8521  -25.4920  -50.4141 C.3       15 UNK        -0.1800 
     87 C           0.3617  -27.1450  -51.6045 C.2       15 UNK         0.5000 
     88 O           0.9219  -27.9168  -52.3847 O.2       15 UNK        -0.5000 
     89 N          -0.8129  -26.5523  -51.8574 N.am      16 UNK        -0.5000 
     90 CA         -1.4910  -26.6127  -53.1572 C.3       16 UNK         0.1400 
     91 CB         -1.2076  -25.2987  -53.9082 C.3       16 UNK        -0.1800 
     92 C          -3.0065  -26.8582  -53.0544 C.2       16 UNK         0.5000 
     93 O          -3.6562  -26.9889  -54.0923 O.2       16 UNK        -0.5000 
     94 N          -3.5511  -26.8771  -51.8283 N.am      17 UNK        -0.5000 
     95 CA         -4.9834  -26.8648  -51.4986 C.3       17 UNK         0.1400 
     96 CB         -5.6933  -28.1400  -51.9993 C.3       17 UNK        -0.1800 
     97 C          -5.6927  -25.5637  -51.9397 C.2       17 UNK         0.5000 
     98 O          -6.9120  -25.5536  -52.1139 O.2       17 UNK        -0.5000 
     99 N          -4.9226  -24.4770  -52.0839 N.am      18 UNK        -0.5000 
    100 CA        -5.3776  -23.1540  -52.5081 C.3       18 UNK         0.1400 
    101 CB        -4.3662  -22.5791  -53.5152 C.3       18 UNK        -0.1800 
    102 C         -5.5851  -22.2584  -51.2747 C.2       18 UNK         0.5000 
    103 O         -4.9858  -21.1877  -51.1637 O.2       18 UNK        -0.5000 
    104 N         -6.4280  -22.7407  -50.3515 N.am      19 UNK        -0.5000 
    105 CA        -6.6964  -22.1514  -49.0372 C.3       19 UNK         0.1400 
    106 CB        -7.6290  -23.0919  -48.2592 C.3       19 UNK        -0.1800 
    107 C         -7.2851  -20.7286  -49.0731 C.2       19 UNK         0.5000 
    108 O         -7.1443  -19.9923  -48.0974 O.2       19 UNK        -0.5000 
    109 N         -7.9080  -20.3466  -50.1950 N.am      20 UNK        -0.5000 
    110 CA        -8.4319  -19.0085  -50.4681 C.3       20 UNK         0.1400 
    111 CB        -9.4847  -19.1146  -51.5862 C.3       20 UNK        -0.1800 
    112 C         -7.3038  -18.0069  -50.8037 C.2       20 UNK         0.5000 
    113 O         -7.2871  -17.4416  -51.8987 O.2       20 UNK        -0.5000 
    114 N         -6.3667  -17.8322  -49.8595 N.am      21 UNK        -0.5000 
    115 CA        -5.2244  -16.9094  -49.8806 C.3       21 UNK         0.1400 
    116 CB        -5.7063  -15.4731  -49.5939 C.3       21 UNK        -0.1800 
    117 C         -4.3663  -17.0160  -51.1588 C.2       21 UNK         0.5000 
    118 O         -4.0576  -15.9980  -51.7808 O.2       21 UNK        -0.5000 
    119 N         -4.0281  -18.2572  -51.5341 N.am      22 UNK        -0.5000 
    120 CA        -3.2715  -18.6293  -52.7437 C.3       22 UNK         0.1400 
    121 C         -4.1002  -18.5745  -54.0634 C.2       22 UNK         0.5000 
    122 N         -5.3950  -18.2788  -54.0421 N.am      22 UNK        -0.7600 
    123 O         -3.5644  -18.8386  -55.1362 O.2       22 UNK        -0.5000 
    124 C124       -1.9002  -17.9028  -52.8958 C.3       23 UNK        -0.0398 
    125 S125       -0.8520  -17.9876  -51.4025 S.3       23 UNK        -0.2404 
    126 C126        0.6643  -18.7404  -52.0634 C.3       23 UNK        -0.0205 
    127 H127        0.1477  -13.0388  -48.7102 H         1 UNK         0.0600 
    128 H128        0.8720  -11.4277  -48.6747 H         1 UNK         0.0600 
    129 H129        0.6517  -12.3336  -47.1741 H         1 UNK         0.0600 
    130 H130        2.7082  -12.8164  -46.4483 H         1 UNK         0.3000 
    131 H131        4.7974  -13.8334  -48.3219 H         1 UNK         0.0600 
    132 H132        4.2163  -15.1083  -45.6022 H         1 UNK         0.0800 
    133 H133        5.4382  -15.6006  -46.7433 H         1 UNK         0.0800 
    134 H134        4.2572  -16.1818  -49.5416 H         1 UNK         0.0800 
    135 H135        5.1398  -17.3073  -48.5296 H         1 UNK         0.0800 
    136 H136        2.2204  -16.9144  -50.7640 H         1 UNK         0.1150 
    137 H137        1.3677  -21.1119  -50.9207 H         1 UNK         0.1150 
    138 H138        4.3714  -19.6308  -48.2431 H         1 UNK         0.1150 
    139 H139        2.3472  -22.6176  -49.3865 H         1 UNK         0.0800 
    140 H140        4.0617  -22.3235  -49.5080 H         1 UNK         0.0800 
    141 H141        1.4084  -20.5826  -47.3185 H         1 UNK         0.0800 
    142 H142        2.0359  -20.8117  -45.7205 H         1 UNK         0.0800 
    143 H143        1.0748  -23.1593  -45.6898 H         1 UNK         0.0600 
    144 H144       -0.3820  -20.7292  -45.4159 H         1 UNK         0.3000 
    145 H145       -3.3808  -22.1634  -44.0988 H         1 UNK         0.0600 
    146 H146       -2.8296  -20.5918  -42.2714 H         1 UNK         0.0600 
    147 H147       -1.7604  -21.9841  -42.1953 H         1 UNK         0.0600 
    148 H148       -1.1670  -20.4573  -42.8397 H         1 UNK         0.0600 
    149 H149       -2.6940  -19.4589  -44.5384 H         1 UNK         0.3000 
    150 H150       -3.9381  -19.2484  -47.9225 H         1 UNK         0.0600 
    151 H151       -5.7454  -18.9854  -46.1643 H         1 UNK         0.0600 
    152 H152       -5.1671  -17.4398  -46.7687 H         1 UNK         0.0600 
    153 H153       -4.6427  -18.0279  -45.1974 H         1 UNK         0.0600 
    154 H154       -2.6622  -17.2435  -46.4371 H         1 UNK         0.3000 
    155 H155        0.7535  -17.8982  -47.3231 H         1 UNK         0.0600 
    156 H156       -0.1280  -16.4520  -49.0555 H         1 UNK         0.0600 
    157 H157        0.3758  -15.4073  -47.7443 H         1 UNK         0.0600 
    158 H158       -1.3352  -15.7521  -47.9897 H         1 UNK         0.0600 
    159 H159       -0.4150  -16.0248  -45.5197 H         1 UNK         0.3000 
    160 H160       -0.2028  -17.9742  -42.5499 H         1 UNK         0.0600 
    161 H161        1.4460  -15.6114  -43.6061 H         1 UNK         0.0600 
    162 H162        2.0741  -17.0729  -42.8617 H         1 UNK         0.0600 
    163 H163        1.1243  -15.9450  -41.9052 H         1 UNK         0.0600 
    164 H164       -1.0262  -15.2805  -43.2643 H         1 UNK         0.3000 
    165 H165       -4.4854  -16.0727  -43.6901 H         1 UNK         0.0600 
    166 H166       -4.7804  -14.4463  -41.8425 H         1 UNK         0.0600 
    167 H167       -4.2468  -15.9921  -41.2016 H         1 UNK         0.0600 
    168 H168       -3.1023  -14.6628  -41.3435 H         1 UNK         0.0600 
    169 H169       -3.0686  -13.5945  -43.5719 H         1 UNK         0.3000 
    170 H170       -1.5806  -13.5762  -46.7008 H         1 UNK         0.0600 
    171 H171       -3.8892  -13.2059  -47.5916 H         1 UNK         0.0600 
    172 H172       -4.2420  -12.1298  -46.2449 H         1 UNK         0.0600 
    173 H173       -3.0087  -11.6960  -47.4304 H         1 UNK         0.0600 
    174 H174       -2.1362  -11.3392  -45.1406 H         1 UNK         0.3000 
    175 H175       -0.3406  -10.4281  -44.0436 H         1 UNK         0.0600 
    176 H176       -1.1104  -12.0092  -41.5254 H         1 UNK         0.0600 
    177 H177       -0.8918  -10.2616  -41.6209 H         1 UNK         0.0600 
    178 H178       -2.2145  -11.0278  -42.4809 H         1 UNK         0.0600 
    179 H179        1.2655  -11.3319  -41.9727 H         1 UNK         0.3000 
    180 H180        3.5720  -10.7814  -42.2867 H         1 UNK         0.0600 
    181 H181        4.7756  -12.9397  -41.8306 H         1 UNK         0.0600 
    182 H182        3.8040  -13.7530  -43.0572 H         1 UNK         0.0600 
    183 H183        3.0465  -13.1361  -41.5948 H         1 UNK         0.0600 
    184 H184        5.0941  -12.1697  -44.3637 H         1 UNK         0.3000 
    185 H185        5.3701   -9.4413  -46.5814 H         1 UNK         0.0600 
    186 H186        7.4732   -9.3734  -45.3533 H         1 UNK         0.0600 
    187 H187        7.4850  -11.1116  -45.1256 H         1 UNK         0.0600 
    188 H188        7.6739  -10.4309  -46.7420 H         1 UNK         0.0600 
    189 H189        4.4575  -11.2380  -47.4878 H         1 UNK         0.3000 
    190 H190       -0.8433  -21.2563  -48.0925 H         1 UNK         0.3000 
    191 H191       -0.4927  -23.0195  -50.2526 H         1 UNK         0.0600 
    192 H192       -1.1556  -20.6596  -50.4647 H         1 UNK         0.0600 
    193 H193       -2.3142  -21.6885  -51.2802 H         1 UNK         0.0600 
    194 H194       -2.7124  -20.9890  -49.7113 H         1 UNK         0.0600 
    195 H195       -2.9781  -23.0330  -47.6992 H         1 UNK         0.3000 
    196 H196       -4.7241  -24.9739  -48.7539 H         1 UNK         0.0600 
    197 H197       -5.3891  -25.3019  -46.3691 H         1 UNK         0.0600 
    198 H198       -5.2217  -23.5938  -46.7301 H         1 UNK         0.0600 
    199 H199       -3.9607  -24.4265  -45.8330 H         1 UNK         0.0600 
    200 H200       -1.5870  -25.3637  -47.1182 H         1 UNK         0.3000 
    201 H201       -1.8194  -28.3045  -46.9976 H         1 UNK         0.0600 
    202 H202       -0.7477  -27.0967  -45.1163 H         1 UNK         0.0600 
    203 H203        0.4521  -26.4061  -46.2049 H         1 UNK         0.0600 
    204 H204        0.4128  -28.1421  -45.9221 H         1 UNK         0.0600 
    205 H205        0.0891  -25.7792  -48.6910 H         1 UNK         0.3000 
    206 H206        1.7702  -27.5993  -50.0634 H         1 UNK         0.0600 
    207 H207        2.4110  -25.2723  -49.5041 H         1 UNK         0.0600 
    208 H208        2.5724  -25.5554  -51.2306 H         1 UNK         0.0600 
    209 H209        1.1989  -24.6440  -50.6185 H         1 UNK         0.0600 
    210 H210       -1.2042  -25.9113  -51.1739 H         1 UNK         0.3000 
    211 H211       -1.0999  -27.4389  -53.7541 H         1 UNK         0.0600 
    212 H212       -1.5832  -24.4353  -53.3575 H         1 UNK         0.0600 
    213 H213       -1.6795  -25.2929  -54.8915 H         1 UNK         0.0600 
    214 H214       -0.1380  -25.1567  -54.0633 H         1 UNK         0.0600 
    215 H215       -2.9314  -26.7364  -51.0428 H         1 UNK         0.3000 
    216 H216       -5.0449  -26.8733  -50.4121 H         1 UNK         0.0600 
    217 H217       -6.7044  -28.2061  -51.5962 H         1 UNK         0.0600 
    218 H218       -5.1608  -29.0370  -51.6830 H         1 UNK         0.0600 
    219 H219       -5.7767  -28.1628  -53.0859 H         1 UNK         0.0600 
    220 H220       -3.9472  -24.5525  -51.8193 H         1 UNK         0.3000 
    221 H221       -6.3405  -23.2290  -53.0172 H         1 UNK         0.0600 
    222 H222       -3.3654  -22.5049  -53.0930 H         1 UNK         0.0600 
    223 H223       -4.3019  -23.2078  -54.4034 H         1 UNK         0.0600 
    224 H224       -4.6639  -21.5835  -53.8454 H         1 UNK         0.0600 
    225 H225       -6.8857  -23.6200  -50.5490 H         1 UNK         0.3000 
    226 H226       -5.7426  -22.0890  -48.5105 H         1 UNK         0.0600 
    227 H227       -7.2113  -24.0957  -48.1835 H         1 UNK         0.0600 
    228 H228       -7.7890  -22.7296  -47.2427 H         1 UNK         0.0600 
    229 H229       -8.6062  -23.1729  -48.7370 H         1 UNK         0.0600 
    230 H230       -7.9496  -21.0073  -50.9563 H         1 UNK         0.3000 
    231 H231       -8.9358  -18.6387  -49.5727 H         1 UNK         0.0600 
    232 H232       -9.0509  -19.4886  -52.5145 H         1 UNK         0.0600 
    233 H233       -9.9294  -18.1415  -51.7989 H         1 UNK         0.0600 
    234 H234      -10.2961  -19.7845  -51.3013 H         1 UNK         0.0600 
    235 H235       -6.4662  -18.3985  -49.0221 H         1 UNK         0.3000 
    236 H236       -4.5672  -17.2001  -49.0618 H         1 UNK         0.0600 
    237 H237       -6.2502  -15.4219  -48.6507 H         1 UNK         0.0600 
    238 H238       -4.8637  -14.7848  -49.5170 H         1 UNK         0.0600 
    239 H239       -6.3636  -15.1045  -50.3821 H         1 UNK         0.0600 
    240 H240       -4.3816  -19.0454  -51.0051 H         1 UNK         0.3000 
    241 H241       -3.0506  -19.6883  -52.6100 H         1 UNK         0.0600 
    242 H242       -5.8679  -18.0250  -53.1813 H         1 UNK         0.3800 
    243 H243       -5.9071  -18.2606  -54.9092 H         1 UNK         0.3800 
    244 H244       -1.3479  -18.3281  -53.7351 H         1 UNK         0.0800 
    245 H245       -2.0451  -16.8519  -53.1476 H         1 UNK         0.0800 
    246 H246        1.0937  -18.0839  -52.8216 H         1 UNK         0.0800 
    247 H247        0.4116  -19.6749  -52.5668 H         1 UNK         0.0800 
@<TRIPOS>BOND
     1    1    2 1    
     2    1  127 1    
     3    1  128 1    
     4    1  129 1    
     5    2    3 2    
     6    2    4 am   BACKBONE|DICT|INTERRES
     7    4    5 1    
     8    4  130 1    
     9    5    6 1    
    10    5   65 1    
    11    5  131 1    
    12    6    7 1    
    13    6  132 1    
    14    6  133 1    
    15    7    8 1    
    16    8    9 1    
    17    8  134 1    
    18    8  135 1    
    19    9   10 ar   
    20    9   14 ar   
    21   10   11 ar   
    22   10  136 1    
    23   11   12 ar   
    24   11  126 1    
    25   12   13 ar   
    26   12  137 1    
    27   13   14 ar   
    28   13   15 1    
    29   14  138 1    
    30   15   16 1    
    31   15  139 1    
    32   15  140 1    
    33   16   17 1    
    34   17   18 1    
    35   17  141 1    
    36   17  142 1    
    37   18   19 1    
    38   18   67 1    
    39   18  143 1    
    40   19   20 am   BACKBONE|DICT|INTERRES
    41   19  144 1    
    42   20   21 2    
    43   20   22 1    
    44   22   23 1    
    45   22   24 1    
    46   22  145 1    
    47   23  146 1    
    48   23  147 1    
    49   23  148 1    
    50   24   25 am   BACKBONE|DICT|INTERRES
    51   24  149 1    
    52   25   26 2    
    53   25   27 1    
    54   27   28 1    
    55   27   29 1    
    56   27  150 1    
    57   28  151 1    
    58   28  152 1    
    59   28  153 1    
    60   29   30 am   BACKBONE|DICT|INTERRES
    61   29  154 1    
    62   30   31 2    
    63   30   32 1    
    64   32   33 1    
    65   32   34 1    
    66   32  155 1    
    67   33  156 1    
    68   33  157 1    
    69   33  158 1    
    70   34   35 am   BACKBONE|DICT|INTERRES
    71   34  159 1    
    72   35   36 2    
    73   35   37 1    
    74   37   38 1    
    75   37   39 1    
    76   37  160 1    
    77   38  161 1    
    78   38  162 1    
    79   38  163 1    
    80   39   40 am   BACKBONE|DICT|INTERRES
    81   39  164 1    
    82   40   41 2    
    83   40   42 1    
    84   42   43 1    
    85   42   44 1    
    86   42  165 1    
    87   43  166 1    
    88   43  167 1    
    89   43  168 1    
    90   44   45 am   BACKBONE|DICT|INTERRES
    91   44  169 1    
    92   45   46 2    
    93   45   47 1    
    94   47   48 1    
    95   47   49 1    
    96   47  170 1    
    97   48  171 1    
    98   48  172 1    
    99   48  173 1    
   100   49   50 am   BACKBONE|DICT|INTERRES
   101   49  174 1    
   102   50   51 2    
   103   50   52 1    
   104   52   53 1    
   105   52   54 1    
   106   52  175 1    
   107   53  176 1    
   108   53  177 1    
   109   53  178 1    
   110   54   55 am   BACKBONE|DICT|INTERRES
   111   54  179 1    
   112   55   56 2    
   113   55   57 1    
   114   57   58 1    
   115   57   59 1    
   116   57  180 1    
   117   58  181 1    
   118   58  182 1    
   119   58  183 1    
   120   59   60 am   BACKBONE|DICT|INTERRES
   121   59  184 1    
   122   60   61 2    
   123   60   62 1    
   124   62   63 1    
   125   62   64 1    
   126   62  185 1    
   127   63  186 1    
   128   63  187 1    
   129   63  188 1    
   130   64   65 am   BACKBONE|DICT|INTERRES
   131   64  189 1    
   132   65   66 2    
   133   67   68 2    
   134   67   69 am   BACKBONE|DICT|INTERRES
   135   69   70 1    
   136   69  190 1    
   137   70   71 1    
   138   70   72 1    
   139   70  191 1    
   140   71  192 1    
   141   71  193 1    
   142   71  194 1    
   143   72   73 2    
   144   72   74 am   BACKBONE|DICT|INTERRES
   145   74   75 1    
   146   74  195 1    
   147   75   76 1    
   148   75   77 1    
   149   75  196 1    
   150   76  197 1    
   151   76  198 1    
   152   76  199 1    
   153   77   78 2    
   154   77   79 am   BACKBONE|DICT|INTERRES
   155   79   80 1    
   156   79  200 1    
   157   80   81 1    
   158   80   82 1    
   159   80  201 1    
   160   81  202 1    
   161   81  203 1    
   162   81  204 1    
   163   82   83 2    
   164   82   84 am   BACKBONE|DICT|INTERRES
   165   84   85 1    
   166   84  205 1    
   167   85   86 1    
   168   85   87 1    
   169   85  206 1    
   170   86  207 1    
   171   86  208 1    
   172   86  209 1    
   173   87   88 2    
   174   87   89 am   BACKBONE|DICT|INTERRES
   175   89   90 1    
   176   89  210 1    
   177   90   91 1    
   178   90   92 1    
   179   90  211 1    
   180   91  212 1    
   181   91  213 1    
   182   91  214 1    
   183   92   93 2    
   184   92   94 am   BACKBONE|DICT|INTERRES
   185   94   95 1    
   186   94  215 1    
   187   95   96 1    
   188   95   97 1    
   189   95  216 1    
   190   96  217 1    
   191   96  218 1    
   192   96  219 1    
   193   97   98 2    
   194   97   99 am   BACKBONE|DICT|INTERRES
   195   99  100 1    
   196   99  220 1    
   197  100  101 1    
   198  100  102 1    
   199  100  221 1    
   200  101  222 1    
   201  101  223 1    
   202  101  224 1    
   203  102  103 2    
   204  102  104 am   BACKBONE|DICT|INTERRES
   205  104  105 1    
   206  104  225 1    
   207  105  106 1    
   208  105  107 1    
   209  105  226 1    
   210  106  227 1    
   211  106  228 1    
   212  106  229 1    
   213  107  108 2    
   214  107  109 am   BACKBONE|DICT|INTERRES
   215  109  110 1    
   216  109  230 1    
   217  110  111 1    
   218  110  112 1    
   219  110  231 1    
   220  111  232 1    
   221  111  233 1    
   222  111  234 1    
   223  112  113 2    
   224  112  114 am   BACKBONE|DICT|INTERRES
   225  114  115 1    
   226  114  235 1    
   227  115  116 1    
   228  115  117 1    
   229  115  236 1    
   230  116  237 1    
   231  116  238 1    
   232  116  239 1    
   233  117  118 2    
   234  117  119 am   BACKBONE|DICT|INTERRES
   235  119  120 1    
   236  119  240 1    
   237  120  121 1    
   238  120  124 1    
   239  120  241 1    
   240  121  122 am   BACKBONE|DICT|INTERRES
   241  121  123 2    
   242  122  242 1    
   243  122  243 1    
   244  124  125 1    
   245  124  244 1    
   246  124  245 1    
   247  125  126 1    
   248  126  246 1    
   249  126  247 1    
@<TRIPOS>SUBSTRUCTURE
     1 UNK         1 GROUP             0       ****    0 ROOT    
