@<TRIPOS>MOLECULE
3R540
247   249    1
SMALL
USER_CHARGES


@<TRIPOS>ATOM
      1 CA          2.8670  -14.8161  -46.3902 C.3       0 UNK        -0.1800 
      2 C           1.4116  -15.1774  -46.6461 C.2       0 UNK         0.5000 
      3 O           0.6938  -15.5289  -45.7147 O.2       0 UNK        -0.5000 
      4 N           0.9579  -15.0766  -47.8997 N.am      1 UNK        -0.5000 
      5 CA         -0.4038  -15.4099  -48.3407 C.3       1 UNK         0.1400 
      6 C6         -0.4312  -15.8446  -49.8297 C.3       23 UNK        -0.0398 
      7 S7          0.6940  -17.2336  -50.2046 S.3       23 UNK        -0.2404 
      8 C8         -0.4869  -18.5803  -50.5503 C.3       23 UNK        -0.0205 
      9 C9          0.1136  -19.7689  -51.2985 C.ar      23 UNK        -0.0193 
     10 C10        -0.6837  -20.4626  -52.2150 C.ar      23 UNK        -0.1150 
     11 C11        -0.1730  -21.5457  -52.9351 C.ar      23 UNK        -0.0193 
     12 C12         1.1514  -21.9389  -52.7330 C.ar      23 UNK        -0.1150 
     13 C13         1.9577  -21.2706  -51.8075 C.ar      23 UNK        -0.0193 
     14 C14         1.4321  -20.1935  -51.0869 C.ar      23 UNK        -0.1150 
     15 C15         3.4034  -21.7032  -51.6159 C.3       23 UNK        -0.0205 
     16 S16         3.5499  -23.1572  -50.5292 S.3       23 UNK        -0.2404 
     17 C17         3.5731  -22.3962  -48.8717 C.3       23 UNK        -0.0398 
     18 CA          2.6041  -23.0869  -47.8797 C.3       11 UNK         0.1400 
     19 N           3.0638  -22.9473  -46.4943 N.am      11 UNK        -0.5000 
     20 C           2.5342  -23.5901  -45.4430 C.2       10 UNK         0.5000 
     21 O           1.6391  -24.4285  -45.5385 O.2       10 UNK        -0.5000 
     22 CA          3.0624  -23.1965  -44.0498 C.3       10 UNK         0.1400 
     23 CB          4.2146  -24.1209  -43.6302 C.3       10 UNK        -0.1800 
     24 N           3.5101  -21.8021  -43.9845 N.am      10 UNK        -0.5000 
     25 C           2.6985  -20.7403  -44.0793 C.2       9 UNK         0.5000 
     26 O           1.4762  -20.8271  -44.2075 O.2       9 UNK        -0.5000 
     27 CA          3.3835  -19.3687  -44.1245 C.3       9 UNK         0.1400 
     28 CB          3.3669  -18.7975  -45.5533 C.3       9 UNK        -0.1800 
     29 N           2.7361  -18.4310  -43.2120 N.am      9 UNK        -0.5000 
     30 C           3.3825  -17.4618  -42.5498 C.2       8 UNK         0.5000 
     31 O           4.5974  -17.2738  -42.6361 O.2       8 UNK        -0.5000 
     32 CA          2.5574  -16.5442  -41.6276 C.3       8 UNK         0.1400 
     33 CB          1.9444  -15.3807  -42.4191 C.3       8 UNK        -0.1800 
     34 N           1.5008  -17.2401  -40.8973 N.am      8 UNK        -0.5000 
     35 C           1.7011  -18.1163  -39.9033 C.2       7 UNK         0.5000 
     36 O           2.8144  -18.4468  -39.4935 O.2       7 UNK        -0.5000 
     37 CA          0.4441  -18.7244  -39.2570 C.3       7 UNK         0.1400 
     38 CB         -0.0915  -17.8159  -38.1388 C.3       7 UNK        -0.1800 
     39 N          -0.6026  -18.9439  -40.2544 N.am      7 UNK        -0.5000 
     40 C          -0.6932  -20.0504  -41.0048 C.2       6 UNK         0.5000 
     41 O           0.0120  -21.0441  -40.8311 O.2       6 UNK        -0.5000 
     42 CA         -1.7378  -20.0574  -42.1404 C.3       6 UNK         0.1400 
     43 CB         -3.0034  -20.8155  -41.7135 C.3       6 UNK        -0.1800 
     44 N          -2.1133  -18.7248  -42.6129 N.am      6 UNK        -0.5000 
     45 C          -1.2896  -17.9085  -43.2831 C.2       5 UNK         0.5000 
     46 O          -0.1209  -18.1828  -43.5433 O.2       5 UNK        -0.5000 
     47 CA         -1.8497  -16.5298  -43.6662 C.3       5 UNK         0.1400 
     48 CB         -2.6559  -16.6066  -44.9709 C.3       5 UNK        -0.1800 
     49 N          -2.6692  -15.9036  -42.6289 N.am      5 UNK        -0.5000 
     50 C          -2.2798  -15.6440  -41.3744 C.2       4 UNK         0.5000 
     51 O          -1.2375  -16.0763  -40.8793 O.2       4 UNK        -0.5000 
     52 CA         -3.1927  -14.6948  -40.5707 C.3       4 UNK         0.1400 
     53 CB         -2.7580  -14.5619  -39.1001 C.3       4 UNK        -0.1800 
     54 N          -3.2010  -13.3654  -41.1859 N.am      4 UNK        -0.5000 
     55 C          -3.8735  -13.0321  -42.2956 C.2       3 UNK         0.5000 
     56 O          -4.6831  -13.7844  -42.8440 O.2       3 UNK        -0.5000 
     57 CA         -3.5749  -11.6602  -42.9376 C.3       3 UNK         0.1400 
     58 CB         -2.4918  -10.8333  -42.2071 C.3       3 UNK        -0.1800 
     59 N          -3.2442  -11.8052  -44.3612 N.am      3 UNK        -0.5000 
     60 C          -2.2329  -12.5124  -44.8884 C.2       2 UNK         0.5000 
     61 O          -1.3790  -13.1068  -44.2264 O.2       2 UNK        -0.5000 
     62 CA         -2.1580  -12.5386  -46.4215 C.3       2 UNK         0.1400 
     63 CB         -1.5557  -11.2291  -46.9642 C.3       2 UNK        -0.1800 
     64 N          -1.3462  -13.6726  -46.8558 N.am      2 UNK        -0.5000 
     65 C          -1.3967  -14.2520  -48.0606 C.2       1 UNK         0.5000 
     66 O          -2.1762  -13.8860  -48.9426 O.2       1 UNK        -0.5000 
     67 C           1.1566  -22.5777  -48.0390 C.2       11 UNK         0.5000 
     68 O           0.3303  -23.2559  -48.6484 O.2       11 UNK        -0.5000 
     69 N           0.8625  -21.4254  -47.4183 N.am      12 UNK        -0.5000 
     70 CA         -0.4734  -20.8379  -47.3737 C.3       12 UNK         0.1400 
     71 CB         -0.3838  -19.3864  -46.8866 C.3       12 UNK        -0.1800 
     72 C          -1.4453  -21.6545  -46.5061 C.2       12 UNK         0.5000 
     73 O          -2.6124  -21.7774  -46.8755 O.2       12 UNK        -0.5000 
     74 N          -0.9453  -22.2341  -45.4035 N.am      13 UNK        -0.5000 
     75 CA         -1.6894  -23.1569  -44.5411 C.3       13 UNK         0.1400 
     76 CB         -0.8448  -23.5248  -43.3095 C.3       13 UNK        -0.1800 
     77 C          -2.1218  -24.4345  -45.2832 C.2       13 UNK         0.5000 
     78 O          -3.2680  -24.8616  -45.1425 O.2       13 UNK        -0.5000 
     79 N          -1.1973  -25.0070  -46.0669 N.am      14 UNK        -0.5000 
     80 CA         -1.4278  -26.1821  -46.9044 C.3       14 UNK         0.1400 
     81 CB         -0.0801  -26.7166  -47.4135 C.3       14 UNK        -0.1800 
     82 C          -2.3813  -25.8939  -48.0777 C.2       14 UNK         0.5000 
     83 O          -3.2522  -26.7162  -48.3648 O.2       14 UNK        -0.5000 
     84 N          -2.2006  -24.7375  -48.7302 N.am      15 UNK        -0.5000 
     85 CA         -3.0180  -24.2846  -49.8536 C.3       15 UNK         0.1400 
     86 CB         -2.3460  -23.0755  -50.5187 C.3       15 UNK        -0.1800 
     87 C          -4.4574  -23.9255  -49.4528 C.2       15 UNK         0.5000 
     88 O          -5.3943  -24.3363  -50.1385 O.2       15 UNK        -0.5000 
     89 N          -4.5934  -23.1372  -48.3748 N.am      16 UNK        -0.5000 
     90 CA         -5.8268  -22.5043  -47.8935 C.3       16 UNK         0.1400 
     91 CB         -6.8038  -23.5607  -47.3373 C.3       16 UNK        -0.1800 
     92 C          -6.4657  -21.5755  -48.9527 C.2       16 UNK         0.5000 
     93 O          -7.6914  -21.5052  -49.0627 O.2       16 UNK        -0.5000 
     94 N          -5.6144  -20.8921  -49.7271 N.am      17 UNK        -0.5000 
     95 CA         -5.9669  -20.0450  -50.8603 C.3       17 UNK         0.1400 
     96 CB         -6.2351  -20.9251  -52.0956 C.3       17 UNK        -0.1800 
     97 C          -4.8172  -19.0637  -51.1295 C.2       17 UNK         0.5000 
     98 O          -3.7075  -19.2659  -50.6291 O.2       17 UNK        -0.5000 
     99 N          -5.1049  -18.0245  -51.9224 N.am      18 UNK        -0.5000 
    100 CA        -4.1353  -17.0314  -52.3856 C.3       18 UNK         0.1400 
    101 CB        -4.8974  -15.8438  -52.9932 C.3       18 UNK        -0.1800 
    102 C         -3.1551  -17.6190  -53.4178 C.2       18 UNK         0.5000 
    103 O         -3.5068  -18.5605  -54.1335 O.2       18 UNK        -0.5000 
    104 N         -1.9539  -17.0307  -53.4896 N.am      19 UNK        -0.5000 
    105 CA        -0.8890  -17.4112  -54.4192 C.3       19 UNK         0.1400 
    106 CB         0.3841  -16.6226  -54.0794 C.3       19 UNK        -0.1800 
    107 C         -1.2846  -17.1771  -55.8867 C.2       19 UNK         0.5000 
    108 O         -2.0706  -16.2711  -56.1750 O.2       19 UNK        -0.5000 
    109 N         -0.7405  -18.0127  -56.7804 N.am      20 UNK        -0.5000 
    110 CA        -0.9850  -18.0975  -58.2281 C.3       20 UNK         0.1400 
    111 CB        -0.6530  -16.7753  -58.9466 C.3       20 UNK        -0.1800 
    112 C         -2.3932  -18.6050  -58.6012 C.2       20 UNK         0.5000 
    113 O         -2.5168  -19.3747  -59.5546 O.2       20 UNK        -0.5000 
    114 N         -3.4180  -18.1990  -57.8405 N.am      21 UNK        -0.5000 
    115 CA        -4.7778  -18.7273  -57.8988 C.3       21 UNK         0.1400 
    116 CB        -5.7181  -17.8201  -57.0869 C.3       21 UNK        -0.1800 
    117 C         -4.8129  -20.1810  -57.3975 C.2       21 UNK         0.5000 
    118 O         -5.1460  -21.0807  -58.1697 O.2       21 UNK        -0.5000 
    119 N         -4.4202  -20.3772  -56.1304 N.am      22 UNK        -0.5000 
    120 CA        -4.1965  -21.6753  -55.4716 C.3       22 UNK         0.1400 
    121 C         -5.4271  -22.6349  -55.4190 C.2       22 UNK         0.5000 
    122 N         -6.6527  -22.1391  -55.5376 N.am      22 UNK        -0.7600 
    123 O         -5.2793  -23.8394  -55.2308 O.2       22 UNK        -0.5000 
    124 C124       -2.8906  -22.3558  -55.9734 C.3       23 UNK        -0.0398 
    125 S125       -1.4103  -21.4287  -55.4325 S.3       23 UNK        -0.2404 
    126 C126       -1.0710  -22.3234  -53.8849 C.3       23 UNK        -0.0205 
    127 H127        3.3400  -15.5786  -45.7720 H         1 UNK         0.0600 
    128 H128        2.9275  -13.8651  -45.8611 H         1 UNK         0.0600 
    129 H129        3.4316  -14.7311  -47.3189 H         1 UNK         0.0600 
    130 H130        1.5848  -14.7667  -48.6281 H         1 UNK         0.3000 
    131 H131       -0.7548  -16.2621  -47.7555 H         1 UNK         0.0600 
    132 H132       -1.4458  -16.1178  -50.1226 H         1 UNK         0.0800 
    133 H133       -0.1481  -15.0094  -50.4729 H         1 UNK         0.0800 
    134 H134       -1.3041  -18.1726  -51.1408 H         1 UNK         0.0800 
    135 H135       -0.9363  -18.9206  -49.6204 H         1 UNK         0.0800 
    136 H136       -1.7111  -20.1626  -52.3698 H         1 UNK         0.1150 
    137 H137        1.5539  -22.7771  -53.2843 H         1 UNK         0.1150 
    138 H138        2.0562  -19.6790  -50.3709 H         1 UNK         0.1150 
    139 H139        3.8307  -21.9545  -52.5878 H         1 UNK         0.0800 
    140 H140        4.0083  -20.8816  -51.2292 H         1 UNK         0.0800 
    141 H141        3.3837  -21.3233  -48.9340 H         1 UNK         0.0800 
    142 H142        4.5994  -22.4911  -48.5143 H         1 UNK         0.0800 
    143 H143        2.5971  -24.1581  -48.0946 H         1 UNK         0.0600 
    144 H144        3.8072  -22.2871  -46.3238 H         1 UNK         0.3000 
    145 H145        2.2456  -23.3238  -43.3366 H         1 UNK         0.0600 
    146 H146        4.5484  -23.8996  -42.6162 H         1 UNK         0.0600 
    147 H147        3.9016  -25.1658  -43.6467 H         1 UNK         0.0600 
    148 H148        5.0731  -24.0247  -44.2961 H         1 UNK         0.0600 
    149 H149        4.5042  -21.6546  -43.8833 H         1 UNK         0.3000 
    150 H150        4.4238  -19.5097  -43.8233 H         1 UNK         0.0600 
    151 H151        2.3567  -18.5312  -45.8666 H         1 UNK         0.0600 
    152 H152        3.7612  -19.5149  -46.2737 H         1 UNK         0.0600 
    153 H153        3.9828  -17.9013  -45.6219 H         1 UNK         0.0600 
    154 H154        1.7222  -18.5075  -43.1434 H         1 UNK         0.3000 
    155 H155        3.2430  -16.1191  -40.8915 H         1 UNK         0.0600 
    156 H156        1.4245  -14.6828  -41.7625 H         1 UNK         0.0600 
    157 H157        2.7118  -14.8201  -42.9540 H         1 UNK         0.0600 
    158 H158        1.2289  -15.7397  -43.1567 H         1 UNK         0.0600 
    159 H159        0.5473  -16.9930  -41.1383 H         1 UNK         0.3000 
    160 H160        0.7254  -19.6772  -38.8030 H         1 UNK         0.0600 
    161 H161       -0.3534  -16.8242  -38.5078 H         1 UNK         0.0600 
    162 H162        0.6560  -17.6844  -37.3556 H         1 UNK         0.0600 
    163 H163       -0.9786  -18.2452  -37.6730 H         1 UNK         0.0600 
    164 H164       -1.1800  -18.1442  -40.4840 H         1 UNK         0.3000 
    165 H165       -1.2914  -20.5820  -42.9861 H         1 UNK         0.0600 
    166 H166       -3.7098  -20.9011  -42.5394 H         1 UNK         0.0600 
    167 H167       -2.7612  -21.8282  -41.3886 H         1 UNK         0.0600 
    168 H168       -3.5100  -20.3172  -40.8861 H         1 UNK         0.0600 
    169 H169       -3.0509  -18.4097  -42.4115 H         1 UNK         0.3000 
    170 H170       -1.0024  -15.8649  -43.8301 H         1 UNK         0.0600 
    171 H171       -2.0362  -16.9831  -45.7836 H         1 UNK         0.0600 
    172 H172       -3.5187  -17.2667  -44.8761 H         1 UNK         0.0600 
    173 H173       -3.0162  -15.6226  -45.2708 H         1 UNK         0.0600 
    174 H174       -3.5226  -15.4543  -42.9425 H         1 UNK         0.3000 
    175 H175       -4.2030  -15.1088  -40.5868 H         1 UNK         0.0600 
    176 H176       -1.7544  -14.1441  -39.0108 H         1 UNK         0.0600 
    177 H177       -3.4399  -13.9180  -38.5445 H         1 UNK         0.0600 
    178 H178       -2.7542  -15.5340  -38.6052 H         1 UNK         0.0600 
    179 H179       -2.5258  -12.7069  -40.8256 H         1 UNK         0.3000 
    180 H180       -4.5073  -11.0958  -42.8916 H         1 UNK         0.0600 
    181 H181       -1.5280  -11.3430  -42.1824 H         1 UNK         0.0600 
    182 H182       -2.7845  -10.6198  -41.1784 H         1 UNK         0.0600 
    183 H183       -2.3411   -9.8724  -42.6993 H         1 UNK         0.0600 
    184 H184       -3.9004  -11.3717  -44.9955 H         1 UNK         0.3000 
    185 H185       -3.1731  -12.6601  -46.8055 H         1 UNK         0.0600 
    186 H186       -2.1363  -10.3639  -46.6421 H         1 UNK         0.0600 
    187 H187       -0.5321  -11.0866  -46.6156 H         1 UNK         0.0600 
    188 H188       -1.5420  -11.2191  -48.0541 H         1 UNK         0.0600 
    189 H189       -0.7220  -14.0518  -46.1480 H         1 UNK         0.3000 
    190 H190        1.5766  -20.9596  -46.8800 H         1 UNK         0.3000 
    191 H191       -0.8682  -20.8347  -48.3905 H         1 UNK         0.0600 
    192 H192       -0.0336  -19.3313  -45.8574 H         1 UNK         0.0600 
    193 H193       -1.3613  -18.9066  -46.9301 H         1 UNK         0.0600 
    194 H194        0.2981  -18.7982  -47.5004 H         1 UNK         0.0600 
    195 H195        0.0091  -22.0214  -45.1361 H         1 UNK         0.3000 
    196 H196       -2.5867  -22.6353  -44.2025 H         1 UNK         0.0600 
    197 H197       -1.4699  -23.9673  -42.5334 H         1 UNK         0.0600 
    198 H198       -0.3518  -22.6567  -42.8780 H         1 UNK         0.0600 
    199 H199       -0.0677  -24.2507  -43.5470 H         1 UNK         0.0600 
    200 H200       -0.2576  -24.6220  -46.0726 H         1 UNK         0.3000 
    201 H201       -1.8860  -26.9547  -46.2834 H         1 UNK         0.0600 
    202 H202        0.5720  -26.9925  -46.5846 H         1 UNK         0.0600 
    203 H203        0.4454  -25.9763  -48.0179 H         1 UNK         0.0600 
    204 H204       -0.2194  -27.6060  -48.0292 H         1 UNK         0.0600 
    205 H205       -1.4126  -24.1489  -48.4760 H         1 UNK         0.3000 
    206 H206       -3.0664  -25.0919  -50.5874 H         1 UNK         0.0600 
    207 H207       -1.3823  -23.3494  -50.9481 H         1 UNK         0.0600 
    208 H208       -2.9683  -22.6758  -51.3196 H         1 UNK         0.0600 
    209 H209       -2.1753  -22.2651  -49.8102 H         1 UNK         0.0600 
    210 H210       -3.7522  -22.8397  -47.8848 H         1 UNK         0.3000 
    211 H211       -5.5321  -21.8603  -47.0638 H         1 UNK         0.0600 
    212 H212       -6.3172  -24.1913  -46.5929 H         1 UNK         0.0600 
    213 H213       -7.1925  -24.2085  -48.1234 H         1 UNK         0.0600 
    214 H214       -7.6576  -23.0864  -46.8524 H         1 UNK         0.0600 
    215 H215       -4.6199  -20.9421  -49.5445 H         1 UNK         0.3000 
    216 H216       -6.8600  -19.4663  -50.6160 H         1 UNK         0.0600 
    217 H217       -6.4546  -20.3211  -52.9767 H         1 UNK         0.0600 
    218 H218       -7.0886  -21.5841  -51.9358 H         1 UNK         0.0600 
    219 H219       -5.3738  -21.5511  -52.3311 H         1 UNK         0.0600 
    220 H220       -6.0314  -17.9549  -52.3161 H         1 UNK         0.3000 
    221 H221       -3.5664  -16.6793  -51.5225 H         1 UNK         0.0600 
    222 H222       -5.4912  -16.1465  -53.8569 H         1 UNK         0.0600 
    223 H223       -5.5698  -15.3910  -52.2643 H         1 UNK         0.0600 
    224 H224       -4.2099  -15.0652  -53.3265 H         1 UNK         0.0600 
    225 H225       -1.7685  -16.2237  -52.9141 H         1 UNK         0.3000 
    226 H226       -0.6879  -18.4752  -54.2812 H         1 UNK         0.0600 
    227 H227        1.1953  -16.8722  -54.7646 H         1 UNK         0.0600 
    228 H228        0.2207  -15.5460  -54.1423 H         1 UNK         0.0600 
    229 H229        0.7344  -16.8532  -53.0750 H         1 UNK         0.0600 
    230 H230       -0.1368  -18.7403  -56.4225 H         1 UNK         0.3000 
    231 H231       -0.2821  -18.8479  -58.5936 H         1 UNK         0.0600 
    232 H232       -0.7064  -16.9006  -60.0287 H         1 UNK         0.0600 
    233 H233        0.3557  -16.4386  -58.7077 H         1 UNK         0.0600 
    234 H234       -1.3464  -15.9773  -58.6806 H         1 UNK         0.0600 
    235 H235       -3.2103  -17.5374  -57.0992 H         1 UNK         0.3000 
    236 H236       -5.1090  -18.7176  -58.9394 H         1 UNK         0.0600 
    237 H237       -5.7503  -16.8148  -57.5073 H         1 UNK         0.0600 
    238 H238       -6.7374  -18.2080  -57.0944 H         1 UNK         0.0600 
    239 H239       -5.4058  -17.7331  -56.0457 H         1 UNK         0.0600 
    240 H240       -4.1491  -19.5749  -55.5659 H         1 UNK         0.3000 
    241 H241       -4.0395  -21.4263  -54.4218 H         1 UNK         0.0600 
    242 H242       -6.7932  -21.1553  -55.6988 H         1 UNK         0.3800 
    243 H243       -7.4451  -22.7600  -55.4933 H         1 UNK         0.3800 
    244 H244       -2.8024  -23.3805  -55.6096 H         1 UNK         0.0800 
    245 H245       -2.8875  -22.4276  -57.0617 H         1 UNK         0.0800 
    246 H246       -0.6323  -23.2937  -54.1226 H         1 UNK         0.0800 
    247 H247       -2.0141  -22.5322  -53.3820 H         1 UNK         0.0800 
@<TRIPOS>BOND
     1    1    2 1    
     2    1  127 1    
     3    1  128 1    
     4    1  129 1    
     5    2    3 2    
     6    2    4 am   BACKBONE|DICT|INTERRES
     7    4    5 1    
     8    4  130 1    
     9    5    6 1    
    10    5   65 1    
    11    5  131 1    
    12    6    7 1    
    13    6  132 1    
    14    6  133 1    
    15    7    8 1    
    16    8    9 1    
    17    8  134 1    
    18    8  135 1    
    19    9   10 ar   
    20    9   14 ar   
    21   10   11 ar   
    22   10  136 1    
    23   11   12 ar   
    24   11  126 1    
    25   12   13 ar   
    26   12  137 1    
    27   13   14 ar   
    28   13   15 1    
    29   14  138 1    
    30   15   16 1    
    31   15  139 1    
    32   15  140 1    
    33   16   17 1    
    34   17   18 1    
    35   17  141 1    
    36   17  142 1    
    37   18   19 1    
    38   18   67 1    
    39   18  143 1    
    40   19   20 am   BACKBONE|DICT|INTERRES
    41   19  144 1    
    42   20   21 2    
    43   20   22 1    
    44   22   23 1    
    45   22   24 1    
    46   22  145 1    
    47   23  146 1    
    48   23  147 1    
    49   23  148 1    
    50   24   25 am   BACKBONE|DICT|INTERRES
    51   24  149 1    
    52   25   26 2    
    53   25   27 1    
    54   27   28 1    
    55   27   29 1    
    56   27  150 1    
    57   28  151 1    
    58   28  152 1    
    59   28  153 1    
    60   29   30 am   BACKBONE|DICT|INTERRES
    61   29  154 1    
    62   30   31 2    
    63   30   32 1    
    64   32   33 1    
    65   32   34 1    
    66   32  155 1    
    67   33  156 1    
    68   33  157 1    
    69   33  158 1    
    70   34   35 am   BACKBONE|DICT|INTERRES
    71   34  159 1    
    72   35   36 2    
    73   35   37 1    
    74   37   38 1    
    75   37   39 1    
    76   37  160 1    
    77   38  161 1    
    78   38  162 1    
    79   38  163 1    
    80   39   40 am   BACKBONE|DICT|INTERRES
    81   39  164 1    
    82   40   41 2    
    83   40   42 1    
    84   42   43 1    
    85   42   44 1    
    86   42  165 1    
    87   43  166 1    
    88   43  167 1    
    89   43  168 1    
    90   44   45 am   BACKBONE|DICT|INTERRES
    91   44  169 1    
    92   45   46 2    
    93   45   47 1    
    94   47   48 1    
    95   47   49 1    
    96   47  170 1    
    97   48  171 1    
    98   48  172 1    
    99   48  173 1    
   100   49   50 am   BACKBONE|DICT|INTERRES
   101   49  174 1    
   102   50   51 2    
   103   50   52 1    
   104   52   53 1    
   105   52   54 1    
   106   52  175 1    
   107   53  176 1    
   108   53  177 1    
   109   53  178 1    
   110   54   55 am   BACKBONE|DICT|INTERRES
   111   54  179 1    
   112   55   56 2    
   113   55   57 1    
   114   57   58 1    
   115   57   59 1    
   116   57  180 1    
   117   58  181 1    
   118   58  182 1    
   119   58  183 1    
   120   59   60 am   BACKBONE|DICT|INTERRES
   121   59  184 1    
   122   60   61 2    
   123   60   62 1    
   124   62   63 1    
   125   62   64 1    
   126   62  185 1    
   127   63  186 1    
   128   63  187 1    
   129   63  188 1    
   130   64   65 am   BACKBONE|DICT|INTERRES
   131   64  189 1    
   132   65   66 2    
   133   67   68 2    
   134   67   69 am   BACKBONE|DICT|INTERRES
   135   69   70 1    
   136   69  190 1    
   137   70   71 1    
   138   70   72 1    
   139   70  191 1    
   140   71  192 1    
   141   71  193 1    
   142   71  194 1    
   143   72   73 2    
   144   72   74 am   BACKBONE|DICT|INTERRES
   145   74   75 1    
   146   74  195 1    
   147   75   76 1    
   148   75   77 1    
   149   75  196 1    
   150   76  197 1    
   151   76  198 1    
   152   76  199 1    
   153   77   78 2    
   154   77   79 am   BACKBONE|DICT|INTERRES
   155   79   80 1    
   156   79  200 1    
   157   80   81 1    
   158   80   82 1    
   159   80  201 1    
   160   81  202 1    
   161   81  203 1    
   162   81  204 1    
   163   82   83 2    
   164   82   84 am   BACKBONE|DICT|INTERRES
   165   84   85 1    
   166   84  205 1    
   167   85   86 1    
   168   85   87 1    
   169   85  206 1    
   170   86  207 1    
   171   86  208 1    
   172   86  209 1    
   173   87   88 2    
   174   87   89 am   BACKBONE|DICT|INTERRES
   175   89   90 1    
   176   89  210 1    
   177   90   91 1    
   178   90   92 1    
   179   90  211 1    
   180   91  212 1    
   181   91  213 1    
   182   91  214 1    
   183   92   93 2    
   184   92   94 am   BACKBONE|DICT|INTERRES
   185   94   95 1    
   186   94  215 1    
   187   95   96 1    
   188   95   97 1    
   189   95  216 1    
   190   96  217 1    
   191   96  218 1    
   192   96  219 1    
   193   97   98 2    
   194   97   99 am   BACKBONE|DICT|INTERRES
   195   99  100 1    
   196   99  220 1    
   197  100  101 1    
   198  100  102 1    
   199  100  221 1    
   200  101  222 1    
   201  101  223 1    
   202  101  224 1    
   203  102  103 2    
   204  102  104 am   BACKBONE|DICT|INTERRES
   205  104  105 1    
   206  104  225 1    
   207  105  106 1    
   208  105  107 1    
   209  105  226 1    
   210  106  227 1    
   211  106  228 1    
   212  106  229 1    
   213  107  108 2    
   214  107  109 am   BACKBONE|DICT|INTERRES
   215  109  110 1    
   216  109  230 1    
   217  110  111 1    
   218  110  112 1    
   219  110  231 1    
   220  111  232 1    
   221  111  233 1    
   222  111  234 1    
   223  112  113 2    
   224  112  114 am   BACKBONE|DICT|INTERRES
   225  114  115 1    
   226  114  235 1    
   227  115  116 1    
   228  115  117 1    
   229  115  236 1    
   230  116  237 1    
   231  116  238 1    
   232  116  239 1    
   233  117  118 2    
   234  117  119 am   BACKBONE|DICT|INTERRES
   235  119  120 1    
   236  119  240 1    
   237  120  121 1    
   238  120  124 1    
   239  120  241 1    
   240  121  122 am   BACKBONE|DICT|INTERRES
   241  121  123 2    
   242  122  242 1    
   243  122  243 1    
   244  124  125 1    
   245  124  244 1    
   246  124  245 1    
   247  125  126 1    
   248  126  246 1    
   249  126  247 1    
@<TRIPOS>SUBSTRUCTURE
     1 UNK         1 GROUP             0       ****    0 ROOT    
