@<TRIPOS>MOLECULE
3R540
247   249    1
SMALL
USER_CHARGES


@<TRIPOS>ATOM
      1 CA          2.5005  -12.6015  -50.0871 C.3       0 UNK        -0.1800 
      2 C           1.2910  -11.9293  -49.4525 C.2       0 UNK         0.5000 
      3 O           0.9809  -10.7856  -49.7855 O.2       0 UNK        -0.5000 
      4 N           0.6246  -12.6363  -48.5318 N.am      1 UNK        -0.5000 
      5 CA         -0.5524  -12.2137  -47.7609 C.3       1 UNK         0.1400 
      6 C6         -1.7929  -11.8797  -48.6319 C.3       23 UNK        -0.0398 
      7 S7         -2.2890  -13.2944  -49.6754 S.3       23 UNK        -0.2404 
      8 C8         -3.9556  -13.6391  -49.0329 C.3       23 UNK        -0.0205 
      9 C9         -4.5923  -14.8280  -49.7362 C.ar      23 UNK        -0.0193 
     10 C10        -4.8857  -14.7588  -51.1009 C.ar      23 UNK        -0.1150 
     11 C11        -5.4630  -15.8461  -51.7606 C.ar      23 UNK        -0.0193 
     12 C12        -5.7827  -16.9996  -51.0359 C.ar      23 UNK        -0.1150 
     13 C13        -5.5163  -17.0727  -49.6647 C.ar      23 UNK        -0.0193 
     14 C14        -4.9093  -15.9882  -49.0235 C.ar      23 UNK        -0.1150 
     15 C15        -5.9155  -18.3028  -48.8630 C.3       23 UNK        -0.0205 
     16 S16        -4.5932  -19.5477  -48.8239 S.3       23 UNK        -0.2404 
     17 C17        -5.1670  -20.5849  -47.4352 C.3       23 UNK        -0.0398 
     18 CA         -4.4484  -21.9546  -47.3466 C.3       11 UNK         0.1400 
     19 N          -2.9918  -21.8362  -47.4061 N.am      11 UNK        -0.5000 
     20 C          -2.1663  -22.8216  -47.7824 C.2       10 UNK         0.5000 
     21 O          -2.5596  -23.9072  -48.2092 O.2       10 UNK        -0.5000 
     22 CA         -0.6512  -22.5655  -47.6580 C.3       10 UNK         0.1400 
     23 CB         -0.0351  -22.3155  -49.0429 C.3       10 UNK        -0.1800 
     24 N          -0.3191  -21.4553  -46.7578 N.am      10 UNK        -0.5000 
     25 C          -0.5129  -21.4784  -45.4289 C.2       9 UNK         0.5000 
     26 O          -0.9640  -22.4550  -44.8328 O.2       9 UNK        -0.5000 
     27 CA         -0.2292  -20.1904  -44.6296 C.3       9 UNK         0.1400 
     28 CB          1.1940  -20.2227  -44.0546 C.3       9 UNK        -0.1800 
     29 N          -0.4235  -18.9581  -45.3962 N.am      9 UNK        -0.5000 
     30 C          -1.5672  -18.6009  -45.9985 C.2       8 UNK         0.5000 
     31 O          -2.6126  -19.2405  -45.8838 O.2       8 UNK        -0.5000 
     32 CA         -1.5344  -17.3666  -46.9224 C.3       8 UNK         0.1400 
     33 CB         -2.0041  -16.1129  -46.1700 C.3       8 UNK        -0.1800 
     34 N          -0.2314  -17.0901  -47.5321 N.am      8 UNK        -0.5000 
     35 C           0.4971  -17.9268  -48.2835 C.2       7 UNK         0.5000 
     36 O           0.1998  -19.1056  -48.4722 O.2       7 UNK        -0.5000 
     37 CA          1.8141  -17.3740  -48.8687 C.3       7 UNK         0.1400 
     38 CB          1.5530  -16.3875  -50.0252 C.3       7 UNK        -0.1800 
     39 N           2.7048  -16.8022  -47.8471 N.am      7 UNK        -0.5000 
     40 C           2.5145  -15.6888  -47.1292 C.2       6 UNK         0.5000 
     41 O           1.5827  -14.9027  -47.3109 O.2       6 UNK        -0.5000 
     42 CA          3.4906  -15.4242  -45.9703 C.3       6 UNK         0.1400 
     43 CB          4.4431  -14.2712  -46.3216 C.3       6 UNK        -0.1800 
     44 N           2.7566  -15.0846  -44.7499 N.am      6 UNK        -0.5000 
     45 C           1.8452  -15.8707  -44.1570 C.2       5 UNK         0.5000 
     46 O           1.6025  -17.0209  -44.5248 O.2       5 UNK        -0.5000 
     47 CA          1.0478  -15.2516  -42.9926 C.3       5 UNK         0.1400 
     48 CB          0.4892  -16.3052  -42.0128 C.3       5 UNK        -0.1800 
     49 N           1.7749  -14.1826  -42.2985 N.am      5 UNK        -0.5000 
     50 C           2.8609  -14.2951  -41.5164 C.2       4 UNK         0.5000 
     51 O           3.3911  -15.3705  -41.2362 O.2       4 UNK        -0.5000 
     52 CA          3.4898  -12.9909  -40.9724 C.3       4 UNK         0.1400 
     53 CB          4.9174  -12.8153  -41.5171 C.3       4 UNK        -0.1800 
     54 N           2.7258  -11.7846  -41.2980 N.am      4 UNK        -0.5000 
     55 C           1.5775  -11.4036  -40.7212 C.2       3 UNK         0.5000 
     56 O           1.0725  -11.9825  -39.7592 O.2       3 UNK        -0.5000 
     57 CA          0.8512  -10.1949  -41.3525 C.3       3 UNK         0.1400 
     58 CB          1.1079   -8.9245  -40.5275 C.3       3 UNK        -0.1800 
     59 N           1.2133   -9.9345  -42.7535 N.am      3 UNK        -0.5000 
     60 C           1.0255  -10.7838  -43.7732 C.2       2 UNK         0.5000 
     61 O           0.5317  -11.9067  -43.6400 O.2       2 UNK        -0.5000 
     62 CA          1.5540  -10.3280  -45.1463 C.3       2 UNK         0.1400 
     63 CB          3.0902  -10.3980  -45.1756 C.3       2 UNK        -0.1800 
     64 N           1.0393  -11.1692  -46.2238 N.am      2 UNK        -0.5000 
     65 C          -0.1994  -11.1163  -46.7312 C.2       1 UNK         0.5000 
     66 O          -1.0323  -10.2672  -46.4074 O.2       1 UNK        -0.5000 
     67 C          -4.8867  -22.7136  -46.0779 C.2       11 UNK         0.5000 
     68 O          -5.8642  -23.4608  -46.1256 O.2       11 UNK        -0.5000 
     69 N          -4.1614  -22.4993  -44.9707 N.am      12 UNK        -0.5000 
     70 CA         -4.4182  -23.1170  -43.6701 C.3       12 UNK         0.1400 
     71 CB         -3.8774  -22.1948  -42.5660 C.3       12 UNK        -0.1800 
     72 C          -3.7961  -24.5196  -43.5538 C.2       12 UNK         0.5000 
     73 O          -4.3965  -25.4005  -42.9361 O.2       12 UNK        -0.5000 
     74 N          -2.6018  -24.6954  -44.1337 N.am      13 UNK        -0.5000 
     75 CA         -1.8517  -25.9494  -44.1757 C.3       13 UNK         0.1400 
     76 CB         -0.4198  -25.6416  -44.6477 C.3       13 UNK        -0.1800 
     77 C          -2.5020  -27.0119  -45.0835 C.2       13 UNK         0.5000 
     78 O          -3.4421  -26.7195  -45.8264 O.2       13 UNK        -0.5000 
     79 N          -1.9357  -28.2266  -45.0482 N.am      14 UNK        -0.5000 
     80 CA         -2.3459  -29.4024  -45.8276 C.3       14 UNK         0.1400 
     81 CB         -1.4861  -30.6014  -45.3974 C.3       14 UNK        -0.1800 
     82 C          -2.2965  -29.2255  -47.3615 C.2       14 UNK         0.5000 
     83 O          -2.8999  -30.0254  -48.0777 O.2       14 UNK        -0.5000 
     84 N          -1.6108  -28.1759  -47.8384 N.am      15 UNK        -0.5000 
     85 CA         -1.6408  -27.7085  -49.2252 C.3       15 UNK         0.1400 
     86 CB         -0.5815  -26.6105  -49.4104 C.3       15 UNK        -0.1800 
     87 C          -3.0311  -27.2075  -49.6714 C.2       15 UNK         0.5000 
     88 O          -3.3171  -27.2461  -50.8669 O.2       15 UNK        -0.5000 
     89 N          -3.8679  -26.7655  -48.7174 N.am      16 UNK        -0.5000 
     90 CA         -5.2850  -26.4100  -48.8617 C.3       16 UNK         0.1400 
     91 CB         -6.1250  -27.6954  -49.0029 C.3       16 UNK        -0.1800 
     92 C          -5.5768  -25.3845  -49.9793 C.2       16 UNK         0.5000 
     93 O          -6.5960  -25.4890  -50.6641 O.2       16 UNK        -0.5000 
     94 N          -4.6572  -24.4252  -50.1511 N.am      17 UNK        -0.5000 
     95 CA         -4.6458  -23.3673  -51.1664 C.3       17 UNK         0.1400 
     96 CB         -5.8703  -22.4348  -51.0195 C.3       17 UNK        -0.1800 
     97 C          -4.4900  -23.8715  -52.6204 C.2       17 UNK         0.5000 
     98 O          -4.7644  -23.1081  -53.5478 O.2       17 UNK        -0.5000 
     99 N          -4.0493  -25.1240  -52.8216 N.am      18 UNK        -0.5000 
    100 CA        -3.8852  -25.7286  -54.1494 C.3       18 UNK         0.1400 
    101 CB        -3.7163  -27.2486  -54.0086 C.3       18 UNK        -0.1800 
    102 C         -2.7169  -25.1341  -54.9600 C.2       18 UNK         0.5000 
    103 O         -2.7522  -25.1773  -56.1907 O.2       18 UNK        -0.5000 
    104 N         -1.7137  -24.5860  -54.2664 N.am      19 UNK        -0.5000 
    105 CA        -0.5583  -23.9059  -54.8362 C.3       19 UNK         0.1400 
    106 CB         0.5092  -24.9355  -55.2469 C.3       19 UNK        -0.1800 
    107 C         -0.0047  -22.9267  -53.7938 C.2       19 UNK         0.5000 
    108 O         -0.1625  -23.1653  -52.5939 O.2       19 UNK        -0.5000 
    109 N          0.6382  -21.8540  -54.2789 N.am      20 UNK        -0.5000 
    110 CA         1.3498  -20.8149  -53.5169 C.3       20 UNK         0.1400 
    111 CB         2.5915  -21.4179  -52.8263 C.3       20 UNK        -0.1800 
    112 C          0.4728  -20.0084  -52.5313 C.2       20 UNK         0.5000 
    113 O          1.0094  -19.3902  -51.6140 O.2       20 UNK        -0.5000 
    114 N         -0.8500  -20.0245  -52.7390 N.am      21 UNK        -0.5000 
    115 CA        -1.8573  -19.4575  -51.8428 C.3       21 UNK         0.1400 
    116 CB        -3.2395  -19.9314  -52.3182 C.3       21 UNK        -0.1800 
    117 C         -1.8292  -17.9232  -51.7627 C.2       21 UNK         0.5000 
    118 O         -1.8765  -17.3668  -50.6674 O.2       21 UNK        -0.5000 
    119 N         -1.7860  -17.2793  -52.9343 N.am      22 UNK        -0.5000 
    120 CA        -2.0429  -15.8375  -53.0899 C.3       22 UNK         0.1400 
    121 C         -0.7565  -14.9814  -53.2703 C.2       22 UNK         0.5000 
    122 N          0.4362  -15.5634  -53.2513 N.am      22 UNK        -0.7600 
    123 O         -0.8391  -13.7676  -53.4359 O.2       22 UNK        -0.5000 
    124 C124       -3.0740  -15.5509  -54.2195 C.3       23 UNK        -0.0398 
    125 S125       -4.5268  -16.6677  -54.2414 S.3       23 UNK        -0.2404 
    126 C126       -5.7585  -15.7654  -53.2507 C.3       23 UNK        -0.0205 
    127 H127        3.3658  -11.9400  -50.0439 H         1 UNK         0.0600 
    128 H128        2.7604  -13.5302  -49.5785 H         1 UNK         0.0600 
    129 H129        2.2946  -12.8313  -51.1326 H         1 UNK         0.0600 
    130 H130        0.9756  -13.5566  -48.2692 H         1 UNK         0.3000 
    131 H131       -0.8184  -13.0799  -47.1532 H         1 UNK         0.0600 
    132 H132       -2.6356  -11.5933  -48.0007 H         1 UNK         0.0800 
    133 H133       -1.5981  -11.0221  -49.2765 H         1 UNK         0.0800 
    134 H134       -3.8965  -13.8137  -47.9576 H         1 UNK         0.0800 
    135 H135       -4.5875  -12.7611  -49.1739 H         1 UNK         0.0800 
    136 H136       -4.6435  -13.8612  -51.6525 H         1 UNK         0.1150 
    137 H137       -6.2416  -17.8389  -51.5393 H         1 UNK         0.1150 
    138 H138       -4.6946  -16.0460  -47.9658 H         1 UNK         0.1150 
    139 H139       -6.1655  -18.0072  -47.8428 H         1 UNK         0.0800 
    140 H140       -6.8177  -18.7498  -49.2832 H         1 UNK         0.0800 
    141 H141       -6.2422  -20.7402  -47.5413 H         1 UNK         0.0800 
    142 H142       -5.0322  -20.0140  -46.5151 H         1 UNK         0.0800 
    143 H143       -4.7715  -22.5521  -48.1967 H         1 UNK         0.0600 
    144 H144       -2.6064  -20.9568  -47.0812 H         1 UNK         0.3000 
    145 H145       -0.2005  -23.4720  -47.2510 H         1 UNK         0.0600 
    146 H146        1.0394  -22.1453  -48.9767 H         1 UNK         0.0600 
    147 H147       -0.1889  -23.1730  -49.6996 H         1 UNK         0.0600 
    148 H148       -0.4811  -21.4501  -49.5325 H         1 UNK         0.0600 
    149 H149       -0.0085  -20.5951  -47.2023 H         1 UNK         0.3000 
    150 H150       -0.9320  -20.1694  -43.7942 H         1 UNK         0.0600 
    151 H151        1.3810  -21.1541  -43.5183 H         1 UNK         0.0600 
    152 H152        1.3504  -19.4089  -43.3467 H         1 UNK         0.0600 
    153 H153        1.9462  -20.1362  -44.8396 H         1 UNK         0.0600 
    154 H154        0.3788  -18.3408  -45.4691 H         1 UNK         0.3000 
    155 H155       -2.2341  -17.5583  -47.7388 H         1 UNK         0.0600 
    156 H156       -2.0905  -15.2612  -46.8447 H         1 UNK         0.0600 
    157 H157       -1.3124  -15.8422  -45.3715 H         1 UNK         0.0600 
    158 H158       -2.9849  -16.2709  -45.7198 H         1 UNK         0.0600 
    159 H159        0.1446  -16.1568  -47.4008 H         1 UNK         0.3000 
    160 H160        2.3521  -18.2255  -49.2888 H         1 UNK         0.0600 
    161 H161        0.9522  -15.5309  -49.7204 H         1 UNK         0.0600 
    162 H162        1.0045  -16.8808  -50.8258 H         1 UNK         0.0600 
    163 H163        2.4851  -16.0156  -50.4496 H         1 UNK         0.0600 
    164 H164        3.4871  -17.3914  -47.5984 H         1 UNK         0.3000 
    165 H165        4.0772  -16.3239  -45.7745 H         1 UNK         0.0600 
    166 H166        3.9002  -13.3494  -46.5344 H         1 UNK         0.0600 
    167 H167        5.1400  -14.0711  -45.5075 H         1 UNK         0.0600 
    168 H168        5.0358  -14.5120  -47.2050 H         1 UNK         0.0600 
    169 H169        2.8717  -14.1478  -44.3968 H         1 UNK         0.3000 
    170 H170        0.1902  -14.7635  -43.4576 H         1 UNK         0.0600 
    171 H171        1.2797  -16.9152  -41.5753 H         1 UNK         0.0600 
    172 H172       -0.1969  -16.9837  -42.5216 H         1 UNK         0.0600 
    173 H173       -0.0638  -15.8347  -41.2000 H         1 UNK         0.0600 
    174 H174        1.4226  -13.2506  -42.4941 H         1 UNK         0.3000 
    175 H175        3.5451  -13.0851  -39.8860 H         1 UNK         0.0600 
    176 H176        5.3920  -11.9262  -41.1014 H         1 UNK         0.0600 
    177 H177        5.5462  -13.6673  -41.2552 H         1 UNK         0.0600 
    178 H178        4.9253  -12.7240  -42.6041 H         1 UNK         0.0600 
    179 H179        3.0686  -11.2325  -42.0696 H         1 UNK         0.3000 
    180 H180       -0.2186  -10.4116  -41.3232 H         1 UNK         0.0600 
    181 H181        2.1612   -8.6415  -40.5423 H         1 UNK         0.0600 
    182 H182        0.8218   -9.0701  -39.4849 H         1 UNK         0.0600 
    183 H183        0.5275   -8.0830  -40.9065 H         1 UNK         0.0600 
    184 H184        1.6397   -9.0380  -42.9405 H         1 UNK         0.3000 
    185 H185        1.2389   -9.2969  -45.3192 H         1 UNK         0.0600 
    186 H186        3.4793  -10.1026  -46.1503 H         1 UNK         0.0600 
    187 H187        3.5316   -9.7265  -44.4382 H         1 UNK         0.0600 
    188 H188        3.4537  -11.4039  -44.9617 H         1 UNK         0.0600 
    189 H189        1.6380  -11.9183  -46.5373 H         1 UNK         0.3000 
    190 H190       -3.3546  -21.8945  -45.0321 H         1 UNK         0.3000 
    191 H191       -5.4968  -23.2158  -43.5293 H         1 UNK         0.0600 
    192 H192       -4.3542  -21.2151  -42.6023 H         1 UNK         0.0600 
    193 H193       -4.0709  -22.6142  -41.5779 H         1 UNK         0.0600 
    194 H194       -2.8004  -22.0466  -42.6548 H         1 UNK         0.0600 
    195 H195       -2.1534  -23.8951  -44.5700 H         1 UNK         0.3000 
    196 H196       -1.8081  -26.3529  -43.1621 H         1 UNK         0.0600 
    197 H197        0.2125  -26.5296  -44.6239 H         1 UNK         0.0600 
    198 H198        0.0543  -24.8977  -44.0071 H         1 UNK         0.0600 
    199 H199       -0.4099  -25.2582  -45.6682 H         1 UNK         0.0600 
    200 H200       -1.1574  -28.3723  -44.4212 H         1 UNK         0.3000 
    201 H201       -3.3847  -29.6166  -45.5685 H         1 UNK         0.0600 
    202 H202       -1.5919  -30.8019  -44.3310 H         1 UNK         0.0600 
    203 H203       -0.4289  -30.4322  -45.6057 H         1 UNK         0.0600 
    204 H204       -1.7836  -31.5080  -45.9262 H         1 UNK         0.0600 
    205 H205       -1.1403  -27.5816  -47.1733 H         1 UNK         0.3000 
    206 H206       -1.3775  -28.5494  -49.8700 H         1 UNK         0.0600 
    207 H207        0.4214  -26.9967  -49.2281 H         1 UNK         0.0600 
    208 H208       -0.5972  -26.2157  -50.4274 H         1 UNK         0.0600 
    209 H209       -0.7455  -25.7739  -48.7316 H         1 UNK         0.0600 
    210 H210       -3.5249  -26.7307  -47.7610 H         1 UNK         0.3000 
    211 H211       -5.5711  -25.9263  -47.9264 H         1 UNK         0.0600 
    212 H212       -5.9122  -28.2123  -49.9394 H         1 UNK         0.0600 
    213 H213       -7.1926  -27.4738  -48.9830 H         1 UNK         0.0600 
    214 H214       -5.9236  -28.3880  -48.1855 H         1 UNK         0.0600 
    215 H215       -3.8561  -24.4321  -49.5225 H         1 UNK         0.3000 
    216 H216       -3.7534  -22.7806  -50.9475 H         1 UNK         0.0600 
    217 H217       -6.0203  -22.1103  -49.9924 H         1 UNK         0.0600 
    218 H218       -6.7891  -22.9206  -51.3487 H         1 UNK         0.0600 
    219 H219       -5.7506  -21.5339  -51.6219 H         1 UNK         0.0600 
    220 H220       -3.8507  -25.7218  -52.0243 H         1 UNK         0.3000 
    221 H221       -4.8014  -25.5461  -54.7151 H         1 UNK         0.0600 
    222 H222       -2.7919  -27.5034  -53.4892 H         1 UNK         0.0600 
    223 H223       -4.5461  -27.6899  -53.4559 H         1 UNK         0.0600 
    224 H224       -3.6842  -27.7297  -54.9869 H         1 UNK         0.0600 
    225 H225       -1.7622  -24.5558  -53.2559 H         1 UNK         0.3000 
    226 H226       -0.8736  -23.3362  -55.7130 H         1 UNK         0.0600 
    227 H227        0.1314  -25.6164  -56.0097 H         1 UNK         0.0600 
    228 H228        1.3905  -24.4435  -55.6602 H         1 UNK         0.0600 
    229 H229        0.8355  -25.5345  -54.3957 H         1 UNK         0.0600 
    230 H230        0.6920  -21.7519  -55.2833 H         1 UNK         0.3000 
    231 H231        1.7049  -20.0926  -54.2532 H         1 UNK         0.0600 
    232 H232        3.2184  -20.6386  -52.3915 H         1 UNK         0.0600 
    233 H233        3.2093  -21.9693  -53.5350 H         1 UNK         0.0600 
    234 H234        2.3135  -22.0993  -52.0214 H         1 UNK         0.0600 
    235 H235       -1.1942  -20.5542  -53.5251 H         1 UNK         0.3000 
    236 H236       -1.6835  -19.8482  -50.8381 H         1 UNK         0.0600 
    237 H237       -4.0311  -19.5554  -51.6709 H         1 UNK         0.0600 
    238 H238       -3.4614  -19.5882  -53.3293 H         1 UNK         0.0600 
    239 H239       -3.2999  -21.0168  -52.3211 H         1 UNK         0.0600 
    240 H240       -1.7327  -17.8176  -53.7857 H         1 UNK         0.3000 
    241 H241       -2.4848  -15.4647  -52.1660 H         1 UNK         0.0600 
    242 H242        0.5127  -16.5559  -53.0986 H         1 UNK         0.3800 
    243 H243        1.2645  -15.0037  -53.3747 H         1 UNK         0.3800 
    244 H244       -3.4206  -14.5179  -54.1605 H         1 UNK         0.0800 
    245 H245       -2.5910  -15.6464  -55.1934 H         1 UNK         0.0800 
    246 H246       -6.7425  -16.1957  -53.4423 H         1 UNK         0.0800 
    247 H247       -5.8130  -14.7279  -53.5837 H         1 UNK         0.0800 
@<TRIPOS>BOND
     1    1    2 1    
     2    1  127 1    
     3    1  128 1    
     4    1  129 1    
     5    2    3 2    
     6    2    4 am   BACKBONE|DICT|INTERRES
     7    4    5 1    
     8    4  130 1    
     9    5    6 1    
    10    5   65 1    
    11    5  131 1    
    12    6    7 1    
    13    6  132 1    
    14    6  133 1    
    15    7    8 1    
    16    8    9 1    
    17    8  134 1    
    18    8  135 1    
    19    9   10 ar   
    20    9   14 ar   
    21   10   11 ar   
    22   10  136 1    
    23   11   12 ar   
    24   11  126 1    
    25   12   13 ar   
    26   12  137 1    
    27   13   14 ar   
    28   13   15 1    
    29   14  138 1    
    30   15   16 1    
    31   15  139 1    
    32   15  140 1    
    33   16   17 1    
    34   17   18 1    
    35   17  141 1    
    36   17  142 1    
    37   18   19 1    
    38   18   67 1    
    39   18  143 1    
    40   19   20 am   BACKBONE|DICT|INTERRES
    41   19  144 1    
    42   20   21 2    
    43   20   22 1    
    44   22   23 1    
    45   22   24 1    
    46   22  145 1    
    47   23  146 1    
    48   23  147 1    
    49   23  148 1    
    50   24   25 am   BACKBONE|DICT|INTERRES
    51   24  149 1    
    52   25   26 2    
    53   25   27 1    
    54   27   28 1    
    55   27   29 1    
    56   27  150 1    
    57   28  151 1    
    58   28  152 1    
    59   28  153 1    
    60   29   30 am   BACKBONE|DICT|INTERRES
    61   29  154 1    
    62   30   31 2    
    63   30   32 1    
    64   32   33 1    
    65   32   34 1    
    66   32  155 1    
    67   33  156 1    
    68   33  157 1    
    69   33  158 1    
    70   34   35 am   BACKBONE|DICT|INTERRES
    71   34  159 1    
    72   35   36 2    
    73   35   37 1    
    74   37   38 1    
    75   37   39 1    
    76   37  160 1    
    77   38  161 1    
    78   38  162 1    
    79   38  163 1    
    80   39   40 am   BACKBONE|DICT|INTERRES
    81   39  164 1    
    82   40   41 2    
    83   40   42 1    
    84   42   43 1    
    85   42   44 1    
    86   42  165 1    
    87   43  166 1    
    88   43  167 1    
    89   43  168 1    
    90   44   45 am   BACKBONE|DICT|INTERRES
    91   44  169 1    
    92   45   46 2    
    93   45   47 1    
    94   47   48 1    
    95   47   49 1    
    96   47  170 1    
    97   48  171 1    
    98   48  172 1    
    99   48  173 1    
   100   49   50 am   BACKBONE|DICT|INTERRES
   101   49  174 1    
   102   50   51 2    
   103   50   52 1    
   104   52   53 1    
   105   52   54 1    
   106   52  175 1    
   107   53  176 1    
   108   53  177 1    
   109   53  178 1    
   110   54   55 am   BACKBONE|DICT|INTERRES
   111   54  179 1    
   112   55   56 2    
   113   55   57 1    
   114   57   58 1    
   115   57   59 1    
   116   57  180 1    
   117   58  181 1    
   118   58  182 1    
   119   58  183 1    
   120   59   60 am   BACKBONE|DICT|INTERRES
   121   59  184 1    
   122   60   61 2    
   123   60   62 1    
   124   62   63 1    
   125   62   64 1    
   126   62  185 1    
   127   63  186 1    
   128   63  187 1    
   129   63  188 1    
   130   64   65 am   BACKBONE|DICT|INTERRES
   131   64  189 1    
   132   65   66 2    
   133   67   68 2    
   134   67   69 am   BACKBONE|DICT|INTERRES
   135   69   70 1    
   136   69  190 1    
   137   70   71 1    
   138   70   72 1    
   139   70  191 1    
   140   71  192 1    
   141   71  193 1    
   142   71  194 1    
   143   72   73 2    
   144   72   74 am   BACKBONE|DICT|INTERRES
   145   74   75 1    
   146   74  195 1    
   147   75   76 1    
   148   75   77 1    
   149   75  196 1    
   150   76  197 1    
   151   76  198 1    
   152   76  199 1    
   153   77   78 2    
   154   77   79 am   BACKBONE|DICT|INTERRES
   155   79   80 1    
   156   79  200 1    
   157   80   81 1    
   158   80   82 1    
   159   80  201 1    
   160   81  202 1    
   161   81  203 1    
   162   81  204 1    
   163   82   83 2    
   164   82   84 am   BACKBONE|DICT|INTERRES
   165   84   85 1    
   166   84  205 1    
   167   85   86 1    
   168   85   87 1    
   169   85  206 1    
   170   86  207 1    
   171   86  208 1    
   172   86  209 1    
   173   87   88 2    
   174   87   89 am   BACKBONE|DICT|INTERRES
   175   89   90 1    
   176   89  210 1    
   177   90   91 1    
   178   90   92 1    
   179   90  211 1    
   180   91  212 1    
   181   91  213 1    
   182   91  214 1    
   183   92   93 2    
   184   92   94 am   BACKBONE|DICT|INTERRES
   185   94   95 1    
   186   94  215 1    
   187   95   96 1    
   188   95   97 1    
   189   95  216 1    
   190   96  217 1    
   191   96  218 1    
   192   96  219 1    
   193   97   98 2    
   194   97   99 am   BACKBONE|DICT|INTERRES
   195   99  100 1    
   196   99  220 1    
   197  100  101 1    
   198  100  102 1    
   199  100  221 1    
   200  101  222 1    
   201  101  223 1    
   202  101  224 1    
   203  102  103 2    
   204  102  104 am   BACKBONE|DICT|INTERRES
   205  104  105 1    
   206  104  225 1    
   207  105  106 1    
   208  105  107 1    
   209  105  226 1    
   210  106  227 1    
   211  106  228 1    
   212  106  229 1    
   213  107  108 2    
   214  107  109 am   BACKBONE|DICT|INTERRES
   215  109  110 1    
   216  109  230 1    
   217  110  111 1    
   218  110  112 1    
   219  110  231 1    
   220  111  232 1    
   221  111  233 1    
   222  111  234 1    
   223  112  113 2    
   224  112  114 am   BACKBONE|DICT|INTERRES
   225  114  115 1    
   226  114  235 1    
   227  115  116 1    
   228  115  117 1    
   229  115  236 1    
   230  116  237 1    
   231  116  238 1    
   232  116  239 1    
   233  117  118 2    
   234  117  119 am   BACKBONE|DICT|INTERRES
   235  119  120 1    
   236  119  240 1    
   237  120  121 1    
   238  120  124 1    
   239  120  241 1    
   240  121  122 am   BACKBONE|DICT|INTERRES
   241  121  123 2    
   242  122  242 1    
   243  122  243 1    
   244  124  125 1    
   245  124  244 1    
   246  124  245 1    
   247  125  126 1    
   248  126  246 1    
   249  126  247 1    
@<TRIPOS>SUBSTRUCTURE
     1 UNK         1 GROUP             0       ****    0 ROOT    
