@<TRIPOS>MOLECULE
3R540
247   249    1
SMALL
USER_CHARGES


@<TRIPOS>ATOM
      1 CA          3.1091  -11.2691  -50.4000 C.3       0 UNK        -0.1800 
      2 C           3.3947  -12.1986  -49.2230 C.2       0 UNK         0.5000 
      3 O           4.5406  -12.6014  -49.0363 O.2       0 UNK        -0.5000 
      4 N           2.4003  -12.5611  -48.4017 N.am      1 UNK        -0.5000 
      5 CA          0.9728  -12.2248  -48.5117 C.3       1 UNK         0.1400 
      6 C6          0.2366  -12.2529  -47.1435 C.3       23 UNK        -0.0398 
      7 S7          0.7950  -13.5475  -45.9807 S.3       23 UNK        -0.2404 
      8 C8         -0.7535  -14.3915  -45.5344 C.3       23 UNK        -0.0205 
      9 C9         -1.1590  -15.4887  -46.5101 C.ar      23 UNK        -0.0193 
     10 C10        -2.4874  -15.5813  -46.9326 C.ar      23 UNK        -0.1150 
     11 C11        -2.9122  -16.6464  -47.7372 C.ar      23 UNK        -0.0193 
     12 C12        -1.9810  -17.6150  -48.1199 C.ar      23 UNK        -0.1150 
     13 C13        -0.6435  -17.5288  -47.7268 C.ar      23 UNK        -0.0193 
     14 C14        -0.2401  -16.4601  -46.9206 C.ar      23 UNK        -0.1150 
     15 C15         0.3442  -18.5941  -48.1964 C.3       23 UNK        -0.0205 
     16 S16         1.4789  -19.1940  -46.9053 S.3       23 UNK        -0.2404 
     17 C17         0.3171  -19.7094  -45.6021 C.3       23 UNK        -0.0398 
     18 CA          0.1154  -21.2364  -45.4932 C.3       11 UNK         0.1400 
     19 N          -0.4635  -21.5729  -44.1950 N.am      11 UNK        -0.5000 
     20 C          -0.6791  -22.8013  -43.7128 C.2       10 UNK         0.5000 
     21 O          -0.3851  -23.8379  -44.3050 O.2       10 UNK        -0.5000 
     22 CA         -1.3817  -22.8734  -42.3474 C.3       10 UNK         0.1400 
     23 CB         -0.3765  -22.6621  -41.2050 C.3       10 UNK        -0.1800 
     24 N          -2.4587  -21.8892  -42.2364 N.am      10 UNK        -0.5000 
     25 C          -3.6098  -21.9466  -42.9196 C.2       9 UNK         0.5000 
     26 O          -3.8961  -22.8480  -43.7076 O.2       9 UNK        -0.5000 
     27 CA         -4.5870  -20.7757  -42.7126 C.3       9 UNK         0.1400 
     28 CB         -5.3142  -20.8997  -41.3650 C.3       9 UNK        -0.1800 
     29 N          -3.9326  -19.4687  -42.7967 N.am      9 UNK        -0.5000 
     30 C          -3.3667  -18.9853  -43.9106 C.2       8 UNK         0.5000 
     31 O          -3.3132  -19.6000  -44.9744 O.2       8 UNK        -0.5000 
     32 CA         -2.7255  -17.5913  -43.8186 C.3       8 UNK         0.1400 
     33 CB         -3.8045  -16.4999  -43.8917 C.3       8 UNK        -0.1800 
     34 N          -1.8722  -17.3491  -42.6506 N.am      8 UNK        -0.5000 
     35 C          -0.8900  -18.1435  -42.2033 C.2       7 UNK         0.5000 
     36 O          -0.7281  -19.3168  -42.5411 O.2       7 UNK        -0.5000 
     37 CA          0.1150  -17.5033  -41.2282 C.3       7 UNK         0.1400 
     38 CB          0.0224  -18.1670  -39.8456 C.3       7 UNK        -0.1800 
     39 N           1.4947  -17.6010  -41.7194 N.am      7 UNK        -0.5000 
     40 C           1.9356  -17.1452  -42.9023 C.2       6 UNK         0.5000 
     41 O           1.2203  -16.5639  -43.7192 O.2       6 UNK        -0.5000 
     42 CA          3.4234  -17.4005  -43.2236 C.3       6 UNK         0.1400 
     43 CB          3.6778  -18.8870  -43.5257 C.3       6 UNK        -0.1800 
     44 N           3.8974  -16.6080  -44.3612 N.am      6 UNK        -0.5000 
     45 C           4.0776  -15.2796  -44.3566 C.2       5 UNK         0.5000 
     46 O           3.9383  -14.5838  -43.3489 O.2       5 UNK        -0.5000 
     47 CA          4.5187  -14.6159  -45.6802 C.3       5 UNK         0.1400 
     48 CB          5.7086  -13.6659  -45.4592 C.3       5 UNK        -0.1800 
     49 N           4.8938  -15.5912  -46.7078 N.am      5 UNK        -0.5000 
     50 C           4.1180  -15.9870  -47.7232 C.2       4 UNK         0.5000 
     51 O           2.9711  -15.5750  -47.9229 O.2       4 UNK        -0.5000 
     52 CA          4.7394  -17.0181  -48.6795 C.3       4 UNK         0.1400 
     53 CB          5.1457  -18.3176  -47.9564 C.3       4 UNK        -0.1800 
     54 N           3.7752  -17.3088  -49.7316 N.am      4 UNK        -0.5000 
     55 C           4.0523  -17.7587  -50.9593 C.2       3 UNK         0.5000 
     56 O           5.1839  -18.0670  -51.3356 O.2       3 UNK        -0.5000 
     57 CA          2.8683  -17.8763  -51.9429 C.3       3 UNK         0.1400 
     58 CB          2.3728  -19.3290  -52.0098 C.3       3 UNK        -0.1800 
     59 N           1.7343  -17.0034  -51.6193 N.am      3 UNK        -0.5000 
     60 C           1.7578  -15.6642  -51.6555 C.2       2 UNK         0.5000 
     61 O           2.7432  -15.0084  -51.9965 O.2       2 UNK        -0.5000 
     62 CA          0.4912  -14.9209  -51.2078 C.3       2 UNK         0.1400 
     63 CB         -0.7475  -15.8145  -50.9914 C.3       2 UNK        -0.1800 
     64 N           0.8345  -14.1849  -49.9959 N.am      2 UNK        -0.5000 
     65 C           0.2499  -13.0504  -49.5978 C.2       1 UNK         0.5000 
     66 O          -0.7788  -12.6002  -50.1038 O.2       1 UNK        -0.5000 
     67 C          -0.7274  -21.8010  -46.6558 C.2       11 UNK         0.5000 
     68 O          -0.1854  -22.4875  -47.5228 O.2       11 UNK        -0.5000 
     69 N          -2.0454  -21.5510  -46.6271 N.am      12 UNK        -0.5000 
     70 CA         -3.0020  -22.0827  -47.5958 C.3       12 UNK         0.1400 
     71 CB         -4.3733  -21.4216  -47.4006 C.3       12 UNK        -0.1800 
     72 C          -3.1175  -23.6149  -47.5374 C.2       12 UNK         0.5000 
     73 O          -3.1748  -24.2455  -48.5921 O.2       12 UNK        -0.5000 
     74 N          -3.1131  -24.1922  -46.3264 N.am      13 UNK        -0.5000 
     75 CA         -3.1329  -25.6408  -46.1089 C.3       13 UNK         0.1400 
     76 CB         -3.3226  -25.9497  -44.6166 C.3       13 UNK        -0.1800 
     77 C          -1.8788  -26.3420  -46.6614 C.2       13 UNK         0.5000 
     78 O          -2.0084  -27.3507  -47.3555 O.2       13 UNK        -0.5000 
     79 N          -0.6955  -25.7703  -46.3950 N.am      14 UNK        -0.5000 
     80 CA          0.5955  -26.2368  -46.9098 C.3       14 UNK         0.1400 
     81 CB          1.7283  -25.4361  -46.2503 C.3       14 UNK        -0.1800 
     82 C           0.6976  -26.1552  -48.4449 C.2       14 UNK         0.5000 
     83 O           1.3047  -27.0299  -49.0633 O.2       14 UNK        -0.5000 
     84 N           0.0671  -25.1297  -49.0306 N.am      15 UNK        -0.5000 
     85 CA         -0.0600  -24.9308  -50.4738 C.3       15 UNK         0.1400 
     86 CB         -0.3079  -23.4384  -50.7379 C.3       15 UNK        -0.1800 
     87 C          -1.1719  -25.7818  -51.1234 C.2       15 UNK         0.5000 
     88 O          -1.3615  -25.6777  -52.3347 O.2       15 UNK        -0.5000 
     89 N          -1.9147  -26.5706  -50.3306 N.am      16 UNK        -0.5000 
     90 CA         -3.0581  -27.3996  -50.7332 C.3       16 UNK         0.1400 
     91 CB         -2.5943  -28.5754  -51.6179 C.3       16 UNK        -0.1800 
     92 C          -4.1981  -26.5730  -51.3688 C.2       16 UNK         0.5000 
     93 O          -4.7953  -26.9911  -52.3619 O.2       16 UNK        -0.5000 
     94 N          -4.4491  -25.3937  -50.7833 N.am      17 UNK        -0.5000 
     95 CA         -5.4246  -24.3675  -51.1607 C.3       17 UNK         0.1400 
     96 CB         -6.8622  -24.9253  -51.1716 C.3       17 UNK        -0.1800 
     97 C          -5.0859  -23.5949  -52.4523 C.2       17 UNK         0.5000 
     98 O          -5.8752  -22.7399  -52.8538 O.2       17 UNK        -0.5000 
     99 N          -3.9174  -23.8417  -53.0648 N.am      18 UNK        -0.5000 
    100 CA        -3.4673  -23.1366  -54.2710 C.3       18 UNK         0.1400 
    101 CB        -2.2750  -23.8815  -54.8885 C.3       18 UNK        -0.1800 
    102 C         -3.0994  -21.6627  -54.0084 C.2       18 UNK         0.5000 
    103 O         -3.2103  -20.8382  -54.9159 O.2       18 UNK        -0.5000 
    104 N         -2.6820  -21.3598  -52.7718 N.am      19 UNK        -0.5000 
    105 CA        -2.2951  -20.0224  -52.3214 C.3       19 UNK         0.1400 
    106 CB        -1.1310  -20.1496  -51.3269 C.3       19 UNK        -0.1800 
    107 C         -3.4558  -19.2388  -51.6823 C.2       19 UNK         0.5000 
    108 O         -3.2331  -18.1105  -51.2468 O.2       19 UNK        -0.5000 
    109 N         -4.6661  -19.8157  -51.6216 N.am      20 UNK        -0.5000 
    110 CA        -5.8579  -19.2609  -50.9622 C.3       20 UNK         0.1400 
    111 CB        -6.8600  -20.3998  -50.7050 C.3       20 UNK        -0.1800 
    112 C         -6.5071  -18.0601  -51.6966 C.2       20 UNK         0.5000 
    113 O         -7.7307  -17.9182  -51.6931 O.2       20 UNK        -0.5000 
    114 N         -5.6795  -17.2040  -52.3047 N.am      21 UNK        -0.5000 
    115 CA        -6.0674  -15.9976  -53.0361 C.3       21 UNK         0.1400 
    116 CB        -4.9532  -15.6675  -54.0424 C.3       21 UNK        -0.1800 
    117 C         -6.3367  -14.7905  -52.1150 C.2       21 UNK         0.5000 
    118 O         -6.8582  -13.7791  -52.5861 O.2       21 UNK        -0.5000 
    119 N         -5.9665  -14.9043  -50.8327 N.am      22 UNK        -0.5000 
    120 CA        -6.1121  -13.8620  -49.8043 C.3       22 UNK         0.1400 
    121 C         -7.5736  -13.5564  -49.3533 C.2       22 UNK         0.5000 
    122 N         -8.5672  -14.3580  -49.7188 N.am      22 UNK        -0.7600 
    123 O         -7.8102  -12.5639  -48.6698 O.2       22 UNK        -0.5000 
    124 C124       -5.1638  -14.1196  -48.6032 C.3       23 UNK        -0.0398 
    125 S125       -5.5777  -15.6060  -47.6176 S.3       23 UNK        -0.2404 
    126 C126       -4.3538  -16.8205  -48.2163 C.3       23 UNK        -0.0205 
    127 H127        2.3990  -11.7214  -51.0919 H         1 UNK         0.0600 
    128 H128        2.7112  -10.3147  -50.0556 H         1 UNK         0.0600 
    129 H129        4.0252  -11.0647  -50.9546 H         1 UNK         0.0600 
    130 H130        2.6063  -13.2240  -47.6658 H         1 UNK         0.3000 
    131 H131        0.9078  -11.1916  -48.8567 H         1 UNK         0.0600 
    132 H132       -0.8454  -12.3084  -47.2771 H         1 UNK         0.0800 
    133 H133        0.4088  -11.3010  -46.6395 H         1 UNK         0.0800 
    134 H134       -0.6210  -14.8508  -44.5547 H         1 UNK         0.0800 
    135 H135       -1.5475  -13.6532  -45.4142 H         1 UNK         0.0800 
    136 H136       -3.1900  -14.8330  -46.5995 H         1 UNK         0.1150 
    137 H137       -2.3019  -18.4397  -48.7406 H         1 UNK         0.1150 
    138 H138        0.7868  -16.3960  -46.5886 H         1 UNK         0.1150 
    139 H139       -0.1873  -19.4562  -48.6001 H         1 UNK         0.0800 
    140 H140        0.9376  -18.1845  -49.0125 H         1 UNK         0.0800 
    141 H141        0.7467  -19.3352  -44.6739 H         1 UNK         0.0800 
    142 H142       -0.6393  -19.1969  -45.6981 H         1 UNK         0.0800 
    143 H143        1.0956  -21.7161  -45.5330 H         1 UNK         0.0600 
    144 H144       -0.7130  -20.7823  -43.6033 H         1 UNK         0.3000 
    145 H145       -1.8143  -23.8705  -42.2428 H         1 UNK         0.0600 
    146 H146       -0.8565  -22.7725  -40.2326 H         1 UNK         0.0600 
    147 H147        0.4294  -23.3955  -41.2550 H         1 UNK         0.0600 
    148 H148        0.0783  -21.6714  -41.2439 H         1 UNK         0.0600 
    149 H149       -2.2702  -21.0718  -41.6740 H         1 UNK         0.3000 
    150 H150       -5.3351  -20.8272  -43.5067 H         1 UNK         0.0600 
    151 H151       -5.8182  -21.8635  -41.2813 H         1 UNK         0.0600 
    152 H152       -6.0747  -20.1263  -41.2554 H         1 UNK         0.0600 
    153 H153       -4.6256  -20.8149  -40.5234 H         1 UNK         0.0600 
    154 H154       -3.9123  -18.9060  -41.9591 H         1 UNK         0.3000 
    155 H155       -2.0830  -17.4862  -44.6935 H         1 UNK         0.0600 
    156 H156       -3.3595  -15.5085  -43.9754 H         1 UNK         0.0600 
    157 H157       -4.4464  -16.5068  -43.0101 H         1 UNK         0.0600 
    158 H158       -4.4434  -16.6403  -44.7649 H         1 UNK         0.0600 
    159 H159       -1.9175  -16.4122  -42.2782 H         1 UNK         0.3000 
    160 H160       -0.1206  -16.4429  -41.1182 H         1 UNK         0.0600 
    161 H161        0.6867  -17.6834  -39.1293 H         1 UNK         0.0600 
    162 H162        0.2865  -19.2247  -39.8882 H         1 UNK         0.0600 
    163 H163       -0.9903  -18.0979  -39.4464 H         1 UNK         0.0600 
    164 H164        2.1411  -18.0915  -41.1194 H         1 UNK         0.3000 
    165 H165        4.0078  -17.1202  -42.3448 H         1 UNK         0.0600 
    166 H166        4.7412  -19.0821  -43.6650 H         1 UNK         0.0600 
    167 H167        3.3380  -19.5247  -42.7089 H         1 UNK         0.0600 
    168 H168        3.1611  -19.2095  -44.4289 H         1 UNK         0.0600 
    169 H169        3.9851  -17.0918  -45.2413 H         1 UNK         0.3000 
    170 H170        3.6794  -14.0146  -46.0296 H         1 UNK         0.0600 
    171 H171        5.4568  -12.8758  -44.7508 H         1 UNK         0.0600 
    172 H172        6.5790  -14.1944  -45.0687 H         1 UNK         0.0600 
    173 H173        5.9995  -13.1797  -46.3908 H         1 UNK         0.0600 
    174 H174        5.8206  -15.9832  -46.6213 H         1 UNK         0.3000 
    175 H175        5.6235  -16.5591  -49.1268 H         1 UNK         0.0600 
    176 H176        4.2985  -18.7803  -47.4521 H         1 UNK         0.0600 
    177 H177        5.5538  -19.0482  -48.6547 H         1 UNK         0.0600 
    178 H178        5.9141  -18.1335  -47.2054 H         1 UNK         0.0600 
    179 H179        2.8342  -17.0119  -49.5103 H         1 UNK         0.3000 
    180 H180        3.2370  -17.5946  -52.9314 H         1 UNK         0.0600 
    181 H181        1.9702  -19.6620  -51.0522 H         1 UNK         0.0600 
    182 H182        3.1847  -20.0071  -52.2761 H         1 UNK         0.0600 
    183 H183        1.5956  -19.4455  -52.7653 H         1 UNK         0.0600 
    184 H184        0.8779  -17.4586  -51.3430 H         1 UNK         0.3000 
    185 H185        0.2585  -14.2051  -51.9990 H         1 UNK         0.0600 
    186 H186       -1.0361  -16.3182  -51.9147 H         1 UNK         0.0600 
    187 H187       -0.5682  -16.5781  -50.2405 H         1 UNK         0.0600 
    188 H188       -1.6089  -15.2319  -50.6644 H         1 UNK         0.0600 
    189 H189        1.6809  -14.4790  -49.5211 H         1 UNK         0.3000 
    190 H190       -2.4297  -20.9543  -45.8973 H         1 UNK         0.3000 
    191 H191       -2.6447  -21.8191  -48.5928 H         1 UNK         0.0600 
    192 H192       -5.1007  -21.8084  -48.1150 H         1 UNK         0.0600 
    193 H193       -4.3133  -20.3431  -47.5480 H         1 UNK         0.0600 
    194 H194       -4.7662  -21.6012  -46.3989 H         1 UNK         0.0600 
    195 H195       -3.1042  -23.6072  -45.4980 H         1 UNK         0.3000 
    196 H196       -3.9956  -26.0421  -46.6449 H         1 UNK         0.0600 
    197 H197       -3.3457  -27.0258  -44.4402 H         1 UNK         0.0600 
    198 H198       -4.2629  -25.5407  -44.2469 H         1 UNK         0.0600 
    199 H199       -2.5164  -25.5352  -44.0118 H         1 UNK         0.0600 
    200 H200       -0.6687  -24.9597  -45.7800 H         1 UNK         0.3000 
    201 H201        0.7080  -27.2851  -46.6263 H         1 UNK         0.0600 
    202 H202        1.7196  -25.5609  -45.1674 H         1 UNK         0.0600 
    203 H203        1.6435  -24.3699  -46.4641 H         1 UNK         0.0600 
    204 H204        2.7036  -25.7681  -46.6084 H         1 UNK         0.0600 
    205 H205       -0.3582  -24.4237  -48.4398 H         1 UNK         0.3000 
    206 H206        0.8815  -25.2081  -50.9520 H         1 UNK         0.0600 
    207 H207        0.4854  -22.8242  -50.3110 H         1 UNK         0.0600 
    208 H208       -0.3402  -23.2273  -51.8074 H         1 UNK         0.0600 
    209 H209       -1.2534  -23.1114  -50.3056 H         1 UNK         0.0600 
    210 H210       -1.7099  -26.5754  -49.3385 H         1 UNK         0.3000 
    211 H211       -3.4666  -27.8212  -49.8138 H         1 UNK         0.0600 
    212 H212       -2.2190  -28.2345  -52.5833 H         1 UNK         0.0600 
    213 H213       -3.4158  -29.2658  -51.8121 H         1 UNK         0.0600 
    214 H214       -1.8017  -29.1442  -51.1317 H         1 UNK         0.0600 
    215 H215       -3.8740  -25.1363  -49.9811 H         1 UNK         0.3000 
    216 H216       -5.3773  -23.6263  -50.3619 H         1 UNK         0.0600 
    217 H217       -7.0250  -25.6170  -51.9983 H         1 UNK         0.0600 
    218 H218       -7.5916  -24.1210  -51.2750 H         1 UNK         0.0600 
    219 H219       -7.0894  -25.4492  -50.2433 H         1 UNK         0.0600 
    220 H220       -3.3073  -24.5643  -52.7023 H         1 UNK         0.3000 
    221 H221       -4.2847  -23.1504  -54.9952 H         1 UNK         0.0600 
    222 H222       -1.3958  -23.8379  -54.2451 H         1 UNK         0.0600 
    223 H223       -2.5108  -24.9310  -55.0661 H         1 UNK         0.0600 
    224 H224       -1.9975  -23.4428  -55.8477 H         1 UNK         0.0600 
    225 H225       -2.6311  -22.1031  -52.0918 H         1 UNK         0.3000 
    226 H226       -1.9427  -19.4363  -53.1727 H         1 UNK         0.0600 
    227 H227       -0.2991  -20.7001  -51.7645 H         1 UNK         0.0600 
    228 H228       -0.7529  -19.1676  -51.0421 H         1 UNK         0.0600 
    229 H229       -1.4332  -20.6616  -50.4134 H         1 UNK         0.0600 
    230 H230       -4.7887  -20.7135  -52.0690 H         1 UNK         0.3000 
    231 H231       -5.5451  -18.8886  -49.9859 H         1 UNK         0.0600 
    232 H232       -7.2777  -20.7823  -51.6367 H         1 UNK         0.0600 
    233 H233       -7.6927  -20.0595  -50.0882 H         1 UNK         0.0600 
    234 H234       -6.3915  -21.2318  -50.1801 H         1 UNK         0.0600 
    235 H235       -4.6833  -17.3723  -52.1964 H         1 UNK         0.3000 
    236 H236       -6.9851  -16.1993  -53.5924 H         1 UNK         0.0600 
    237 H237       -4.7898  -16.4939  -54.7344 H         1 UNK         0.0600 
    238 H238       -5.2095  -14.7913  -54.6394 H         1 UNK         0.0600 
    239 H239       -4.0076  -15.4587  -53.5400 H         1 UNK         0.0600 
    240 H240       -5.5591  -15.7747  -50.5303 H         1 UNK         0.3000 
    241 H241       -5.7680  -12.9351  -50.2675 H         1 UNK         0.0600 
    242 H242       -8.3860  -15.1756  -50.2792 H         1 UNK         0.3800 
    243 H243       -9.5085  -14.1476  -49.4266 H         1 UNK         0.3800 
    244 H244       -4.1349  -14.1938  -48.9587 H         1 UNK         0.0800 
    245 H245       -5.1734  -13.2603  -47.9307 H         1 UNK         0.0800 
    246 H246       -4.3605  -16.8151  -49.3049 H         1 UNK         0.0800 
    247 H247       -4.6949  -17.8092  -47.9067 H         1 UNK         0.0800 
@<TRIPOS>BOND
     1    1    2 1    
     2    1  127 1    
     3    1  128 1    
     4    1  129 1    
     5    2    3 2    
     6    2    4 am   BACKBONE|DICT|INTERRES
     7    4    5 1    
     8    4  130 1    
     9    5    6 1    
    10    5   65 1    
    11    5  131 1    
    12    6    7 1    
    13    6  132 1    
    14    6  133 1    
    15    7    8 1    
    16    8    9 1    
    17    8  134 1    
    18    8  135 1    
    19    9   10 ar   
    20    9   14 ar   
    21   10   11 ar   
    22   10  136 1    
    23   11   12 ar   
    24   11  126 1    
    25   12   13 ar   
    26   12  137 1    
    27   13   14 ar   
    28   13   15 1    
    29   14  138 1    
    30   15   16 1    
    31   15  139 1    
    32   15  140 1    
    33   16   17 1    
    34   17   18 1    
    35   17  141 1    
    36   17  142 1    
    37   18   19 1    
    38   18   67 1    
    39   18  143 1    
    40   19   20 am   BACKBONE|DICT|INTERRES
    41   19  144 1    
    42   20   21 2    
    43   20   22 1    
    44   22   23 1    
    45   22   24 1    
    46   22  145 1    
    47   23  146 1    
    48   23  147 1    
    49   23  148 1    
    50   24   25 am   BACKBONE|DICT|INTERRES
    51   24  149 1    
    52   25   26 2    
    53   25   27 1    
    54   27   28 1    
    55   27   29 1    
    56   27  150 1    
    57   28  151 1    
    58   28  152 1    
    59   28  153 1    
    60   29   30 am   BACKBONE|DICT|INTERRES
    61   29  154 1    
    62   30   31 2    
    63   30   32 1    
    64   32   33 1    
    65   32   34 1    
    66   32  155 1    
    67   33  156 1    
    68   33  157 1    
    69   33  158 1    
    70   34   35 am   BACKBONE|DICT|INTERRES
    71   34  159 1    
    72   35   36 2    
    73   35   37 1    
    74   37   38 1    
    75   37   39 1    
    76   37  160 1    
    77   38  161 1    
    78   38  162 1    
    79   38  163 1    
    80   39   40 am   BACKBONE|DICT|INTERRES
    81   39  164 1    
    82   40   41 2    
    83   40   42 1    
    84   42   43 1    
    85   42   44 1    
    86   42  165 1    
    87   43  166 1    
    88   43  167 1    
    89   43  168 1    
    90   44   45 am   BACKBONE|DICT|INTERRES
    91   44  169 1    
    92   45   46 2    
    93   45   47 1    
    94   47   48 1    
    95   47   49 1    
    96   47  170 1    
    97   48  171 1    
    98   48  172 1    
    99   48  173 1    
   100   49   50 am   BACKBONE|DICT|INTERRES
   101   49  174 1    
   102   50   51 2    
   103   50   52 1    
   104   52   53 1    
   105   52   54 1    
   106   52  175 1    
   107   53  176 1    
   108   53  177 1    
   109   53  178 1    
   110   54   55 am   BACKBONE|DICT|INTERRES
   111   54  179 1    
   112   55   56 2    
   113   55   57 1    
   114   57   58 1    
   115   57   59 1    
   116   57  180 1    
   117   58  181 1    
   118   58  182 1    
   119   58  183 1    
   120   59   60 am   BACKBONE|DICT|INTERRES
   121   59  184 1    
   122   60   61 2    
   123   60   62 1    
   124   62   63 1    
   125   62   64 1    
   126   62  185 1    
   127   63  186 1    
   128   63  187 1    
   129   63  188 1    
   130   64   65 am   BACKBONE|DICT|INTERRES
   131   64  189 1    
   132   65   66 2    
   133   67   68 2    
   134   67   69 am   BACKBONE|DICT|INTERRES
   135   69   70 1    
   136   69  190 1    
   137   70   71 1    
   138   70   72 1    
   139   70  191 1    
   140   71  192 1    
   141   71  193 1    
   142   71  194 1    
   143   72   73 2    
   144   72   74 am   BACKBONE|DICT|INTERRES
   145   74   75 1    
   146   74  195 1    
   147   75   76 1    
   148   75   77 1    
   149   75  196 1    
   150   76  197 1    
   151   76  198 1    
   152   76  199 1    
   153   77   78 2    
   154   77   79 am   BACKBONE|DICT|INTERRES
   155   79   80 1    
   156   79  200 1    
   157   80   81 1    
   158   80   82 1    
   159   80  201 1    
   160   81  202 1    
   161   81  203 1    
   162   81  204 1    
   163   82   83 2    
   164   82   84 am   BACKBONE|DICT|INTERRES
   165   84   85 1    
   166   84  205 1    
   167   85   86 1    
   168   85   87 1    
   169   85  206 1    
   170   86  207 1    
   171   86  208 1    
   172   86  209 1    
   173   87   88 2    
   174   87   89 am   BACKBONE|DICT|INTERRES
   175   89   90 1    
   176   89  210 1    
   177   90   91 1    
   178   90   92 1    
   179   90  211 1    
   180   91  212 1    
   181   91  213 1    
   182   91  214 1    
   183   92   93 2    
   184   92   94 am   BACKBONE|DICT|INTERRES
   185   94   95 1    
   186   94  215 1    
   187   95   96 1    
   188   95   97 1    
   189   95  216 1    
   190   96  217 1    
   191   96  218 1    
   192   96  219 1    
   193   97   98 2    
   194   97   99 am   BACKBONE|DICT|INTERRES
   195   99  100 1    
   196   99  220 1    
   197  100  101 1    
   198  100  102 1    
   199  100  221 1    
   200  101  222 1    
   201  101  223 1    
   202  101  224 1    
   203  102  103 2    
   204  102  104 am   BACKBONE|DICT|INTERRES
   205  104  105 1    
   206  104  225 1    
   207  105  106 1    
   208  105  107 1    
   209  105  226 1    
   210  106  227 1    
   211  106  228 1    
   212  106  229 1    
   213  107  108 2    
   214  107  109 am   BACKBONE|DICT|INTERRES
   215  109  110 1    
   216  109  230 1    
   217  110  111 1    
   218  110  112 1    
   219  110  231 1    
   220  111  232 1    
   221  111  233 1    
   222  111  234 1    
   223  112  113 2    
   224  112  114 am   BACKBONE|DICT|INTERRES
   225  114  115 1    
   226  114  235 1    
   227  115  116 1    
   228  115  117 1    
   229  115  236 1    
   230  116  237 1    
   231  116  238 1    
   232  116  239 1    
   233  117  118 2    
   234  117  119 am   BACKBONE|DICT|INTERRES
   235  119  120 1    
   236  119  240 1    
   237  120  121 1    
   238  120  124 1    
   239  120  241 1    
   240  121  122 am   BACKBONE|DICT|INTERRES
   241  121  123 2    
   242  122  242 1    
   243  122  243 1    
   244  124  125 1    
   245  124  244 1    
   246  124  245 1    
   247  125  126 1    
   248  126  246 1    
   249  126  247 1    
@<TRIPOS>SUBSTRUCTURE
     1 UNK         1 GROUP             0       ****    0 ROOT    
