@<TRIPOS>MOLECULE
3R540
247   249    1
SMALL
USER_CHARGES


@<TRIPOS>ATOM
      1 CA          5.8903  -11.9621  -45.3832 C.3       0 UNK        -0.1800 
      2 C           4.9977  -13.1930  -45.4249 C.2       0 UNK         0.5000 
      3 O           5.4117  -14.2647  -44.9841 O.2       0 UNK        -0.5000 
      4 N           3.7666  -13.0467  -45.9330 N.am      1 UNK        -0.5000 
      5 CA          2.7720  -14.1208  -46.0706 C.3       1 UNK         0.1400 
      6 C6          1.5023  -13.6195  -46.8009 C.3       23 UNK        -0.0398 
      7 S7          0.5755  -14.9682  -47.6031 S.3       23 UNK        -0.2404 
      8 C8          0.7749  -14.5404  -49.3587 C.3       23 UNK        -0.0205 
      9 C9          0.0151  -15.5163  -50.2398 C.ar      23 UNK        -0.0193 
     10 C10        -1.2615  -15.2014  -50.7106 C.ar      23 UNK        -0.1150 
     11 C11        -1.9747  -16.1118  -51.4969 C.ar      23 UNK        -0.0193 
     12 C12        -1.4007  -17.3509  -51.8053 C.ar      23 UNK        -0.1150 
     13 C13        -0.1150  -17.6672  -51.3569 C.ar      23 UNK        -0.0193 
     14 C14         0.5882  -16.7423  -50.5798 C.ar      23 UNK        -0.1150 
     15 C15         0.5365  -18.9878  -51.7391 C.3       23 UNK        -0.0205 
     16 S16         1.0777  -19.9397  -50.2833 S.3       23 UNK        -0.2404 
     17 C17        -0.4205  -20.8683  -49.8306 C.3       23 UNK        -0.0398 
     18 CA         -1.0443  -20.4016  -48.4911 C.3       11 UNK         0.1400 
     19 N          -1.8190  -19.1650  -48.6558 N.am      11 UNK        -0.5000 
     20 C          -2.0062  -18.2488  -47.7000 C.2       10 UNK         0.5000 
     21 O          -1.4746  -18.2932  -46.5918 O.2       10 UNK        -0.5000 
     22 CA         -3.0361  -17.1572  -48.0077 C.3       10 UNK         0.1400 
     23 CB         -4.4681  -17.6880  -47.8007 C.3       10 UNK        -0.1800 
     24 N          -2.7997  -16.0031  -47.1480 N.am      10 UNK        -0.5000 
     25 C          -3.1957  -14.7566  -47.4306 C.2       9 UNK         0.5000 
     26 O          -3.8627  -14.4701  -48.4264 O.2       9 UNK        -0.5000 
     27 CA         -2.7884  -13.6498  -46.4420 C.3       9 UNK         0.1400 
     28 CB         -3.6986  -12.4074  -46.5223 C.3       9 UNK        -0.1800 
     29 N          -2.7468  -14.1434  -45.0647 N.am      9 UNK        -0.5000 
     30 C          -1.9412  -13.6550  -44.1140 C.2       8 UNK         0.5000 
     31 O          -1.0996  -12.7789  -44.3157 O.2       8 UNK        -0.5000 
     32 CA         -2.1160  -14.2014  -42.6842 C.3       8 UNK         0.1400 
     33 CB         -2.9653  -13.2342  -41.8452 C.3       8 UNK        -0.1800 
     34 N          -2.6981  -15.5433  -42.5936 N.am      8 UNK        -0.5000 
     35 C          -2.0635  -16.6601  -42.9679 C.2       7 UNK         0.5000 
     36 O          -1.0033  -16.6644  -43.5929 O.2       7 UNK        -0.5000 
     37 CA         -2.7072  -17.9946  -42.5481 C.3       7 UNK         0.1400 
     38 CB         -3.4312  -18.6736  -43.7212 C.3       7 UNK        -0.1800 
     39 N          -1.6752  -18.8915  -42.0344 N.am      7 UNK        -0.5000 
     40 C          -1.1223  -18.7942  -40.8172 C.2       6 UNK         0.5000 
     41 O          -1.5486  -18.0520  -39.9314 O.2       6 UNK        -0.5000 
     42 CA          0.1251  -19.6600  -40.5447 C.3       6 UNK         0.1400 
     43 CB         -0.2548  -20.9365  -39.7793 C.3       6 UNK        -0.1800 
     44 N           0.8529  -20.0170  -41.7687 N.am      6 UNK        -0.5000 
     45 C           1.6009  -19.1482  -42.4632 C.2       5 UNK         0.5000 
     46 O           1.7893  -17.9841  -42.1083 O.2       5 UNK        -0.5000 
     47 CA          2.2300  -19.6666  -43.7651 C.3       5 UNK         0.1400 
     48 CB          1.1961  -19.6982  -44.9037 C.3       5 UNK        -0.1800 
     49 N           3.3260  -18.7840  -44.1501 N.am      5 UNK        -0.5000 
     50 C           4.5302  -19.1747  -44.5783 C.2       4 UNK         0.5000 
     51 O           4.8466  -20.3522  -44.7544 O.2       4 UNK        -0.5000 
     52 CA          5.5665  -18.0667  -44.8476 C.3       4 UNK         0.1400 
     53 CB          5.4109  -17.5204  -46.2754 C.3       4 UNK        -0.1800 
     54 N           5.4935  -16.9537  -43.8998 N.am      4 UNK        -0.5000 
     55 C           5.7850  -17.0282  -42.5926 C.2       3 UNK         0.5000 
     56 O           6.1682  -18.0572  -42.0349 O.2       3 UNK        -0.5000 
     57 CA          5.6164  -15.7403  -41.7676 C.3       3 UNK         0.1400 
     58 CB          6.8590  -14.8437  -41.8901 C.3       3 UNK        -0.1800 
     59 N           4.4327  -15.0005  -42.2045 N.am      3 UNK        -0.5000 
     60 C           3.2433  -15.0438  -41.5879 C.2       2 UNK         0.5000 
     61 O           3.0718  -15.5677  -40.4862 O.2       2 UNK        -0.5000 
     62 CA          2.0408  -14.3743  -42.2900 C.3       2 UNK         0.1400 
     63 CB          1.5716  -13.1428  -41.4975 C.3       2 UNK        -0.1800 
     64 N           2.3012  -13.9611  -43.6704 N.am      2 UNK        -0.5000 
     65 C           2.4310  -14.7878  -44.7180 C.2       1 UNK         0.5000 
     66 O           2.3800  -16.0136  -44.6362 O.2       1 UNK        -0.5000 
     67 C          -1.8954  -21.5372  -47.8739 C.2       11 UNK         0.5000 
     68 O          -1.3937  -22.6533  -47.7541 O.2       11 UNK        -0.5000 
     69 N          -3.1543  -21.2599  -47.4982 N.am      12 UNK        -0.5000 
     70 CA         -4.1790  -22.2280  -47.0845 C.3       12 UNK         0.1400 
     71 CB         -5.4584  -21.4631  -46.7107 C.3       12 UNK        -0.1800 
     72 C          -3.7751  -23.1765  -45.9400 C.2       12 UNK         0.5000 
     73 O          -4.2350  -24.3180  -45.9095 O.2       12 UNK        -0.5000 
     74 N          -2.9115  -22.6953  -45.0366 N.am      13 UNK        -0.5000 
     75 CA         -2.3426  -23.4776  -43.9393 C.3       13 UNK         0.1400 
     76 CB         -1.7212  -22.5168  -42.9168 C.3       13 UNK        -0.1800 
     77 C          -1.2995  -24.5153  -44.4030 C.2       13 UNK         0.5000 
     78 O          -1.1098  -25.5210  -43.7180 O.2       13 UNK        -0.5000 
     79 N          -0.6407  -24.2551  -45.5400 N.am      14 UNK        -0.5000 
     80 CA          0.3319  -25.1488  -46.1632 C.3       14 UNK         0.1400 
     81 CB          1.4368  -24.3194  -46.8391 C.3       14 UNK        -0.1800 
     82 C          -0.3563  -26.0802  -47.1735 C.2       14 UNK         0.5000 
     83 O          -0.1200  -27.2886  -47.1354 O.2       14 UNK        -0.5000 
     84 N          -1.2079  -25.5152  -48.0399 N.am      15 UNK        -0.5000 
     85 CA         -1.9799  -26.2441  -49.0395 C.3       15 UNK         0.1400 
     86 CB         -1.0892  -26.6287  -50.2362 C.3       15 UNK        -0.1800 
     87 C          -3.1603  -25.3873  -49.5085 C.2       15 UNK         0.5000 
     88 O          -2.9636  -24.2389  -49.9116 O.2       15 UNK        -0.5000 
     89 N          -4.3608  -25.9798  -49.5198 N.am      16 UNK        -0.5000 
     90 CA         -5.5804  -25.3600  -50.0453 C.3       16 UNK         0.1400 
     91 CB         -6.7936  -26.2228  -49.6702 C.3       16 UNK        -0.1800 
     92 C          -5.5259  -25.1324  -51.5682 C.2       16 UNK         0.5000 
     93 O          -6.1051  -24.1641  -52.0571 O.2       16 UNK        -0.5000 
     94 N          -4.7919  -25.9947  -52.2865 N.am      17 UNK        -0.5000 
     95 CA         -4.5385  -25.8762  -53.7238 C.3       17 UNK         0.1400 
     96 CB         -3.8274  -27.1436  -54.2204 C.3       17 UNK        -0.1800 
     97 C          -3.7211  -24.6215  -54.0835 C.2       17 UNK         0.5000 
     98 O          -3.9973  -23.9871  -55.1006 O.2       17 UNK        -0.5000 
     99 N          -2.7594  -24.2598  -53.2231 N.am      18 UNK        -0.5000 
    100 CA        -1.9430  -23.0543  -53.3657 C.3       18 UNK         0.1400 
    101 CB        -0.7033  -23.1736  -52.4696 C.3       18 UNK        -0.1800 
    102 C         -2.7373  -21.7708  -53.0596 C.2       18 UNK         0.5000 
    103 O         -2.4804  -20.7369  -53.6758 O.2       18 UNK        -0.5000 
    104 N         -3.7106  -21.8626  -52.1418 N.am      19 UNK        -0.5000 
    105 CA        -4.6757  -20.7977  -51.8696 C.3       19 UNK         0.1400 
    106 CB        -5.3826  -21.0617  -50.5353 C.3       19 UNK        -0.1800 
    107 C         -5.6916  -20.6290  -53.0138 C.2       19 UNK         0.5000 
    108 O         -6.0183  -19.4966  -53.3616 O.2       19 UNK        -0.5000 
    109 N         -6.1419  -21.7420  -53.6107 N.am      20 UNK        -0.5000 
    110 CA        -7.0156  -21.7543  -54.7877 C.3       20 UNK         0.1400 
    111 CB        -7.5063  -23.1845  -55.0567 C.3       20 UNK        -0.1800 
    112 C         -6.3318  -21.1599  -56.0341 C.2       20 UNK         0.5000 
    113 O         -6.9514  -20.3757  -56.7548 O.2       20 UNK        -0.5000 
    114 N         -5.0447  -21.4868  -56.2263 N.am      21 UNK        -0.5000 
    115 CA        -4.1766  -20.9509  -57.2817 C.3       21 UNK         0.1400 
    116 CB        -2.8391  -21.7064  -57.2644 C.3       21 UNK        -0.1800 
    117 C         -3.9373  -19.4275  -57.1952 C.2       21 UNK         0.5000 
    118 O         -3.5388  -18.8221  -58.1910 O.2       21 UNK        -0.5000 
    119 N         -4.2051  -18.8343  -56.0252 N.am      22 UNK        -0.5000 
    120 CA        -4.2431  -17.3837  -55.7902 C.3       22 UNK         0.1400 
    121 C         -5.4147  -16.6518  -56.5164 C.2       22 UNK         0.5000 
    122 N         -6.4583  -17.3420  -56.9662 N.am      22 UNK        -0.7600 
    123 O         -5.3719  -15.4371  -56.6890 O.2       22 UNK        -0.5000 
    124 C124       -4.2530  -17.0897  -54.2677 C.3       23 UNK        -0.0398 
    125 S125       -3.4389  -15.5327  -53.7883 S.3       23 UNK        -0.2404 
    126 C126       -3.3735  -15.7563  -51.9805 C.3       23 UNK        -0.0205 
    127 H127        6.7933  -12.1356  -45.9683 H         1 UNK         0.0600 
    128 H128        6.1845  -11.7486  -44.3556 H         1 UNK         0.0600 
    129 H129        5.3873  -11.0819  -45.7843 H         1 UNK         0.0600 
    130 H130        3.4843  -12.1377  -46.2712 H         1 UNK         0.3000 
    131 H131        3.2427  -14.8830  -46.6955 H         1 UNK         0.0600 
    132 H132        0.8372  -13.0849  -46.1214 H         1 UNK         0.0800 
    133 H133        1.7769  -12.8935  -47.5671 H         1 UNK         0.0800 
    134 H134        0.4192  -13.5232  -49.5304 H         1 UNK         0.0800 
    135 H135        1.8344  -14.5500  -49.6194 H         1 UNK         0.0800 
    136 H136       -1.7072  -14.2516  -50.4499 H         1 UNK         0.1150 
    137 H137       -1.9434  -18.0632  -52.4092 H         1 UNK         0.1150 
    138 H138        1.5806  -16.9841  -50.2256 H         1 UNK         0.1150 
    139 H139       -0.1243  -19.5942  -52.3605 H         1 UNK         0.0800 
    140 H140        1.4118  -18.7703  -52.3524 H         1 UNK         0.0800 
    141 H141       -0.0940  -21.9078  -49.7738 H         1 UNK         0.0800 
    142 H142       -1.1567  -20.8292  -50.6337 H         1 UNK         0.0800 
    143 H143       -0.2318  -20.2230  -47.7833 H         1 UNK         0.0600 
    144 H144       -2.2723  -19.0422  -49.5487 H         1 UNK         0.3000 
    145 H145       -2.9111  -16.8592  -49.0480 H         1 UNK         0.0600 
    146 H146       -5.2116  -16.9242  -48.0283 H         1 UNK         0.0600 
    147 H147       -4.6745  -18.5358  -48.4547 H         1 UNK         0.0600 
    148 H148       -4.6306  -18.0143  -46.7728 H         1 UNK         0.0600 
    149 H149       -2.1871  -16.1812  -46.3601 H         1 UNK         0.3000 
    150 H150       -1.7841  -13.3462  -46.7422 H         1 UNK         0.0600 
    151 H151       -4.7279  -12.6497  -46.2558 H         1 UNK         0.0600 
    152 H152       -3.7070  -11.9879  -47.5290 H         1 UNK         0.0600 
    153 H153       -3.3555  -11.6195  -45.8517 H         1 UNK         0.0600 
    154 H154       -3.4069  -14.8690  -44.8234 H         1 UNK         0.3000 
    155 H155       -1.1219  -14.2462  -42.2366 H         1 UNK         0.0600 
    156 H156       -3.9863  -13.1646  -42.2228 H         1 UNK         0.0600 
    157 H157       -2.5415  -12.2290  -41.8583 H         1 UNK         0.0600 
    158 H158       -3.0116  -13.5504  -40.8029 H         1 UNK         0.0600 
    159 H159       -3.5726  -15.6185  -42.0941 H         1 UNK         0.3000 
    160 H160       -3.4393  -17.8049  -41.7601 H         1 UNK         0.0600 
    161 H161       -3.9795  -19.5542  -43.3860 H         1 UNK         0.0600 
    162 H162       -2.7327  -18.9946  -44.4921 H         1 UNK         0.0600 
    163 H163       -4.1506  -17.9980  -44.1853 H         1 UNK         0.0600 
    164 H164       -1.2103  -19.4694  -42.7164 H         1 UNK         0.3000 
    165 H165        0.7941  -19.0773  -39.9074 H         1 UNK         0.0600 
    166 H166       -0.7032  -20.6897  -38.8162 H         1 UNK         0.0600 
    167 H167       -0.9785  -21.5382  -40.3267 H         1 UNK         0.0600 
    168 H168        0.6199  -21.5556  -39.5794 H         1 UNK         0.0600 
    169 H169        0.7658  -20.9698  -42.0893 H         1 UNK         0.3000 
    170 H170        2.6006  -20.6772  -43.5822 H         1 UNK         0.0600 
    171 H171        0.3590  -20.3546  -44.6681 H         1 UNK         0.0600 
    172 H172        0.7891  -18.7038  -45.0958 H         1 UNK         0.0600 
    173 H173        1.6406  -20.0601  -45.8309 H         1 UNK         0.0600 
    174 H174        3.1337  -17.7923  -44.0280 H         1 UNK         0.3000 
    175 H175        6.5592  -18.5129  -44.7607 H         1 UNK         0.0600 
    176 H176        6.1747  -16.7754  -46.4995 H         1 UNK         0.0600 
    177 H177        5.5074  -18.3189  -47.0120 H         1 UNK         0.0600 
    178 H178        4.4357  -17.0549  -46.4217 H         1 UNK         0.0600 
    179 H179        5.2503  -16.0494  -44.2918 H         1 UNK         0.3000 
    180 H180        5.5197  -16.0282  -40.7188 H         1 UNK         0.0600 
    181 H181        7.0469  -14.5420  -42.9206 H         1 UNK         0.0600 
    182 H182        7.7491  -15.3647  -41.5355 H         1 UNK         0.0600 
    183 H183        6.7514  -13.9394  -41.2913 H         1 UNK         0.0600 
    184 H184        4.4948  -14.5531  -43.1102 H         1 UNK         0.3000 
    185 H185        1.2300  -15.1063  -42.3052 H         1 UNK         0.0600 
    186 H186        1.2741  -13.4192  -40.4852 H         1 UNK         0.0600 
    187 H187        2.3614  -12.3950  -41.4152 H         1 UNK         0.0600 
    188 H188        0.7111  -12.6685  -41.9696 H         1 UNK         0.0600 
    189 H189        2.3954  -12.9687  -43.8296 H         1 UNK         0.3000 
    190 H190       -3.4639  -20.3064  -47.5947 H         1 UNK         0.3000 
    191 H191       -4.3966  -22.8540  -47.9515 H         1 UNK         0.0600 
    192 H192       -5.8322  -20.8744  -47.5481 H         1 UNK         0.0600 
    193 H193       -6.2546  -22.1501  -46.4207 H         1 UNK         0.0600 
    194 H194       -5.2894  -20.7845  -45.8735 H         1 UNK         0.0600 
    195 H195       -2.5856  -21.7469  -45.1446 H         1 UNK         0.3000 
    196 H196       -3.1521  -24.0211  -43.4474 H         1 UNK         0.0600 
    197 H197       -1.2996  -23.0713  -42.0777 H         1 UNK         0.0600 
    198 H198       -2.4668  -21.8309  -42.5138 H         1 UNK         0.0600 
    199 H199       -0.9191  -21.9265  -43.3581 H         1 UNK         0.0600 
    200 H200       -0.9178  -23.4524  -46.0957 H         1 UNK         0.3000 
    201 H201        0.8052  -25.7685  -45.3985 H         1 UNK         0.0600 
    202 H202        2.1945  -24.9689  -47.2789 H         1 UNK         0.0600 
    203 H203        1.0468  -23.6874  -47.6373 H         1 UNK         0.0600 
    204 H204        1.9399  -23.6740  -46.1188 H         1 UNK         0.0600 
    205 H205       -1.3587  -24.5078  -48.0169 H         1 UNK         0.3000 
    206 H206       -2.3719  -27.1554  -48.5826 H         1 UNK         0.0600 
    207 H207       -0.2954  -27.3135  -49.9382 H         1 UNK         0.0600 
    208 H208       -1.6685  -27.1275  -51.0142 H         1 UNK         0.0600 
    209 H209       -0.6203  -25.7520  -50.6843 H         1 UNK         0.0600 
    210 H210       -4.4492  -26.9242  -49.1729 H         1 UNK         0.3000 
    211 H211       -5.6966  -24.3836  -49.5705 H         1 UNK         0.0600 
    212 H212       -6.7262  -27.2232  -50.0996 H         1 UNK         0.0600 
    213 H213       -7.7191  -25.7720  -50.0311 H         1 UNK         0.0600 
    214 H214       -6.8842  -26.3258  -48.5887 H         1 UNK         0.0600 
    215 H215       -4.3588  -26.7710  -51.8093 H         1 UNK         0.3000 
    216 H216       -5.5022  -25.8030  -54.2316 H         1 UNK         0.0600 
    217 H217       -3.6414  -27.0908  -55.2940 H         1 UNK         0.0600 
    218 H218       -4.4331  -28.0319  -54.0403 H         1 UNK         0.0600 
    219 H219       -2.8651  -27.2869  -53.7271 H         1 UNK         0.0600 
    220 H220       -2.6209  -24.8060  -52.3858 H         1 UNK         0.3000 
    221 H221       -1.6019  -22.9895  -54.4010 H         1 UNK         0.0600 
    222 H222       -0.9766  -23.3115  -51.4243 H         1 UNK         0.0600 
    223 H223       -0.0861  -24.0220  -52.7655 H         1 UNK         0.0600 
    224 H224       -0.0804  -22.2809  -52.5386 H         1 UNK         0.0600 
    225 H225       -3.8434  -22.7418  -51.6607 H         1 UNK         0.3000 
    226 H226       -4.1272  -19.8579  -51.7738 H         1 UNK         0.0600 
    227 H227       -6.0639  -20.2474  -50.2859 H         1 UNK         0.0600 
    228 H228       -5.9643  -21.9827  -50.5535 H         1 UNK         0.0600 
    229 H229       -4.6573  -21.1387  -49.7298 H         1 UNK         0.0600 
    230 H230       -5.9001  -22.6438  -53.2105 H         1 UNK         0.3000 
    231 H231       -7.8870  -21.1363  -54.5613 H         1 UNK         0.0600 
    232 H232       -6.6833  -23.8566  -55.2980 H         1 UNK         0.0600 
    233 H233       -8.2026  -23.2054  -55.8959 H         1 UNK         0.0600 
    234 H234       -8.0277  -23.5920  -54.1904 H         1 UNK         0.0600 
    235 H235       -4.6318  -22.1910  -55.6221 H         1 UNK         0.3000 
    236 H236       -4.6651  -21.1454  -58.2384 H         1 UNK         0.0600 
    237 H237       -2.9875  -22.7773  -57.4042 H         1 UNK         0.0600 
    238 H238       -2.1843  -21.3631  -58.0663 H         1 UNK         0.0600 
    239 H239       -2.3091  -21.5597  -56.3233 H         1 UNK         0.0600 
    240 H240       -4.5311  -19.4136  -55.2643 H         1 UNK         0.3000 
    241 H241       -3.3184  -16.9820  -56.2086 H         1 UNK         0.0600 
    242 H242       -7.2032  -16.8555  -57.4394 H         1 UNK         0.3800 
    243 H243       -6.5192  -18.3463  -56.8424 H         1 UNK         0.3800 
    244 H244       -3.7415  -17.8929  -53.7374 H         1 UNK         0.0800 
    245 H245       -5.2717  -17.0813  -53.8765 H         1 UNK         0.0800 
    246 H246       -4.0760  -16.5269  -51.6597 H         1 UNK         0.0800 
    247 H247       -3.7138  -14.8326  -51.5093 H         1 UNK         0.0800 
@<TRIPOS>BOND
     1    1    2 1    
     2    1  127 1    
     3    1  128 1    
     4    1  129 1    
     5    2    3 2    
     6    2    4 am   BACKBONE|DICT|INTERRES
     7    4    5 1    
     8    4  130 1    
     9    5    6 1    
    10    5   65 1    
    11    5  131 1    
    12    6    7 1    
    13    6  132 1    
    14    6  133 1    
    15    7    8 1    
    16    8    9 1    
    17    8  134 1    
    18    8  135 1    
    19    9   10 ar   
    20    9   14 ar   
    21   10   11 ar   
    22   10  136 1    
    23   11   12 ar   
    24   11  126 1    
    25   12   13 ar   
    26   12  137 1    
    27   13   14 ar   
    28   13   15 1    
    29   14  138 1    
    30   15   16 1    
    31   15  139 1    
    32   15  140 1    
    33   16   17 1    
    34   17   18 1    
    35   17  141 1    
    36   17  142 1    
    37   18   19 1    
    38   18   67 1    
    39   18  143 1    
    40   19   20 am   BACKBONE|DICT|INTERRES
    41   19  144 1    
    42   20   21 2    
    43   20   22 1    
    44   22   23 1    
    45   22   24 1    
    46   22  145 1    
    47   23  146 1    
    48   23  147 1    
    49   23  148 1    
    50   24   25 am   BACKBONE|DICT|INTERRES
    51   24  149 1    
    52   25   26 2    
    53   25   27 1    
    54   27   28 1    
    55   27   29 1    
    56   27  150 1    
    57   28  151 1    
    58   28  152 1    
    59   28  153 1    
    60   29   30 am   BACKBONE|DICT|INTERRES
    61   29  154 1    
    62   30   31 2    
    63   30   32 1    
    64   32   33 1    
    65   32   34 1    
    66   32  155 1    
    67   33  156 1    
    68   33  157 1    
    69   33  158 1    
    70   34   35 am   BACKBONE|DICT|INTERRES
    71   34  159 1    
    72   35   36 2    
    73   35   37 1    
    74   37   38 1    
    75   37   39 1    
    76   37  160 1    
    77   38  161 1    
    78   38  162 1    
    79   38  163 1    
    80   39   40 am   BACKBONE|DICT|INTERRES
    81   39  164 1    
    82   40   41 2    
    83   40   42 1    
    84   42   43 1    
    85   42   44 1    
    86   42  165 1    
    87   43  166 1    
    88   43  167 1    
    89   43  168 1    
    90   44   45 am   BACKBONE|DICT|INTERRES
    91   44  169 1    
    92   45   46 2    
    93   45   47 1    
    94   47   48 1    
    95   47   49 1    
    96   47  170 1    
    97   48  171 1    
    98   48  172 1    
    99   48  173 1    
   100   49   50 am   BACKBONE|DICT|INTERRES
   101   49  174 1    
   102   50   51 2    
   103   50   52 1    
   104   52   53 1    
   105   52   54 1    
   106   52  175 1    
   107   53  176 1    
   108   53  177 1    
   109   53  178 1    
   110   54   55 am   BACKBONE|DICT|INTERRES
   111   54  179 1    
   112   55   56 2    
   113   55   57 1    
   114   57   58 1    
   115   57   59 1    
   116   57  180 1    
   117   58  181 1    
   118   58  182 1    
   119   58  183 1    
   120   59   60 am   BACKBONE|DICT|INTERRES
   121   59  184 1    
   122   60   61 2    
   123   60   62 1    
   124   62   63 1    
   125   62   64 1    
   126   62  185 1    
   127   63  186 1    
   128   63  187 1    
   129   63  188 1    
   130   64   65 am   BACKBONE|DICT|INTERRES
   131   64  189 1    
   132   65   66 2    
   133   67   68 2    
   134   67   69 am   BACKBONE|DICT|INTERRES
   135   69   70 1    
   136   69  190 1    
   137   70   71 1    
   138   70   72 1    
   139   70  191 1    
   140   71  192 1    
   141   71  193 1    
   142   71  194 1    
   143   72   73 2    
   144   72   74 am   BACKBONE|DICT|INTERRES
   145   74   75 1    
   146   74  195 1    
   147   75   76 1    
   148   75   77 1    
   149   75  196 1    
   150   76  197 1    
   151   76  198 1    
   152   76  199 1    
   153   77   78 2    
   154   77   79 am   BACKBONE|DICT|INTERRES
   155   79   80 1    
   156   79  200 1    
   157   80   81 1    
   158   80   82 1    
   159   80  201 1    
   160   81  202 1    
   161   81  203 1    
   162   81  204 1    
   163   82   83 2    
   164   82   84 am   BACKBONE|DICT|INTERRES
   165   84   85 1    
   166   84  205 1    
   167   85   86 1    
   168   85   87 1    
   169   85  206 1    
   170   86  207 1    
   171   86  208 1    
   172   86  209 1    
   173   87   88 2    
   174   87   89 am   BACKBONE|DICT|INTERRES
   175   89   90 1    
   176   89  210 1    
   177   90   91 1    
   178   90   92 1    
   179   90  211 1    
   180   91  212 1    
   181   91  213 1    
   182   91  214 1    
   183   92   93 2    
   184   92   94 am   BACKBONE|DICT|INTERRES
   185   94   95 1    
   186   94  215 1    
   187   95   96 1    
   188   95   97 1    
   189   95  216 1    
   190   96  217 1    
   191   96  218 1    
   192   96  219 1    
   193   97   98 2    
   194   97   99 am   BACKBONE|DICT|INTERRES
   195   99  100 1    
   196   99  220 1    
   197  100  101 1    
   198  100  102 1    
   199  100  221 1    
   200  101  222 1    
   201  101  223 1    
   202  101  224 1    
   203  102  103 2    
   204  102  104 am   BACKBONE|DICT|INTERRES
   205  104  105 1    
   206  104  225 1    
   207  105  106 1    
   208  105  107 1    
   209  105  226 1    
   210  106  227 1    
   211  106  228 1    
   212  106  229 1    
   213  107  108 2    
   214  107  109 am   BACKBONE|DICT|INTERRES
   215  109  110 1    
   216  109  230 1    
   217  110  111 1    
   218  110  112 1    
   219  110  231 1    
   220  111  232 1    
   221  111  233 1    
   222  111  234 1    
   223  112  113 2    
   224  112  114 am   BACKBONE|DICT|INTERRES
   225  114  115 1    
   226  114  235 1    
   227  115  116 1    
   228  115  117 1    
   229  115  236 1    
   230  116  237 1    
   231  116  238 1    
   232  116  239 1    
   233  117  118 2    
   234  117  119 am   BACKBONE|DICT|INTERRES
   235  119  120 1    
   236  119  240 1    
   237  120  121 1    
   238  120  124 1    
   239  120  241 1    
   240  121  122 am   BACKBONE|DICT|INTERRES
   241  121  123 2    
   242  122  242 1    
   243  122  243 1    
   244  124  125 1    
   245  124  244 1    
   246  124  245 1    
   247  125  126 1    
   248  126  246 1    
   249  126  247 1    
@<TRIPOS>SUBSTRUCTURE
     1 UNK         1 GROUP             0       ****    0 ROOT    
