@<TRIPOS>MOLECULE
3R540
247   249    1
SMALL
USER_CHARGES


@<TRIPOS>ATOM
      1 CA          2.9531  -16.4224  -47.1905 C.3       0 UNK        -0.1800 
      2 C           2.4489  -15.0231  -46.8699 C.2       0 UNK         0.5000 
      3 O           2.7982  -14.4651  -45.8308 O.2       0 UNK        -0.5000 
      4 N           1.6479  -14.4467  -47.7750 N.am      1 UNK        -0.5000 
      5 CA          0.9809  -13.1395  -47.6515 C.3       1 UNK         0.1400 
      6 C6          0.0825  -12.8371  -48.8767 C.3       23 UNK        -0.0398 
      7 S7         -1.1934  -14.1139  -49.1245 S.3       23 UNK        -0.2404 
      8 C8         -0.5431  -15.0530  -50.5492 C.3       23 UNK        -0.0205 
      9 C9         -0.9342  -16.5244  -50.4806 C.ar      23 UNK        -0.0193 
     10 C10        -2.2716  -16.8884  -50.2976 C.ar      23 UNK        -0.1150 
     11 C11        -2.6439  -18.2294  -50.1878 C.ar      23 UNK        -0.0193 
     12 C12        -1.6546  -19.2145  -50.2698 C.ar      23 UNK        -0.1150 
     13 C13        -0.3202  -18.8741  -50.5069 C.ar      23 UNK        -0.0193 
     14 C14         0.0359  -17.5253  -50.6054 C.ar      23 UNK        -0.1150 
     15 C15         0.7196  -19.9752  -50.6837 C.3       23 UNK        -0.0205 
     16 S16         2.0201  -19.9808  -49.4055 S.3       23 UNK        -0.2404 
     17 C17         1.0702  -20.0024  -47.8508 C.3       23 UNK        -0.0398 
     18 CA          0.8029  -21.4163  -47.2762 C.3       11 UNK         0.1400 
     19 N           0.6114  -21.3717  -45.8243 N.am      11 UNK        -0.5000 
     20 C           0.4412  -22.4250  -45.0141 C.2       10 UNK         0.5000 
     21 O           0.5014  -23.5948  -45.3899 O.2       10 UNK        -0.5000 
     22 CA          0.0848  -22.1147  -43.5468 C.3       10 UNK         0.1400 
     23 CB          1.3432  -21.8149  -42.7191 C.3       10 UNK        -0.1800 
     24 N          -0.8642  -21.0041  -43.4307 N.am      10 UNK        -0.5000 
     25 C          -2.1301  -21.0535  -43.8707 C.2       9 UNK         0.5000 
     26 O          -2.6451  -22.0687  -44.3407 O.2       9 UNK        -0.5000 
     27 CA         -2.9387  -19.7419  -43.8290 C.3       9 UNK         0.1400 
     28 CB         -3.5386  -19.5049  -42.4354 C.3       9 UNK        -0.1800 
     29 N          -2.1463  -18.5782  -44.2328 N.am      9 UNK        -0.5000 
     30 C          -1.6502  -18.3969  -45.4650 C.2       8 UNK         0.5000 
     31 O          -1.8692  -19.1635  -46.4002 O.2       8 UNK        -0.5000 
     32 CA         -0.7112  -17.1947  -45.6800 C.3       8 UNK         0.1400 
     33 CB         -1.5195  -15.9257  -45.9750 C.3       8 UNK        -0.1800 
     34 N           0.1879  -16.9651  -44.5462 N.am      8 UNK        -0.5000 
     35 C           1.1077  -17.8422  -44.1187 C.2       7 UNK         0.5000 
     36 O           1.3382  -18.9087  -44.6820 O.2       7 UNK        -0.5000 
     37 CA          1.8515  -17.5149  -42.8137 C.3       7 UNK         0.1400 
     38 CB          3.0521  -16.5931  -43.0618 C.3       7 UNK        -0.1800 
     39 N           0.9594  -16.9198  -41.8224 N.am      7 UNK        -0.5000 
     40 C          -0.0103  -17.5932  -41.1879 C.2       6 UNK         0.5000 
     41 O          -0.2027  -18.8019  -41.3229 O.2       6 UNK        -0.5000 
     42 CA         -0.9471  -16.7626  -40.2911 C.3       6 UNK         0.1400 
     43 CB         -0.3455  -16.5953  -38.8880 C.3       6 UNK        -0.1800 
     44 N          -1.2297  -15.4416  -40.8582 N.am      6 UNK        -0.5000 
     45 C          -1.9457  -15.2356  -41.9734 C.2       5 UNK         0.5000 
     46 O          -2.5014  -16.1382  -42.5980 O.2       5 UNK        -0.5000 
     47 CA         -2.0060  -13.7886  -42.5044 C.3       5 UNK         0.1400 
     48 CB         -3.1851  -13.0316  -41.8762 C.3       5 UNK        -0.1800 
     49 N          -0.7649  -13.0445  -42.2644 N.am      5 UNK        -0.5000 
     50 C           0.4126  -13.3419  -42.8296 C.2       4 UNK         0.5000 
     51 O           0.5576  -14.2362  -43.6635 O.2       4 UNK        -0.5000 
     52 CA          1.6329  -12.5760  -42.3027 C.3       4 UNK         0.1400 
     53 CB          2.0105  -13.1170  -40.9053 C.3       4 UNK        -0.1800 
     54 N           2.7655  -12.7141  -43.2206 N.am      4 UNK        -0.5000 
     55 C           3.9083  -12.0198  -43.1229 C.2       3 UNK         0.5000 
     56 O           4.0925  -11.1213  -42.3002 O.2       3 UNK        -0.5000 
     57 CA          5.0395  -12.3758  -44.0986 C.3       3 UNK         0.1400 
     58 CB          5.5553  -13.8069  -43.8730 C.3       3 UNK        -0.1800 
     59 N           4.6058  -12.2178  -45.4824 N.am      3 UNK        -0.5000 
     60 C           4.7926  -11.1099  -46.2138 C.2       2 UNK         0.5000 
     61 O           5.3709  -10.1055  -45.7959 O.2       2 UNK        -0.5000 
     62 CA          4.2635  -11.1151  -47.6626 C.3       2 UNK         0.1400 
     63 CB          5.4040  -11.4105  -48.6490 C.3       2 UNK        -0.1800 
     64 N           3.1885  -12.0811  -47.8840 N.am      2 UNK        -0.5000 
     65 C           1.9430  -11.9577  -47.4066 C.2       1 UNK         0.5000 
     66 O           1.5455  -10.9713  -46.7855 O.2       1 UNK        -0.5000 
     67 C          -0.3843  -22.1060  -47.9810 C.2       11 UNK         0.5000 
     68 O          -0.1670  -23.0019  -48.7954 O.2       11 UNK        -0.5000 
     69 N          -1.6150  -21.7168  -47.6153 N.am      12 UNK        -0.5000 
     70 CA         -2.8645  -22.3073  -48.0972 C.3       12 UNK         0.1400 
     71 CB         -4.0610  -21.5391  -47.5170 C.3       12 UNK        -0.1800 
     72 C          -2.9856  -23.8007  -47.7605 C.2       12 UNK         0.5000 
     73 O          -3.3707  -24.5843  -48.6281 O.2       12 UNK        -0.5000 
     74 N          -2.6296  -24.1680  -46.5216 N.am      13 UNK        -0.5000 
     75 CA         -2.6022  -25.5498  -46.0446 C.3       13 UNK         0.1400 
     76 CB         -2.3644  -25.5693  -44.5271 C.3       13 UNK        -0.1800 
     77 C          -1.5582  -26.4078  -46.7822 C.2       13 UNK         0.5000 
     78 O          -1.8749  -27.5266  -47.1862 O.2       13 UNK        -0.5000 
     79 N          -0.3525  -25.8565  -46.9820 N.am      14 UNK        -0.5000 
     80 CA          0.7430  -26.4854  -47.7236 C.3       14 UNK         0.1400 
     81 CB          2.0246  -25.6575  -47.5439 C.3       14 UNK        -0.1800 
     82 C           0.4237  -26.6793  -49.2181 C.2       14 UNK         0.5000 
     83 O           0.7497  -27.7260  -49.7793 O.2       14 UNK        -0.5000 
     84 N          -0.2321  -25.6820  -49.8260 N.am      15 UNK        -0.5000 
     85 CA         -0.7023  -25.7089  -51.2123 C.3       15 UNK         0.1400 
     86 CB         -0.9930  -24.2694  -51.6614 C.3       15 UNK        -0.1800 
     87 C          -1.9505  -26.5881  -51.4271 C.2       15 UNK         0.5000 
     88 O          -2.2835  -26.8790  -52.5758 O.2       15 UNK        -0.5000 
     89 N          -2.6269  -26.9663  -50.3325 N.am      16 UNK        -0.5000 
     90 CA         -3.9002  -27.6895  -50.2725 C.3       16 UNK         0.1400 
     91 CB         -3.7496  -29.1240  -50.8206 C.3       16 UNK        -0.1800 
     92 C          -5.0514  -26.8966  -50.9280 C.2       16 UNK         0.5000 
     93 O          -5.8594  -27.4684  -51.6621 O.2       16 UNK        -0.5000 
     94 N          -5.0905  -25.5865  -50.6378 N.am      17 UNK        -0.5000 
     95 CA         -6.0508  -24.5898  -51.1214 C.3       17 UNK         0.1400 
     96 CB         -7.4434  -24.8373  -50.5064 C.3       17 UNK        -0.1800 
     97 C          -6.0745  -24.4789  -52.6607 C.2       17 UNK         0.5000 
     98 O          -7.1411  -24.5441  -53.2776 O.2       17 UNK        -0.5000 
     99 N          -4.8876  -24.3041  -53.2494 N.am      18 UNK        -0.5000 
    100 CA        -4.6857  -24.1106  -54.6808 C.3       18 UNK         0.1400 
    101 CB        -4.5546  -25.4798  -55.3758 C.3       18 UNK        -0.1800 
    102 C         -3.4576  -23.2105  -54.8748 C.2       18 UNK         0.5000 
    103 O         -2.3909  -23.6941  -55.2589 O.2       18 UNK        -0.5000 
    104 N         -3.6145  -21.9222  -54.5540 N.am      19 UNK        -0.5000 
    105 CA        -2.5577  -20.9152  -54.6138 C.3       19 UNK         0.1400 
    106 CB        -1.7453  -20.9319  -53.3049 C.3       19 UNK        -0.1800 
    107 C         -3.1241  -19.5332  -54.9927 C.2       19 UNK         0.5000 
    108 O         -4.1483  -19.4544  -55.6735 O.2       19 UNK        -0.5000 
    109 N         -2.4078  -18.4699  -54.6036 N.am      20 UNK        -0.5000 
    110 CA        -2.5727  -17.0943  -55.0796 C.3       20 UNK         0.1400 
    111 CB        -1.4296  -16.2406  -54.5081 C.3       20 UNK        -0.1800 
    112 C         -3.9290  -16.4348  -54.7698 C.2       20 UNK         0.5000 
    113 O         -4.3769  -15.5964  -55.5537 O.2       20 UNK        -0.5000 
    114 N         -4.5466  -16.7985  -53.6406 N.am      21 UNK        -0.5000 
    115 CA        -5.7981  -16.2062  -53.1616 C.3       21 UNK         0.1400 
    116 CB        -5.4850  -14.9514  -52.3220 C.3       21 UNK        -0.1800 
    117 C         -6.6507  -17.2342  -52.3990 C.2       21 UNK         0.5000 
    118 O         -7.3976  -16.8626  -51.4923 O.2       21 UNK        -0.5000 
    119 N         -6.5070  -18.5147  -52.7504 N.am      22 UNK        -0.5000 
    120 CA        -7.1274  -19.6491  -52.0595 C.3       22 UNK         0.1400 
    121 C         -7.1410  -20.9065  -52.9616 C.2       22 UNK         0.5000 
    122 N         -8.1182  -21.7842  -52.7872 N.am      22 UNK        -0.7600 
    123 O         -6.2532  -21.1163  -53.7849 O.2       22 UNK        -0.5000 
    124 C124       -6.4736  -19.9397  -50.6779 C.3       23 UNK        -0.0398 
    125 S125       -4.6554  -20.1252  -50.7481 S.3       23 UNK        -0.2404 
    126 C126       -4.1128  -18.5714  -49.9558 C.3       23 UNK        -0.0205 
    127 H127        2.8866  -17.0601  -46.3106 H         1 UNK         0.0600 
    128 H128        3.9968  -16.3816  -47.5009 H         1 UNK         0.0600 
    129 H129        2.3737  -16.8877  -47.9886 H         1 UNK         0.0600 
    130 H130        1.3974  -14.9715  -48.5991 H         1 UNK         0.3000 
    131 H131        0.3431  -13.1953  -46.7674 H         1 UNK         0.0600 
    132 H132       -0.4369  -11.8866  -48.7400 H         1 UNK         0.0800 
    133 H133        0.6790  -12.7263  -49.7839 H         1 UNK         0.0800 
    134 H134        0.5422  -14.9562  -50.5952 H         1 UNK         0.0800 
    135 H135       -0.9325  -14.6186  -51.4707 H         1 UNK         0.0800 
    136 H136       -3.0235  -16.1167  -50.2158 H         1 UNK         0.1150 
    137 H137       -1.9248  -20.2547  -50.1704 H         1 UNK         0.1150 
    138 H138        1.0701  -17.2607  -50.7747 H         1 UNK         0.1150 
    139 H139        0.2433  -20.9565  -50.7050 H         1 UNK         0.0800 
    140 H140        1.1936  -19.8539  -51.6583 H         1 UNK         0.0800 
    141 H141        0.1523  -19.4265  -47.9551 H         1 UNK         0.0800 
    142 H142        1.6820  -19.4370  -47.1491 H         1 UNK         0.0800 
    143 H143        1.6891  -22.0307  -47.4481 H         1 UNK         0.0600 
    144 H144        0.6225  -20.4467  -45.4015 H         1 UNK         0.3000 
    145 H145       -0.3889  -23.0041  -43.1262 H         1 UNK         0.0600 
    146 H146        1.0926  -21.6304  -41.6742 H         1 UNK         0.0600 
    147 H147        2.0343  -22.6582  -42.7450 H         1 UNK         0.0600 
    148 H148        1.8787  -20.9427  -43.0924 H         1 UNK         0.0600 
    149 H149       -0.5208  -20.1435  -43.0211 H         1 UNK         0.3000 
    150 H150       -3.7642  -19.8420  -44.5369 H         1 UNK         0.0600 
    151 H151       -4.1744  -20.3399  -42.1388 H         1 UNK         0.0600 
    152 H152       -4.1538  -18.6050  -42.4193 H         1 UNK         0.0600 
    153 H153       -2.7668  -19.3950  -41.6743 H         1 UNK         0.0600 
    154 H154       -1.9866  -17.8616  -43.5326 H         1 UNK         0.3000 
    155 H155       -0.0903  -17.4050  -46.5528 H         1 UNK         0.0600 
    156 H156       -2.0974  -16.0430  -46.8925 H         1 UNK         0.0600 
    157 H157       -0.8670  -15.0645  -46.1063 H         1 UNK         0.0600 
    158 H158       -2.2223  -15.6944  -45.1761 H         1 UNK         0.0600 
    159 H159        0.1204  -16.0644  -44.0811 H         1 UNK         0.3000 
    160 H160        2.2335  -18.4541  -42.4078 H         1 UNK         0.0600 
    161 H161        2.7408  -15.6202  -43.4355 H         1 UNK         0.0600 
    162 H162        3.7305  -17.0243  -43.7989 H         1 UNK         0.0600 
    163 H163        3.6231  -16.4321  -42.1475 H         1 UNK         0.0600 
    164 H164        1.0227  -15.9223  -41.6940 H         1 UNK         0.3000 
    165 H165       -1.8900  -17.3060  -40.1984 H         1 UNK         0.0600 
    166 H166       -1.0319  -16.0681  -38.2252 H         1 UNK         0.0600 
    167 H167       -0.1386  -17.5657  -38.4347 H         1 UNK         0.0600 
    168 H168        0.5919  -16.0380  -38.9134 H         1 UNK         0.0600 
    169 H169       -0.8213  -14.6459  -40.3917 H         1 UNK         0.3000 
    170 H170       -2.1680  -13.8366  -43.5830 H         1 UNK         0.0600 
    171 H171       -4.1252  -13.5537  -42.0592 H         1 UNK         0.0600 
    172 H172       -3.0708  -12.9296  -40.7963 H         1 UNK         0.0600 
    173 H173       -3.2825  -12.0319  -42.3001 H         1 UNK         0.0600 
    174 H174       -0.8113  -12.2981  -41.5855 H         1 UNK         0.3000 
    175 H175        1.3656  -11.5199  -42.2309 H         1 UNK         0.0600 
    176 H176        2.3475  -14.1530  -40.9550 H         1 UNK         0.0600 
    177 H177        2.8081  -12.5326  -40.4476 H         1 UNK         0.0600 
    178 H178        1.1647  -13.0786  -40.2180 H         1 UNK         0.0600 
    179 H179        2.6441  -13.4050  -43.9572 H         1 UNK         0.3000 
    180 H180        5.8741  -11.7017  -43.8935 H         1 UNK         0.0600 
    181 H181        4.8079  -14.5575  -44.1243 H         1 UNK         0.0600 
    182 H182        5.8389  -13.9612  -42.8312 H         1 UNK         0.0600 
    183 H183        6.4373  -14.0036  -44.4826 H         1 UNK         0.0600 
    184 H184        4.0548  -12.9803  -45.8649 H         1 UNK         0.3000 
    185 H185        3.8778  -10.1159  -47.8760 H         1 UNK         0.0600 
    186 H186        6.2156  -10.6906  -48.5351 H         1 UNK         0.0600 
    187 H187        5.8235  -12.4053  -48.4928 H         1 UNK         0.0600 
    188 H188        5.0594  -11.3485  -49.6815 H         1 UNK         0.0600 
    189 H189        3.4316  -12.9286  -48.3756 H         1 UNK         0.3000 
    190 H190       -1.7062  -20.9251  -46.9827 H         1 UNK         0.3000 
    191 H191       -2.8805  -22.2050  -49.1836 H         1 UNK         0.0600 
    192 H192       -4.1740  -21.7042  -46.4460 H         1 UNK         0.0600 
    193 H193       -4.9903  -21.8498  -47.9958 H         1 UNK         0.0600 
    194 H194       -3.9546  -20.4680  -47.6708 H         1 UNK         0.0600 
    195 H195       -2.3668  -23.4474  -45.8572 H         1 UNK         0.3000 
    196 H196       -3.5848  -25.9856  -46.2370 H         1 UNK         0.0600 
    197 H197       -2.3814  -26.5900  -44.1432 H         1 UNK         0.0600 
    198 H198       -3.1377  -25.0098  -44.0004 H         1 UNK         0.0600 
    199 H199       -1.4006  -25.1353  -44.2620 H         1 UNK         0.0600 
    200 H200       -0.1599  -24.9436  -46.5772 H         1 UNK         0.3000 
    201 H201        0.9141  -27.4731  -47.2908 H         1 UNK         0.0600 
    202 H202        2.3019  -25.5849  -46.4922 H         1 UNK         0.0600 
    203 H203        1.9065  -24.6438  -47.9281 H         1 UNK         0.0600 
    204 H204        2.8629  -26.1142  -48.0714 H         1 UNK         0.0600 
    205 H205       -0.3944  -24.8192  -49.3118 H         1 UNK         0.3000 
    206 H206        0.0948  -26.1096  -51.8418 H         1 UNK         0.0600 
    207 H207       -0.1054  -23.6421  -51.5764 H         1 UNK         0.0600 
    208 H208       -1.3082  -24.2463  -52.7049 H         1 UNK         0.0600 
    209 H209       -1.7843  -23.8125  -51.0657 H         1 UNK         0.0600 
    210 H210       -2.2757  -26.6424  -49.4408 H         1 UNK         0.3000 
    211 H211       -4.1512  -27.7685  -49.2137 H         1 UNK         0.0600 
    212 H212       -3.5564  -29.1326  -51.8935 H         1 UNK         0.0600 
    213 H213       -4.6572  -29.7035  -50.6484 H         1 UNK         0.0600 
    214 H214       -2.9315  -29.6491  -50.3276 H         1 UNK         0.0600 
    215 H215       -4.3857  -25.2325  -49.9921 H         1 UNK         0.3000 
    216 H216       -5.7004  -23.6240  -50.7533 H         1 UNK         0.0600 
    217 H217       -8.1356  -24.0386  -50.7744 H         1 UNK         0.0600 
    218 H218       -7.3924  -24.8695  -49.4181 H         1 UNK         0.0600 
    219 H219       -7.8780  -25.7763  -50.8503 H         1 UNK         0.0600 
    220 H220       -4.0553  -24.2633  -52.6791 H         1 UNK         0.3000 
    221 H221       -5.5415  -23.5846  -55.1099 H         1 UNK         0.0600 
    222 H222       -3.7359  -26.0662  -54.9565 H         1 UNK         0.0600 
    223 H223       -5.4691  -26.0637  -55.2709 H         1 UNK         0.0600 
    224 H224       -4.3648  -25.3600  -56.4430 H         1 UNK         0.0600 
    225 H225       -4.5387  -21.5816  -54.2871 H         1 UNK         0.3000 
    226 H226       -1.8777  -21.1698  -55.4293 H         1 UNK         0.0600 
    227 H227       -1.2855  -21.9050  -53.1461 H         1 UNK         0.0600 
    228 H228       -0.9321  -20.2064  -53.3095 H         1 UNK         0.0600 
    229 H229       -2.3833  -20.7248  -52.4494 H         1 UNK         0.0600 
    230 H230       -1.5980  -18.6353  -54.0242 H         1 UNK         0.3000 
    231 H231       -2.4686  -17.1145  -56.1664 H         1 UNK         0.0600 
    232 H232       -0.4565  -16.6206  -54.8197 H         1 UNK         0.0600 
    233 H233       -1.4505  -16.2243  -53.4181 H         1 UNK         0.0600 
    234 H234       -1.4989  -15.2081  -54.8532 H         1 UNK         0.0600 
    235 H235       -4.1192  -17.4999  -53.0517 H         1 UNK         0.3000 
    236 H236       -6.4056  -15.9017  -54.0162 H         1 UNK         0.0600 
    237 H237       -6.4000  -14.4509  -52.0030 H         1 UNK         0.0600 
    238 H238       -4.9165  -15.2019  -51.4263 H         1 UNK         0.0600 
    239 H239       -4.9061  -14.2259  -52.8934 H         1 UNK         0.0600 
    240 H240       -5.9191  -18.7669  -53.5346 H         1 UNK         0.3000 
    241 H241       -8.1729  -19.3855  -51.8868 H         1 UNK         0.0600 
    242 H242       -8.0884  -22.6485  -53.3134 H         1 UNK         0.3800 
    243 H243       -8.8649  -21.6305  -52.1281 H         1 UNK         0.3800 
    244 H244       -6.7261  -19.1412  -49.9795 H         1 UNK         0.0800 
    245 H245       -6.8931  -20.8452  -50.2367 H         1 UNK         0.0800 
    246 H246       -4.7326  -17.7575  -50.3306 H         1 UNK         0.0800 
    247 H247       -4.2981  -18.6196  -48.8836 H         1 UNK         0.0800 
@<TRIPOS>BOND
     1    1    2 1    
     2    1  127 1    
     3    1  128 1    
     4    1  129 1    
     5    2    3 2    
     6    2    4 am   BACKBONE|DICT|INTERRES
     7    4    5 1    
     8    4  130 1    
     9    5    6 1    
    10    5   65 1    
    11    5  131 1    
    12    6    7 1    
    13    6  132 1    
    14    6  133 1    
    15    7    8 1    
    16    8    9 1    
    17    8  134 1    
    18    8  135 1    
    19    9   10 ar   
    20    9   14 ar   
    21   10   11 ar   
    22   10  136 1    
    23   11   12 ar   
    24   11  126 1    
    25   12   13 ar   
    26   12  137 1    
    27   13   14 ar   
    28   13   15 1    
    29   14  138 1    
    30   15   16 1    
    31   15  139 1    
    32   15  140 1    
    33   16   17 1    
    34   17   18 1    
    35   17  141 1    
    36   17  142 1    
    37   18   19 1    
    38   18   67 1    
    39   18  143 1    
    40   19   20 am   BACKBONE|DICT|INTERRES
    41   19  144 1    
    42   20   21 2    
    43   20   22 1    
    44   22   23 1    
    45   22   24 1    
    46   22  145 1    
    47   23  146 1    
    48   23  147 1    
    49   23  148 1    
    50   24   25 am   BACKBONE|DICT|INTERRES
    51   24  149 1    
    52   25   26 2    
    53   25   27 1    
    54   27   28 1    
    55   27   29 1    
    56   27  150 1    
    57   28  151 1    
    58   28  152 1    
    59   28  153 1    
    60   29   30 am   BACKBONE|DICT|INTERRES
    61   29  154 1    
    62   30   31 2    
    63   30   32 1    
    64   32   33 1    
    65   32   34 1    
    66   32  155 1    
    67   33  156 1    
    68   33  157 1    
    69   33  158 1    
    70   34   35 am   BACKBONE|DICT|INTERRES
    71   34  159 1    
    72   35   36 2    
    73   35   37 1    
    74   37   38 1    
    75   37   39 1    
    76   37  160 1    
    77   38  161 1    
    78   38  162 1    
    79   38  163 1    
    80   39   40 am   BACKBONE|DICT|INTERRES
    81   39  164 1    
    82   40   41 2    
    83   40   42 1    
    84   42   43 1    
    85   42   44 1    
    86   42  165 1    
    87   43  166 1    
    88   43  167 1    
    89   43  168 1    
    90   44   45 am   BACKBONE|DICT|INTERRES
    91   44  169 1    
    92   45   46 2    
    93   45   47 1    
    94   47   48 1    
    95   47   49 1    
    96   47  170 1    
    97   48  171 1    
    98   48  172 1    
    99   48  173 1    
   100   49   50 am   BACKBONE|DICT|INTERRES
   101   49  174 1    
   102   50   51 2    
   103   50   52 1    
   104   52   53 1    
   105   52   54 1    
   106   52  175 1    
   107   53  176 1    
   108   53  177 1    
   109   53  178 1    
   110   54   55 am   BACKBONE|DICT|INTERRES
   111   54  179 1    
   112   55   56 2    
   113   55   57 1    
   114   57   58 1    
   115   57   59 1    
   116   57  180 1    
   117   58  181 1    
   118   58  182 1    
   119   58  183 1    
   120   59   60 am   BACKBONE|DICT|INTERRES
   121   59  184 1    
   122   60   61 2    
   123   60   62 1    
   124   62   63 1    
   125   62   64 1    
   126   62  185 1    
   127   63  186 1    
   128   63  187 1    
   129   63  188 1    
   130   64   65 am   BACKBONE|DICT|INTERRES
   131   64  189 1    
   132   65   66 2    
   133   67   68 2    
   134   67   69 am   BACKBONE|DICT|INTERRES
   135   69   70 1    
   136   69  190 1    
   137   70   71 1    
   138   70   72 1    
   139   70  191 1    
   140   71  192 1    
   141   71  193 1    
   142   71  194 1    
   143   72   73 2    
   144   72   74 am   BACKBONE|DICT|INTERRES
   145   74   75 1    
   146   74  195 1    
   147   75   76 1    
   148   75   77 1    
   149   75  196 1    
   150   76  197 1    
   151   76  198 1    
   152   76  199 1    
   153   77   78 2    
   154   77   79 am   BACKBONE|DICT|INTERRES
   155   79   80 1    
   156   79  200 1    
   157   80   81 1    
   158   80   82 1    
   159   80  201 1    
   160   81  202 1    
   161   81  203 1    
   162   81  204 1    
   163   82   83 2    
   164   82   84 am   BACKBONE|DICT|INTERRES
   165   84   85 1    
   166   84  205 1    
   167   85   86 1    
   168   85   87 1    
   169   85  206 1    
   170   86  207 1    
   171   86  208 1    
   172   86  209 1    
   173   87   88 2    
   174   87   89 am   BACKBONE|DICT|INTERRES
   175   89   90 1    
   176   89  210 1    
   177   90   91 1    
   178   90   92 1    
   179   90  211 1    
   180   91  212 1    
   181   91  213 1    
   182   91  214 1    
   183   92   93 2    
   184   92   94 am   BACKBONE|DICT|INTERRES
   185   94   95 1    
   186   94  215 1    
   187   95   96 1    
   188   95   97 1    
   189   95  216 1    
   190   96  217 1    
   191   96  218 1    
   192   96  219 1    
   193   97   98 2    
   194   97   99 am   BACKBONE|DICT|INTERRES
   195   99  100 1    
   196   99  220 1    
   197  100  101 1    
   198  100  102 1    
   199  100  221 1    
   200  101  222 1    
   201  101  223 1    
   202  101  224 1    
   203  102  103 2    
   204  102  104 am   BACKBONE|DICT|INTERRES
   205  104  105 1    
   206  104  225 1    
   207  105  106 1    
   208  105  107 1    
   209  105  226 1    
   210  106  227 1    
   211  106  228 1    
   212  106  229 1    
   213  107  108 2    
   214  107  109 am   BACKBONE|DICT|INTERRES
   215  109  110 1    
   216  109  230 1    
   217  110  111 1    
   218  110  112 1    
   219  110  231 1    
   220  111  232 1    
   221  111  233 1    
   222  111  234 1    
   223  112  113 2    
   224  112  114 am   BACKBONE|DICT|INTERRES
   225  114  115 1    
   226  114  235 1    
   227  115  116 1    
   228  115  117 1    
   229  115  236 1    
   230  116  237 1    
   231  116  238 1    
   232  116  239 1    
   233  117  118 2    
   234  117  119 am   BACKBONE|DICT|INTERRES
   235  119  120 1    
   236  119  240 1    
   237  120  121 1    
   238  120  124 1    
   239  120  241 1    
   240  121  122 am   BACKBONE|DICT|INTERRES
   241  121  123 2    
   242  122  242 1    
   243  122  243 1    
   244  124  125 1    
   245  124  244 1    
   246  124  245 1    
   247  125  126 1    
   248  126  246 1    
   249  126  247 1    
@<TRIPOS>SUBSTRUCTURE
     1 UNK         1 GROUP             0       ****    0 ROOT    
