@<TRIPOS>MOLECULE
3R540
247   249    1
SMALL
USER_CHARGES


@<TRIPOS>ATOM
      1 CA         -7.1404  -15.3294  -50.3319 C.3       0 UNK        -0.1800 
      2 C          -5.7951  -15.4516  -49.6328 C.2       0 UNK         0.5000 
      3 O          -5.7497  -15.5559  -48.4070 O.2       0 UNK        -0.5000 
      4 N          -4.6977  -15.4236  -50.3992 N.am      1 UNK        -0.5000 
      5 CA         -3.2898  -15.5422  -49.9882 C.3       1 UNK         0.1400 
      6 C6         -2.9650  -16.8690  -49.2347 C.3       23 UNK        -0.0398 
      7 S7         -1.8713  -17.9620  -50.1930 S.3       23 UNK        -0.2404 
      8 C8         -0.2534  -17.6243  -49.4331 C.3       23 UNK        -0.0205 
      9 C9          0.8157  -18.4905  -50.0739 C.ar      23 UNK        -0.0193 
     10 C10         1.7749  -17.9271  -50.9169 C.ar      23 UNK        -0.1150 
     11 C11         2.7252  -18.7346  -51.5474 C.ar      23 UNK        -0.0193 
     12 C12         2.7120  -20.1168  -51.3291 C.ar      23 UNK        -0.1150 
     13 C13         1.7502  -20.6926  -50.4938 C.ar      23 UNK        -0.0193 
     14 C14         0.8181  -19.8697  -49.8557 C.ar      23 UNK        -0.1150 
     15 C15         1.6549  -22.2063  -50.3515 C.3       23 UNK        -0.0205 
     16 S16         2.8065  -22.9009  -49.1231 S.3       23 UNK        -0.2404 
     17 C17         2.2346  -22.1651  -47.5560 C.3       23 UNK        -0.0398 
     18 CA          1.1702  -23.0086  -46.8071 C.3       11 UNK         0.1400 
     19 N           1.2261  -22.7824  -45.3610 N.am      11 UNK        -0.5000 
     20 C           0.4863  -23.4148  -44.4385 C.2       10 UNK         0.5000 
     21 O          -0.2834  -24.3423  -44.6895 O.2       10 UNK        -0.5000 
     22 CA          0.5782  -22.8690  -43.0015 C.3       10 UNK         0.1400 
     23 CB          1.8071  -23.4294  -42.2701 C.3       10 UNK        -0.1800 
     24 N           0.6114  -21.4048  -42.9792 N.am      10 UNK        -0.5000 
     25 C          -0.4198  -20.6252  -43.3368 C.2       9 UNK         0.5000 
     26 O          -1.5292  -21.0606  -43.6428 O.2       9 UNK        -0.5000 
     27 CA         -0.1500  -19.1135  -43.4193 C.3       9 UNK         0.1400 
     28 CB         -0.3135  -18.4524  -42.0437 C.3       9 UNK        -0.1800 
     29 N           1.1794  -18.8265  -43.9626 N.am      9 UNK        -0.5000 
     30 C           1.5092  -19.0117  -45.2506 C.2       8 UNK         0.5000 
     31 O           0.7150  -19.4080  -46.1014 O.2       8 UNK        -0.5000 
     32 CA          2.9702  -18.7479  -45.6620 C.3       8 UNK         0.1400 
     33 CB          3.1577  -17.2896  -46.1030 C.3       8 UNK        -0.1800 
     34 N           3.9309  -19.0618  -44.6062 N.am      8 UNK        -0.5000 
     35 C           4.1217  -20.2817  -44.0854 C.2       7 UNK         0.5000 
     36 O           3.5395  -21.2896  -44.4840 O.2       7 UNK        -0.5000 
     37 CA          5.0801  -20.3857  -42.8843 C.3       7 UNK         0.1400 
     38 CB          6.4890  -20.7752  -43.3547 C.3       7 UNK        -0.1800 
     39 N           5.1598  -19.1586  -42.0843 N.am      7 UNK        -0.5000 
     40 C           4.1303  -18.5892  -41.4415 C.2       6 UNK         0.5000 
     41 O           2.9865  -19.0504  -41.4613 O.2       6 UNK        -0.5000 
     42 CA          4.4469  -17.3097  -40.6392 C.3       6 UNK         0.1400 
     43 CB          5.3581  -16.3290  -41.4116 C.3       6 UNK        -0.1800 
     44 N           3.2457  -16.6273  -40.1438 N.am      6 UNK        -0.5000 
     45 C           2.3032  -15.9933  -40.8565 C.2       5 UNK         0.5000 
     46 O           2.3119  -15.8788  -42.0862 O.2       5 UNK        -0.5000 
     47 CA          1.1648  -15.3656  -40.0344 C.3       5 UNK         0.1400 
     48 CB          1.6965  -14.3133  -39.0388 C.3       5 UNK        -0.1800 
     49 N           0.1905  -14.7422  -40.9252 N.am      5 UNK        -0.5000 
     50 C          -1.0856  -14.4800  -40.6179 C.2       4 UNK         0.5000 
     51 O          -1.5994  -14.7814  -39.5396 O.2       4 UNK        -0.5000 
     52 CA         -1.9348  -13.7365  -41.6689 C.3       4 UNK         0.1400 
     53 CB         -2.1159  -12.2647  -41.2648 C.3       4 UNK        -0.1800 
     54 N          -1.3748  -13.7828  -43.0209 N.am      4 UNK        -0.5000 
     55 C          -1.4537  -14.8401  -43.8354 C.2       3 UNK         0.5000 
     56 O          -2.0236  -15.8920  -43.5423 O.2       3 UNK        -0.5000 
     57 CA         -0.8349  -14.6623  -45.2292 C.3       3 UNK         0.1400 
     58 CB         -0.2505  -15.9725  -45.7735 C.3       3 UNK        -0.1800 
     59 N          -1.8576  -14.1879  -46.1508 N.am      3 UNK        -0.5000 
     60 C          -2.1481  -12.9042  -46.3933 C.2       2 UNK         0.5000 
     61 O          -1.5702  -11.9648  -45.8434 O.2       2 UNK        -0.5000 
     62 CA         -3.2817  -12.6301  -47.4077 C.3       2 UNK         0.1400 
     63 CB         -3.0598  -11.3313  -48.2102 C.3       2 UNK        -0.1800 
     64 N          -3.5601  -13.7612  -48.3043 N.am      2 UNK        -0.5000 
     65 C          -2.7528  -14.3105  -49.2244 C.2       1 UNK         0.5000 
     66 O          -1.6204  -13.8982  -49.4753 O.2       1 UNK        -0.5000 
     67 C          -0.2508  -22.7593  -47.3556 C.2       11 UNK         0.5000 
     68 O          -0.7985  -23.6250  -48.0382 O.2       11 UNK        -0.5000 
     69 N          -0.8403  -21.6056  -47.0040 N.am      12 UNK        -0.5000 
     70 CA         -2.2053  -21.2212  -47.3618 C.3       12 UNK         0.1400 
     71 CB         -2.5016  -19.7952  -46.8755 C.3       12 UNK        -0.1800 
     72 C          -3.2571  -22.1979  -46.8172 C.2       12 UNK         0.5000 
     73 O          -4.1392  -22.6020  -47.5709 O.2       12 UNK        -0.5000 
     74 N          -3.1287  -22.5902  -45.5423 N.am      13 UNK        -0.5000 
     75 CA         -4.0076  -23.5579  -44.8832 C.3       13 UNK         0.1400 
     76 CB         -3.6421  -23.6586  -43.3947 C.3       13 UNK        -0.1800 
     77 C          -3.9852  -24.9472  -45.5480 C.2       13 UNK         0.5000 
     78 O          -5.0425  -25.5585  -45.7053 O.2       13 UNK        -0.5000 
     79 N          -2.7925  -25.4037  -45.9539 N.am      14 UNK        -0.5000 
     80 CA         -2.5925  -26.6583  -46.6786 C.3       14 UNK         0.1400 
     81 CB         -1.0967  -27.0099  -46.6827 C.3       14 UNK        -0.1800 
     82 C          -3.1464  -26.6130  -48.1157 C.2       14 UNK         0.5000 
     83 O          -3.7663  -27.5803  -48.5593 O.2       14 UNK        -0.5000 
     84 N          -2.9131  -25.4952  -48.8153 N.am      15 UNK        -0.5000 
     85 CA         -3.2983  -25.2916  -50.2137 C.3       15 UNK         0.1400 
     86 CB         -2.3677  -24.2332  -50.8200 C.3       15 UNK        -0.1800 
     87 C          -4.7698  -24.8772  -50.4170 C.2       15 UNK         0.5000 
     88 O          -5.2342  -24.8788  -51.5575 O.2       15 UNK        -0.5000 
     89 N          -5.4595  -24.5017  -49.3307 N.am      16 UNK        -0.5000 
     90 CA         -6.7998  -23.9022  -49.2861 C.3       16 UNK         0.1400 
     91 CB         -7.8723  -24.8501  -49.8632 C.3       16 UNK        -0.1800 
     92 C          -6.8374  -22.4828  -49.8984 C.2       16 UNK         0.5000 
     93 O          -7.8416  -22.0873  -50.4939 O.2       16 UNK        -0.5000 
     94 N          -5.7372  -21.7423  -49.7031 N.am      17 UNK        -0.5000 
     95 CA         -5.4576  -20.3374  -50.0201 C.3       17 UNK         0.1400 
     96 CB         -6.3615  -19.4068  -49.1921 C.3       17 UNK        -0.1800 
     97 C          -5.4876  -19.9457  -51.5100 C.2       17 UNK         0.5000 
     98 O          -4.5540  -19.2871  -51.9665 O.2       17 UNK        -0.5000 
     99 N          -6.5561  -20.3191  -52.2277 N.am      18 UNK        -0.5000 
    100 CA        -6.9094  -19.8756  -53.5823 C.3       18 UNK         0.1400 
    101 CB        -5.9221  -20.4647  -54.6160 C.3       18 UNK        -0.1800 
    102 C         -7.0432  -18.3345  -53.6482 C.2       18 UNK         0.5000 
    103 O         -7.5075  -17.7282  -52.6799 O.2       18 UNK        -0.5000 
    104 N         -6.6267  -17.7179  -54.7634 N.am      19 UNK        -0.5000 
    105 CA        -6.3413  -16.2809  -54.8282 C.3       19 UNK         0.1400 
    106 CB        -6.3271  -15.8150  -56.2930 C.3       19 UNK        -0.1800 
    107 C         -4.9978  -15.9977  -54.1304 C.2       19 UNK         0.5000 
    108 O         -4.9319  -15.1794  -53.2130 O.2       19 UNK        -0.5000 
    109 N         -3.9766  -16.7561  -54.5370 N.am      20 UNK        -0.5000 
    110 CA        -2.7113  -16.9567  -53.8503 C.3       20 UNK         0.1400 
    111 CB        -1.7394  -15.7945  -54.1123 C.3       20 UNK        -0.1800 
    112 C         -2.1705  -18.2885  -54.3775 C.2       20 UNK         0.5000 
    113 O         -2.1303  -18.4785  -55.5961 O.2       20 UNK        -0.5000 
    114 N         -1.8123  -19.2023  -53.4713 N.am      21 UNK        -0.5000 
    115 CA        -1.5216  -20.6032  -53.7845 C.3       21 UNK         0.1400 
    116 CB        -1.3792  -21.3855  -52.4766 C.3       21 UNK        -0.1800 
    117 C         -0.3053  -20.8295  -54.7030 C.2       21 UNK         0.5000 
    118 O         -0.3028  -21.8009  -55.4605 O.2       21 UNK        -0.5000 
    119 N          0.6825  -19.9276  -54.6480 N.am      22 UNK        -0.5000 
    120 CA         1.8206  -19.8881  -55.5813 C.3       22 UNK         0.1400 
    121 C          1.5406  -19.1258  -56.9128 C.2       22 UNK         0.5000 
    122 N          0.3515  -18.5818  -57.1469 N.am      22 UNK        -0.7600 
    123 O          2.4173  -19.0439  -57.7691 O.2       22 UNK        -0.5000 
    124 C124        3.1320  -19.4296  -54.8921 C.3       23 UNK        -0.0398 
    125 S125        3.0542  -17.7726  -54.1249 S.3       23 UNK        -0.2404 
    126 C126        3.7506  -18.1017  -52.4739 C.3       23 UNK        -0.0205 
    127 H127       -7.6979  -14.4828  -49.9316 H         1 UNK         0.0600 
    128 H128       -7.7274  -16.2339  -50.1726 H         1 UNK         0.0600 
    129 H129       -7.0272  -15.1850  -51.4065 H         1 UNK         0.0600 
    130 H130       -4.8229  -15.3051  -51.4042 H         1 UNK         0.3000 
    131 H131       -2.7465  -15.5338  -50.9340 H         1 UNK         0.0600 
    132 H132       -3.8710  -17.4405  -49.0347 H         1 UNK         0.0800 
    133 H133       -2.5229  -16.7002  -48.2512 H         1 UNK         0.0800 
    134 H134       -0.2810  -17.8246  -48.3623 H         1 UNK         0.0800 
    135 H135       -0.0163  -16.5651  -49.5460 H         1 UNK         0.0800 
    136 H136        1.7729  -16.8616  -51.0992 H         1 UNK         0.1150 
    137 H137        3.4334  -20.7497  -51.8259 H         1 UNK         0.1150 
    138 H138        0.0565  -20.3041  -49.2258 H         1 UNK         0.1150 
    139 H139        0.6342  -22.5017  -50.1070 H         1 UNK         0.0800 
    140 H140        1.8658  -22.6670  -51.3176 H         1 UNK         0.0800 
    141 H141        1.9100  -21.1375  -47.7101 H         1 UNK         0.0800 
    142 H142        3.1314  -22.0879  -46.9413 H         1 UNK         0.0800 
    143 H143        1.3989  -24.0658  -46.9580 H         1 UNK         0.0600 
    144 H144        1.8845  -22.0778  -45.0414 H         1 UNK         0.3000 
    145 H145       -0.3136  -23.1957  -42.4626 H         1 UNK         0.0600 
    146 H146        1.8474  -23.0759  -41.2397 H         1 UNK         0.0600 
    147 H147        1.7755  -24.5192  -42.2389 H         1 UNK         0.0600 
    148 H148        2.7386  -23.1441  -42.7587 H         1 UNK         0.0600 
    149 H149        1.4937  -20.9663  -42.7560 H         1 UNK         0.3000 
    150 H150       -0.8939  -18.6759  -44.0886 H         1 UNK         0.0600 
    151 H151       -1.3247  -18.5977  -41.6620 H         1 UNK         0.0600 
    152 H152       -0.1447  -17.3784  -42.1060 H         1 UNK         0.0600 
    153 H153        0.3771  -18.8617  -41.3068 H         1 UNK         0.0600 
    154 H154        1.8884  -18.5364  -43.2999 H         1 UNK         0.3000 
    155 H155        3.1927  -19.3897  -46.5165 H         1 UNK         0.0600 
    156 H156        2.9815  -16.5939  -45.2814 H         1 UNK         0.0600 
    157 H157        2.4674  -17.0348  -46.9085 H         1 UNK         0.0600 
    158 H158        4.1668  -17.1179  -46.4776 H         1 UNK         0.0600 
    159 H159        4.4430  -18.2873  -44.2109 H         1 UNK         0.3000 
    160 H160        4.7030  -21.1801  -42.2370 H         1 UNK         0.0600 
    161 H161        6.9311  -20.0027  -43.9852 H         1 UNK         0.0600 
    162 H162        6.4655  -21.6989  -43.9348 H         1 UNK         0.0600 
    163 H163        7.1559  -20.9421  -42.5087 H         1 UNK         0.0600 
    164 H164        6.0713  -18.7299  -42.0146 H         1 UNK         0.3000 
    165 H165        4.9895  -17.6359  -39.7509 H         1 UNK         0.0600 
    166 H166        5.4954  -15.4009  -40.8564 H         1 UNK         0.0600 
    167 H167        6.3510  -16.7491  -41.5734 H         1 UNK         0.0600 
    168 H168        4.9474  -16.0738  -42.3890 H         1 UNK         0.0600 
    169 H169        3.1130  -16.6876  -39.1443 H         1 UNK         0.3000 
    170 H170        0.6776  -16.1739  -39.4850 H         1 UNK         0.0600 
    171 H171        2.3978  -14.7503  -38.3277 H         1 UNK         0.0600 
    172 H172        2.2127  -13.5025  -39.5544 H         1 UNK         0.0600 
    173 H173        0.8881  -13.8737  -38.4544 H         1 UNK         0.0600 
    174 H174        0.5392  -14.5326  -41.8512 H         1 UNK         0.3000 
    175 H175       -2.9206  -14.2067  -41.6832 H         1 UNK         0.0600 
    176 H176       -1.1626  -11.7355  -41.2351 H         1 UNK         0.0600 
    177 H177       -2.7698  -11.7413  -41.9626 H         1 UNK         0.0600 
    178 H178       -2.5675  -12.1828  -40.2752 H         1 UNK         0.0600 
    179 H179       -0.9342  -12.9380  -43.3583 H         1 UNK         0.3000 
    180 H180       -0.0199  -13.9377  -45.1660 H         1 UNK         0.0600 
    181 H181       -1.0045  -16.7539  -45.8776 H         1 UNK         0.0600 
    182 H182        0.5177  -16.3400  -45.0956 H         1 UNK         0.0600 
    183 H183        0.2153  -15.8227  -46.7474 H         1 UNK         0.0600 
    184 H184       -2.4227  -14.8939  -46.5962 H         1 UNK         0.3000 
    185 H185       -4.1851  -12.4941  -46.8116 H         1 UNK         0.0600 
    186 H186       -3.0165  -10.4650  -47.5491 H         1 UNK         0.0600 
    187 H187       -2.1271  -11.3566  -48.7741 H         1 UNK         0.0600 
    188 H188       -3.8737  -11.1590  -48.9144 H         1 UNK         0.0600 
    189 H189       -4.4603  -14.2170  -48.1713 H         1 UNK         0.3000 
    190 H190       -0.3055  -20.9184  -46.4781 H         1 UNK         0.3000 
    191 H191       -2.2720  -21.2291  -48.4518 H         1 UNK         0.0600 
    192 H192       -2.4756  -19.7220  -45.7886 H         1 UNK         0.0600 
    193 H193       -3.4892  -19.4683  -47.2033 H         1 UNK         0.0600 
    194 H194       -1.7783  -19.0859  -47.2692 H         1 UNK         0.0600 
    195 H195       -2.3998  -22.1727  -44.9703 H         1 UNK         0.3000 
    196 H196       -5.0278  -23.1755  -44.9555 H         1 UNK         0.0600 
    197 H197       -4.3006  -24.3569  -42.8767 H         1 UNK         0.0600 
    198 H198       -3.7383  -22.6923  -42.8993 H         1 UNK         0.0600 
    199 H199       -2.6185  -24.0059  -43.2540 H         1 UNK         0.0600 
    200 H200       -1.9627  -24.8559  -45.7493 H         1 UNK         0.3000 
    201 H201       -3.1228  -27.4481  -46.1423 H         1 UNK         0.0600 
    202 H202       -0.7162  -27.1204  -45.6671 H         1 UNK         0.0600 
    203 H203       -0.5026  -26.2413  -47.1784 H         1 UNK         0.0600 
    204 H204       -0.9173  -27.9517  -47.2026 H         1 UNK         0.0600 
    205 H205       -2.3473  -24.7639  -48.3925 H         1 UNK         0.3000 
    206 H206       -3.1463  -26.2255  -50.7589 H         1 UNK         0.0600 
    207 H207       -1.3228  -24.5368  -50.7516 H         1 UNK         0.0600 
    208 H208       -2.5936  -24.0784  -51.8754 H         1 UNK         0.0600 
    209 H209       -2.4715  -23.2736  -50.3120 H         1 UNK         0.0600 
    210 H210       -4.9518  -24.4804  -48.4547 H         1 UNK         0.3000 
    211 H211       -7.0243  -23.7708  -48.2266 H         1 UNK         0.0600 
    212 H212       -7.7827  -24.9600  -50.9440 H         1 UNK         0.0600 
    213 H213       -8.8745  -24.4716  -49.6592 H         1 UNK         0.0600 
    214 H214       -7.8036  -25.8419  -49.4165 H         1 UNK         0.0600 
    215 H215       -5.0162  -22.1863  -49.1390 H         1 UNK         0.3000 
    216 H216       -4.4326  -20.1683  -49.6854 H         1 UNK         0.0600 
    217 H217       -6.1270  -18.3613  -49.3887 H         1 UNK         0.0600 
    218 H218       -6.2270  -19.5753  -48.1236 H         1 UNK         0.0600 
    219 H219       -7.4166  -19.5503  -49.4263 H         1 UNK         0.0600 
    220 H220       -7.2566  -20.8725  -51.7394 H         1 UNK         0.3000 
    221 H221       -7.8996  -20.2823  -53.7908 H         1 UNK         0.0600 
    222 H222       -4.9270  -20.0267  -54.5282 H         1 UNK         0.0600 
    223 H223       -5.8189  -21.5420  -54.4849 H         1 UNK         0.0600 
    224 H224       -6.2702  -20.3021  -55.6364 H         1 UNK         0.0600 
    225 H225       -6.2935  -18.2842  -55.5293 H         1 UNK         0.3000 
    226 H226       -7.1240  -15.7287  -54.3033 H         1 UNK         0.0600 
    227 H227       -7.2980  -15.9726  -56.7630 H         1 UNK         0.0600 
    228 H228       -6.1038  -14.7494  -56.3590 H         1 UNK         0.0600 
    229 H229       -5.5799  -16.3445  -56.8851 H         1 UNK         0.0600 
    230 H230       -4.1134  -17.3917  -55.3114 H         1 UNK         0.3000 
    231 H231       -2.9045  -17.0432  -52.7807 H         1 UNK         0.0600 
    232 H232       -2.1373  -14.8527  -53.7346 H         1 UNK         0.0600 
    233 H233       -1.5381  -15.6714  -55.1771 H         1 UNK         0.0600 
    234 H234       -0.7853  -15.9685  -53.6131 H         1 UNK         0.0600 
    235 H235       -1.9124  -18.9766  -52.4898 H         1 UNK         0.3000 
    236 H236       -2.3905  -21.0020  -54.3124 H         1 UNK         0.0600 
    237 H237       -1.0890  -22.4191  -52.6655 H         1 UNK         0.0600 
    238 H238       -0.6200  -20.9434  -51.8390 H         1 UNK         0.0600 
    239 H239       -2.3177  -21.3954  -51.9219 H         1 UNK         0.0600 
    240 H240        0.6082  -19.1554  -54.0016 H         1 UNK         0.3000 
    241 H241        2.0130  -20.9128  -55.9047 H         1 UNK         0.0600 
    242 H242        0.1977  -18.1031  -58.0198 H         1 UNK         0.3800 
    243 H243       -0.4124  -18.6542  -56.4823 H         1 UNK         0.3800 
    244 H244        3.4014  -20.1658  -54.1357 H         1 UNK         0.0800 
    245 H245        3.9617  -19.4378  -55.6008 H         1 UNK         0.0800 
    246 H246        4.0907  -17.1586  -52.0436 H         1 UNK         0.0800 
    247 H247        4.6381  -18.7305  -52.5609 H         1 UNK         0.0800 
@<TRIPOS>BOND
     1    1    2 1    
     2    1  127 1    
     3    1  128 1    
     4    1  129 1    
     5    2    3 2    
     6    2    4 am   BACKBONE|DICT|INTERRES
     7    4    5 1    
     8    4  130 1    
     9    5    6 1    
    10    5   65 1    
    11    5  131 1    
    12    6    7 1    
    13    6  132 1    
    14    6  133 1    
    15    7    8 1    
    16    8    9 1    
    17    8  134 1    
    18    8  135 1    
    19    9   10 ar   
    20    9   14 ar   
    21   10   11 ar   
    22   10  136 1    
    23   11   12 ar   
    24   11  126 1    
    25   12   13 ar   
    26   12  137 1    
    27   13   14 ar   
    28   13   15 1    
    29   14  138 1    
    30   15   16 1    
    31   15  139 1    
    32   15  140 1    
    33   16   17 1    
    34   17   18 1    
    35   17  141 1    
    36   17  142 1    
    37   18   19 1    
    38   18   67 1    
    39   18  143 1    
    40   19   20 am   BACKBONE|DICT|INTERRES
    41   19  144 1    
    42   20   21 2    
    43   20   22 1    
    44   22   23 1    
    45   22   24 1    
    46   22  145 1    
    47   23  146 1    
    48   23  147 1    
    49   23  148 1    
    50   24   25 am   BACKBONE|DICT|INTERRES
    51   24  149 1    
    52   25   26 2    
    53   25   27 1    
    54   27   28 1    
    55   27   29 1    
    56   27  150 1    
    57   28  151 1    
    58   28  152 1    
    59   28  153 1    
    60   29   30 am   BACKBONE|DICT|INTERRES
    61   29  154 1    
    62   30   31 2    
    63   30   32 1    
    64   32   33 1    
    65   32   34 1    
    66   32  155 1    
    67   33  156 1    
    68   33  157 1    
    69   33  158 1    
    70   34   35 am   BACKBONE|DICT|INTERRES
    71   34  159 1    
    72   35   36 2    
    73   35   37 1    
    74   37   38 1    
    75   37   39 1    
    76   37  160 1    
    77   38  161 1    
    78   38  162 1    
    79   38  163 1    
    80   39   40 am   BACKBONE|DICT|INTERRES
    81   39  164 1    
    82   40   41 2    
    83   40   42 1    
    84   42   43 1    
    85   42   44 1    
    86   42  165 1    
    87   43  166 1    
    88   43  167 1    
    89   43  168 1    
    90   44   45 am   BACKBONE|DICT|INTERRES
    91   44  169 1    
    92   45   46 2    
    93   45   47 1    
    94   47   48 1    
    95   47   49 1    
    96   47  170 1    
    97   48  171 1    
    98   48  172 1    
    99   48  173 1    
   100   49   50 am   BACKBONE|DICT|INTERRES
   101   49  174 1    
   102   50   51 2    
   103   50   52 1    
   104   52   53 1    
   105   52   54 1    
   106   52  175 1    
   107   53  176 1    
   108   53  177 1    
   109   53  178 1    
   110   54   55 am   BACKBONE|DICT|INTERRES
   111   54  179 1    
   112   55   56 2    
   113   55   57 1    
   114   57   58 1    
   115   57   59 1    
   116   57  180 1    
   117   58  181 1    
   118   58  182 1    
   119   58  183 1    
   120   59   60 am   BACKBONE|DICT|INTERRES
   121   59  184 1    
   122   60   61 2    
   123   60   62 1    
   124   62   63 1    
   125   62   64 1    
   126   62  185 1    
   127   63  186 1    
   128   63  187 1    
   129   63  188 1    
   130   64   65 am   BACKBONE|DICT|INTERRES
   131   64  189 1    
   132   65   66 2    
   133   67   68 2    
   134   67   69 am   BACKBONE|DICT|INTERRES
   135   69   70 1    
   136   69  190 1    
   137   70   71 1    
   138   70   72 1    
   139   70  191 1    
   140   71  192 1    
   141   71  193 1    
   142   71  194 1    
   143   72   73 2    
   144   72   74 am   BACKBONE|DICT|INTERRES
   145   74   75 1    
   146   74  195 1    
   147   75   76 1    
   148   75   77 1    
   149   75  196 1    
   150   76  197 1    
   151   76  198 1    
   152   76  199 1    
   153   77   78 2    
   154   77   79 am   BACKBONE|DICT|INTERRES
   155   79   80 1    
   156   79  200 1    
   157   80   81 1    
   158   80   82 1    
   159   80  201 1    
   160   81  202 1    
   161   81  203 1    
   162   81  204 1    
   163   82   83 2    
   164   82   84 am   BACKBONE|DICT|INTERRES
   165   84   85 1    
   166   84  205 1    
   167   85   86 1    
   168   85   87 1    
   169   85  206 1    
   170   86  207 1    
   171   86  208 1    
   172   86  209 1    
   173   87   88 2    
   174   87   89 am   BACKBONE|DICT|INTERRES
   175   89   90 1    
   176   89  210 1    
   177   90   91 1    
   178   90   92 1    
   179   90  211 1    
   180   91  212 1    
   181   91  213 1    
   182   91  214 1    
   183   92   93 2    
   184   92   94 am   BACKBONE|DICT|INTERRES
   185   94   95 1    
   186   94  215 1    
   187   95   96 1    
   188   95   97 1    
   189   95  216 1    
   190   96  217 1    
   191   96  218 1    
   192   96  219 1    
   193   97   98 2    
   194   97   99 am   BACKBONE|DICT|INTERRES
   195   99  100 1    
   196   99  220 1    
   197  100  101 1    
   198  100  102 1    
   199  100  221 1    
   200  101  222 1    
   201  101  223 1    
   202  101  224 1    
   203  102  103 2    
   204  102  104 am   BACKBONE|DICT|INTERRES
   205  104  105 1    
   206  104  225 1    
   207  105  106 1    
   208  105  107 1    
   209  105  226 1    
   210  106  227 1    
   211  106  228 1    
   212  106  229 1    
   213  107  108 2    
   214  107  109 am   BACKBONE|DICT|INTERRES
   215  109  110 1    
   216  109  230 1    
   217  110  111 1    
   218  110  112 1    
   219  110  231 1    
   220  111  232 1    
   221  111  233 1    
   222  111  234 1    
   223  112  113 2    
   224  112  114 am   BACKBONE|DICT|INTERRES
   225  114  115 1    
   226  114  235 1    
   227  115  116 1    
   228  115  117 1    
   229  115  236 1    
   230  116  237 1    
   231  116  238 1    
   232  116  239 1    
   233  117  118 2    
   234  117  119 am   BACKBONE|DICT|INTERRES
   235  119  120 1    
   236  119  240 1    
   237  120  121 1    
   238  120  124 1    
   239  120  241 1    
   240  121  122 am   BACKBONE|DICT|INTERRES
   241  121  123 2    
   242  122  242 1    
   243  122  243 1    
   244  124  125 1    
   245  124  244 1    
   246  124  245 1    
   247  125  126 1    
   248  126  246 1    
   249  126  247 1    
@<TRIPOS>SUBSTRUCTURE
     1 UNK         1 GROUP             0       ****    0 ROOT    
