@<TRIPOS>MOLECULE
3R540
247   249    1
SMALL
USER_CHARGES


@<TRIPOS>ATOM
      1 CA         -2.1663  -13.5213  -42.3543 C.3       0 UNK        -0.1800 
      2 C          -2.4892  -12.7588  -43.6315 C.2       0 UNK         0.5000 
      3 O          -2.9459  -11.6169  -43.5694 O.2       0 UNK        -0.5000 
      4 N          -2.2491  -13.3818  -44.7906 N.am      1 UNK        -0.5000 
      5 CA         -2.4943  -12.8497  -46.1356 C.3       1 UNK         0.1400 
      6 C6         -2.7269  -13.9877  -47.1672 C.3       23 UNK        -0.0398 
      7 S7         -1.4769  -15.3176  -47.1139 S.3       23 UNK        -0.2404 
      8 C8         -1.6446  -16.0354  -48.7842 C.3       23 UNK        -0.0205 
      9 C9         -0.5486  -17.0286  -49.1786 C.ar      23 UNK        -0.0193 
     10 C10        -0.3430  -17.2869  -50.5378 C.ar      23 UNK        -0.1150 
     11 C11         0.6633  -18.1615  -50.9557 C.ar      23 UNK        -0.0193 
     12 C12         1.4723  -18.7862  -50.0049 C.ar      23 UNK        -0.1150 
     13 C13         1.2704  -18.5591  -48.6426 C.ar      23 UNK        -0.0193 
     14 C14         0.2561  -17.6865  -48.2367 C.ar      23 UNK        -0.1150 
     15 C15         2.1553  -19.2499  -47.6121 C.3       23 UNK        -0.0205 
     16 S16         1.9919  -21.0672  -47.6459 S.3       23 UNK        -0.2404 
     17 C17         0.1847  -21.2850  -47.5413 C.3       23 UNK        -0.0398 
     18 CA         -0.2213  -22.6588  -46.9656 C.3       11 UNK         0.1400 
     19 N           0.2469  -22.8586  -45.5902 N.am      11 UNK        -0.5000 
     20 C           0.1944  -24.0283  -44.9382 C.2       10 UNK         0.5000 
     21 O          -0.2216  -25.0709  -45.4410 O.2       10 UNK        -0.5000 
     22 CA          0.6184  -24.0195  -43.4612 C.3       10 UNK         0.1400 
     23 CB          2.1459  -24.1033  -43.3232 C.3       10 UNK        -0.1800 
     24 N           0.1149  -22.8344  -42.7671 N.am      10 UNK        -0.5000 
     25 C          -1.1728  -22.6441  -42.4451 C.2       9 UNK         0.5000 
     26 O          -2.0595  -23.4676  -42.6697 O.2       9 UNK        -0.5000 
     27 CA         -1.5390  -21.2900  -41.8073 C.3       9 UNK         0.1400 
     28 CB         -1.2816  -21.3167  -40.2936 C.3       9 UNK        -0.1800 
     29 N          -0.8128  -20.1677  -42.4040 N.am      9 UNK        -0.5000 
     30 C          -0.9502  -19.7725  -43.6773 C.2       8 UNK         0.5000 
     31 O          -1.7447  -20.2798  -44.4658 O.2       8 UNK        -0.5000 
     32 CA         -0.0034  -18.6690  -44.1780 C.3       8 UNK         0.1400 
     33 CB         -0.6482  -17.2874  -44.0227 C.3       8 UNK        -0.1800 
     34 N           1.3241  -18.6827  -43.5516 N.am      8 UNK        -0.5000 
     35 C           2.1749  -19.7207  -43.6066 C.2       7 UNK         0.5000 
     36 O           1.8971  -20.7814  -44.1682 O.2       7 UNK        -0.5000 
     37 CA          3.5275  -19.5799  -42.8749 C.3       7 UNK         0.1400 
     38 CB          4.6294  -20.4742  -43.4819 C.3       7 UNK        -0.1800 
     39 N           3.9834  -18.1928  -42.7318 N.am      7 UNK        -0.5000 
     40 C           4.3500  -17.3533  -43.7102 C.2       6 UNK         0.5000 
     41 O           4.3954  -17.6501  -44.9051 O.2       6 UNK        -0.5000 
     42 CA          4.6985  -15.9192  -43.2648 C.3       6 UNK         0.1400 
     43 CB          6.0616  -15.4743  -43.8193 C.3       6 UNK        -0.1800 
     44 N           3.6763  -14.9657  -43.6908 N.am      6 UNK        -0.5000 
     45 C           2.3845  -14.9978  -43.3345 C.2       5 UNK         0.5000 
     46 O           1.9188  -15.7978  -42.5207 O.2       5 UNK        -0.5000 
     47 CA          1.4489  -13.9707  -44.0050 C.3       5 UNK         0.1400 
     48 CB          1.2765  -12.7478  -43.0936 C.3       5 UNK        -0.1800 
     49 N           1.8680  -13.5332  -45.3429 N.am      5 UNK        -0.5000 
     50 C           2.0665  -14.3424  -46.3989 C.2       4 UNK         0.5000 
     51 O           1.9349  -15.5637  -46.3411 O.2       4 UNK        -0.5000 
     52 CA          2.5032  -13.7001  -47.7322 C.3       4 UNK         0.1400 
     53 CB          1.7142  -14.2558  -48.9287 C.3       4 UNK        -0.1800 
     54 N           2.3651  -12.2449  -47.7228 N.am      4 UNK        -0.5000 
     55 C           3.3636  -11.3776  -47.5115 C.2       3 UNK         0.5000 
     56 O           4.5282  -11.7167  -47.2994 O.2       3 UNK        -0.5000 
     57 CA          3.0086   -9.8762  -47.5270 C.3       3 UNK         0.1400 
     58 CB          3.4002   -9.2463  -48.8725 C.3       3 UNK        -0.1800 
     59 N           1.5940   -9.5956  -47.2682 N.am      3 UNK        -0.5000 
     60 C           0.9618   -9.8422  -46.1136 C.2       2 UNK         0.5000 
     61 O           1.5201  -10.3331  -45.1327 O.2       2 UNK        -0.5000 
     62 CA         -0.5421   -9.5079  -46.0357 C.3       2 UNK         0.1400 
     63 CB         -1.0771   -8.7165  -47.2507 C.3       2 UNK        -0.1800 
     64 N          -1.3648  -10.7004  -45.8123 N.am      2 UNK        -0.5000 
     65 C          -1.4273  -11.8105  -46.5621 C.2       1 UNK         0.5000 
     66 O          -0.7068  -12.0113  -47.5422 O.2       1 UNK        -0.5000 
     67 C          -1.7444  -22.8738  -47.1020 C.2       11 UNK         0.5000 
     68 O          -2.1920  -23.3770  -48.1330 O.2       11 UNK        -0.5000 
     69 N          -2.5164  -22.5026  -46.0711 N.am      12 UNK        -0.5000 
     70 CA         -3.9543  -22.7502  -45.9801 C.3       12 UNK         0.1400 
     71 CB         -4.5707  -21.8680  -44.8857 C.3       12 UNK        -0.1800 
     72 C          -4.2700  -24.2346  -45.7354 C.2       12 UNK         0.5000 
     73 O          -5.1771  -24.7643  -46.3752 O.2       12 UNK        -0.5000 
     74 N          -3.4957  -24.8955  -44.8613 N.am      13 UNK        -0.5000 
     75 CA         -3.5918  -26.3345  -44.5892 C.3       13 UNK         0.1400 
     76 CB         -2.6995  -26.6969  -43.3928 C.3       13 UNK        -0.1800 
     77 C          -3.2423  -27.2014  -45.8153 C.2       13 UNK         0.5000 
     78 O          -3.8809  -28.2301  -46.0381 O.2       13 UNK        -0.5000 
     79 N          -2.2714  -26.7401  -46.6152 N.am      14 UNK        -0.5000 
     80 CA         -1.8947  -27.3071  -47.9126 C.3       14 UNK         0.1400 
     81 CB         -0.5020  -26.7763  -48.2900 C.3       14 UNK        -0.1800 
     82 C          -2.9063  -27.0018  -49.0397 C.2       14 UNK         0.5000 
     83 O          -2.7520  -27.5306  -50.1404 O.2       14 UNK        -0.5000 
     84 N          -3.8936  -26.1378  -48.7594 N.am      15 UNK        -0.5000 
     85 CA         -4.9611  -25.6328  -49.6303 C.3       15 UNK         0.1400 
     86 CB         -5.8056  -26.7775  -50.2235 C.3       15 UNK        -0.1800 
     87 C          -4.4961  -24.6385  -50.7126 C.2       15 UNK         0.5000 
     88 O          -5.3385  -24.1163  -51.4432 O.2       15 UNK        -0.5000 
     89 N          -3.1905  -24.3483  -50.7758 N.am      16 UNK        -0.5000 
     90 CA         -2.5672  -23.4353  -51.7316 C.3       16 UNK         0.1400 
     91 CB         -1.0392  -23.5205  -51.5956 C.3       16 UNK        -0.1800 
     92 C          -3.0547  -21.9887  -51.5616 C.2       16 UNK         0.5000 
     93 O          -3.4439  -21.3627  -52.5474 O.2       16 UNK        -0.5000 
     94 N          -3.0763  -21.5084  -50.3102 N.am      17 UNK        -0.5000 
     95 CA         -3.5848  -20.1789  -49.9625 C.3       17 UNK         0.1400 
     96 CB         -3.0017  -19.7275  -48.6162 C.3       17 UNK        -0.1800 
     97 C          -5.1217  -20.1290  -49.9174 C.2       17 UNK         0.5000 
     98 O          -5.6936  -19.0635  -50.1440 O.2       17 UNK        -0.5000 
     99 N          -5.7620  -21.2731  -49.6330 N.am      18 UNK        -0.5000 
    100 CA        -7.2182  -21.4083  -49.5586 C.3       18 UNK         0.1400 
    101 CB        -7.5843  -22.7286  -48.8632 C.3       18 UNK        -0.1800 
    102 C         -7.8726  -21.3163  -50.9477 C.2       18 UNK         0.5000 
    103 O         -8.8527  -20.5896  -51.1136 O.2       18 UNK        -0.5000 
    104 N         -7.2949  -22.0269  -51.9263 N.am      19 UNK        -0.5000 
    105 CA        -7.6868  -21.9604  -53.3350 C.3       19 UNK         0.1400 
    106 CB        -7.2029  -23.2368  -54.0415 C.3       19 UNK        -0.1800 
    107 C         -7.1234  -20.7163  -54.0493 C.2       19 UNK         0.5000 
    108 O         -7.6297  -20.3526  -55.1112 O.2       19 UNK        -0.5000 
    109 N         -6.0688  -20.1185  -53.4722 N.am      20 UNK        -0.5000 
    110 CA        -5.2352  -19.0394  -54.0156 C.3       20 UNK         0.1400 
    111 CB        -6.0430  -17.7362  -54.1804 C.3       20 UNK        -0.1800 
    112 C         -4.4929  -19.4637  -55.3017 C.2       20 UNK         0.5000 
    113 O         -4.2146  -18.6307  -56.1664 O.2       20 UNK        -0.5000 
    114 N         -4.1748  -20.7627  -55.3967 N.am      21 UNK        -0.5000 
    115 CA        -3.5492  -21.4139  -56.5486 C.3       21 UNK         0.1400 
    116 CB        -3.5648  -22.9339  -56.3256 C.3       21 UNK        -0.1800 
    117 C         -2.1183  -20.9192  -56.8230 C.2       21 UNK         0.5000 
    118 O         -1.6903  -20.8984  -57.9776 O.2       21 UNK        -0.5000 
    119 N         -1.4222  -20.5101  -55.7575 N.am      22 UNK        -0.5000 
    120 CA        -0.1050  -19.8631  -55.7997 C.3       22 UNK         0.1400 
    121 C         -0.1510  -18.3229  -56.0377 C.2       22 UNK         0.5000 
    122 N         -1.3118  -17.6975  -56.2024 N.am      22 UNK        -0.7600 
    123 O          0.8937  -17.6798  -56.0926 O.2       22 UNK        -0.5000 
    124 C124        0.7521  -20.2563  -54.5697 C.3       23 UNK        -0.0398 
    125 S125       -0.0369  -19.9095  -52.9581 S.3       23 UNK        -0.2404 
    126 C126        0.8863  -18.4358  -52.4318 C.3       23 UNK        -0.0205 
    127 H127       -1.6455  -14.4568  -42.5602 H         1 UNK         0.0600 
    128 H128       -3.0846  -13.7533  -41.8151 H         1 UNK         0.0600 
    129 H129       -1.5337  -12.9164  -41.7050 H         1 UNK         0.0600 
    130 H130       -1.8620  -14.3146  -44.7830 H         1 UNK         0.3000 
    131 H131       -3.4326  -12.2919  -46.0966 H         1 UNK         0.0600 
    132 H132       -3.6959  -14.4503  -46.9753 H         1 UNK         0.0800 
    133 H133       -2.7936  -13.5811  -48.1778 H         1 UNK         0.0800 
    134 H134       -1.6476  -15.2169  -49.5056 H         1 UNK         0.0800 
    135 H135       -2.6148  -16.5258  -48.8640 H         1 UNK         0.0800 
    136 H136       -0.9642  -16.7999  -51.2765 H         1 UNK         0.1150 
    137 H137        2.2523  -19.4633  -50.3239 H         1 UNK         0.1150 
    138 H138        0.1139  -17.5076  -47.1820 H         1 UNK         0.1150 
    139 H139        1.9459  -18.8844  -46.6074 H         1 UNK         0.0800 
    140 H140        3.1958  -18.9880  -47.8083 H         1 UNK         0.0800 
    141 H141       -0.2035  -21.1704  -48.5549 H         1 UNK         0.0800 
    142 H142       -0.2462  -20.4795  -46.9454 H         1 UNK         0.0800 
    143 H143        0.2547  -23.4258  -47.5803 H         1 UNK         0.0600 
    144 H144        0.6605  -22.0571  -45.1235 H         1 UNK         0.3000 
    145 H145        0.1907  -24.9031  -42.9829 H         1 UNK         0.0600 
    146 H146        2.5232  -25.0256  -43.7664 H         1 UNK         0.0600 
    147 H147        2.4498  -24.0974  -42.2764 H         1 UNK         0.0600 
    148 H148        2.6468  -23.2752  -43.8239 H         1 UNK         0.0600 
    149 H149        0.7705  -22.0778  -42.6329 H         1 UNK         0.3000 
    150 H150       -2.6064  -21.1252  -41.9693 H         1 UNK         0.0600 
    151 H151       -0.2236  -21.4515  -40.0657 H         1 UNK         0.0600 
    152 H152       -1.8264  -22.1347  -39.8201 H         1 UNK         0.0600 
    153 H153       -1.6122  -20.3915  -39.8211 H         1 UNK         0.0600 
    154 H154       -0.1360  -19.6957  -41.8230 H         1 UNK         0.3000 
    155 H155        0.1357  -18.8470  -45.2434 H         1 UNK         0.0600 
    156 H156       -0.0874  -16.5481  -44.5905 H         1 UNK         0.0600 
    157 H157       -0.6850  -16.9688  -42.9804 H         1 UNK         0.0600 
    158 H158       -1.6679  -17.2798  -44.4108 H         1 UNK         0.0600 
    159 H159        1.6166  -17.8306  -43.0858 H         1 UNK         0.3000 
    160 H160        3.3482  -19.9371  -41.8601 H         1 UNK         0.0600 
    161 H161        4.7913  -20.2584  -44.5384 H         1 UNK         0.0600 
    162 H162        4.3634  -21.5286  -43.4049 H         1 UNK         0.0600 
    163 H163        5.5780  -20.3426  -42.9615 H         1 UNK         0.0600 
    164 H164        3.9496  -17.8278  -41.7897 H         1 UNK         0.3000 
    165 H165        4.7527  -15.8878  -42.1746 H         1 UNK         0.0600 
    166 H166        6.3373  -14.4881  -43.4452 H         1 UNK         0.0600 
    167 H167        6.8487  -16.1673  -43.5194 H         1 UNK         0.0600 
    168 H168        6.0599  -15.4311  -44.9093 H         1 UNK         0.0600 
    169 H169        3.9535  -14.2926  -44.3892 H         1 UNK         0.3000 
    170 H170        0.4721  -14.4405  -44.1122 H         1 UNK         0.0600 
    171 H171        0.4888  -12.0909  -43.4611 H         1 UNK         0.0600 
    172 H172        2.1960  -12.1656  -43.0240 H         1 UNK         0.0600 
    173 H173        0.9992  -13.0458  -42.0816 H         1 UNK         0.0600 
    174 H174        1.9823  -12.5357  -45.4718 H         1 UNK         0.3000 
    175 H175        3.5495  -13.9749  -47.8784 H         1 UNK         0.0600 
    176 H176        1.8366  -15.3359  -49.0125 H         1 UNK         0.0600 
    177 H177        0.6484  -14.0482  -48.8380 H         1 UNK         0.0600 
    178 H178        2.0603  -13.8204  -49.8659 H         1 UNK         0.0600 
    179 H179        1.4204  -11.8932  -47.8390 H         1 UNK         0.3000 
    180 H180        3.5949   -9.3957  -46.7409 H         1 UNK         0.0600 
    181 H181        2.8294   -9.6743  -49.6977 H         1 UNK         0.0600 
    182 H182        4.4577   -9.4070  -49.0868 H         1 UNK         0.0600 
    183 H183        3.2315   -8.1693  -48.8689 H         1 UNK         0.0600 
    184 H184        1.0613   -9.2122  -48.0354 H         1 UNK         0.3000 
    185 H185       -0.6652   -8.8789  -45.1530 H         1 UNK         0.0600 
    186 H186       -0.5220   -7.7886  -47.3943 H         1 UNK         0.0600 
    187 H187       -1.0192   -9.2903  -48.1764 H         1 UNK         0.0600 
    188 H188       -2.1214   -8.4409  -47.1027 H         1 UNK         0.0600 
    189 H189       -1.9530  -10.6808  -44.9841 H         1 UNK         0.3000 
    190 H190       -2.0970  -21.9873  -45.3029 H         1 UNK         0.3000 
    191 H191       -4.4109  -22.4684  -46.9313 H         1 UNK         0.0600 
    192 H192       -4.4209  -20.8105  -45.1042 H         1 UNK         0.0600 
    193 H193       -5.6457  -22.0349  -44.8083 H         1 UNK         0.0600 
    194 H194       -4.1338  -22.0725  -43.9080 H         1 UNK         0.0600 
    195 H195       -2.8028  -24.3791  -44.3294 H         1 UNK         0.3000 
    196 H196       -4.6266  -26.5517  -44.3167 H         1 UNK         0.0600 
    197 H197       -2.7835  -27.7569  -43.1504 H         1 UNK         0.0600 
    198 H198       -2.9862  -26.1363  -42.5029 H         1 UNK         0.0600 
    199 H199       -1.6490  -26.4893  -43.5955 H         1 UNK         0.0600 
    200 H200       -1.7333  -25.9368  -46.3021 H         1 UNK         0.3000 
    201 H201       -1.8339  -28.3925  -47.8121 H         1 UNK         0.0600 
    202 H202       -0.1539  -27.2127  -49.2269 H         1 UNK         0.0600 
    203 H203        0.2347  -27.0226  -47.5250 H         1 UNK         0.0600 
    204 H204       -0.5061  -25.6929  -48.4136 H         1 UNK         0.0600 
    205 H205       -3.9198  -25.7614  -47.8198 H         1 UNK         0.3000 
    206 H206       -5.6151  -25.0634  -48.9716 H         1 UNK         0.0600 
    207 H207       -6.1464  -27.4606  -49.4455 H         1 UNK         0.0600 
    208 H208       -6.6932  -26.3871  -50.7229 H         1 UNK         0.0600 
    209 H209       -5.2492  -27.3559  -50.9612 H         1 UNK         0.0600 
    210 H210       -2.5855  -24.7546  -50.0768 H         1 UNK         0.3000 
    211 H211       -2.8412  -23.7643  -52.7361 H         1 UNK         0.0600 
    212 H212       -0.7015  -23.2122  -50.6052 H         1 UNK         0.0600 
    213 H213       -0.5468  -22.8776  -52.3258 H         1 UNK         0.0600 
    214 H214       -0.6848  -24.5369  -51.7682 H         1 UNK         0.0600 
    215 H215       -2.7617  -22.1097  -49.5553 H         1 UNK         0.3000 
    216 H216       -3.2536  -19.4676  -50.7229 H         1 UNK         0.0600 
    217 H217       -3.3895  -18.7494  -48.3306 H         1 UNK         0.0600 
    218 H218       -1.9192  -19.6351  -48.6714 H         1 UNK         0.0600 
    219 H219       -3.2504  -20.4171  -47.8115 H         1 UNK         0.0600 
    220 H220       -5.2144  -22.1081  -49.4958 H         1 UNK         0.3000 
    221 H221       -7.6027  -20.5885  -48.9478 H         1 UNK         0.0600 
    222 H222       -7.3274  -23.5929  -49.4747 H         1 UNK         0.0600 
    223 H223       -7.0788  -22.8292  -47.9024 H         1 UNK         0.0600 
    224 H224       -8.6570  -22.7777  -48.6728 H         1 UNK         0.0600 
    225 H225       -6.5232  -22.6512  -51.7031 H         1 UNK         0.3000 
    226 H226       -8.7760  -21.9222  -53.4022 H         1 UNK         0.0600 
    227 H227       -7.6181  -24.1289  -53.5723 H         1 UNK         0.0600 
    228 H228       -6.1157  -23.3224  -54.0167 H         1 UNK         0.0600 
    229 H229       -7.5092  -23.2463  -55.0883 H         1 UNK         0.0600 
    230 H230       -5.7242  -20.5290  -52.6159 H         1 UNK         0.3000 
    231 H231       -4.4613  -18.8513  -53.2701 H         1 UNK         0.0600 
    232 H232       -6.7907  -17.8174  -54.9696 H         1 UNK         0.0600 
    233 H233       -5.3888  -16.9021  -54.4364 H         1 UNK         0.0600 
    234 H234       -6.5563  -17.4730  -53.2555 H         1 UNK         0.0600 
    235 H235       -4.3559  -21.3429  -54.5879 H         1 UNK         0.3000 
    236 H236       -4.1525  -21.1872  -57.4300 H         1 UNK         0.0600 
    237 H237       -3.0053  -23.2147  -55.4322 H         1 UNK         0.0600 
    238 H238       -4.5836  -23.3056  -56.2144 H         1 UNK         0.0600 
    239 H239       -3.1190  -23.4581  -57.1718 H         1 UNK         0.0600 
    240 H240       -1.8596  -20.5547  -54.8474 H         1 UNK         0.3000 
    241 H241        0.4248  -20.2541  -56.6703 H         1 UNK         0.0600 
    242 H242       -1.3120  -16.7031  -56.3639 H         1 UNK         0.3800 
    243 H243       -2.1924  -18.1980  -56.1940 H         1 UNK         0.3800 
    244 H244        1.7375  -19.7904  -54.6183 H         1 UNK         0.0800 
    245 H245        0.9452  -21.3292  -54.6047 H         1 UNK         0.0800 
    246 H246        1.9522  -18.5777  -52.6162 H         1 UNK         0.0800 
    247 H247        0.5786  -17.5785  -53.0325 H         1 UNK         0.0800 
@<TRIPOS>BOND
     1    1    2 1    
     2    1  127 1    
     3    1  128 1    
     4    1  129 1    
     5    2    3 2    
     6    2    4 am   BACKBONE|DICT|INTERRES
     7    4    5 1    
     8    4  130 1    
     9    5    6 1    
    10    5   65 1    
    11    5  131 1    
    12    6    7 1    
    13    6  132 1    
    14    6  133 1    
    15    7    8 1    
    16    8    9 1    
    17    8  134 1    
    18    8  135 1    
    19    9   10 ar   
    20    9   14 ar   
    21   10   11 ar   
    22   10  136 1    
    23   11   12 ar   
    24   11  126 1    
    25   12   13 ar   
    26   12  137 1    
    27   13   14 ar   
    28   13   15 1    
    29   14  138 1    
    30   15   16 1    
    31   15  139 1    
    32   15  140 1    
    33   16   17 1    
    34   17   18 1    
    35   17  141 1    
    36   17  142 1    
    37   18   19 1    
    38   18   67 1    
    39   18  143 1    
    40   19   20 am   BACKBONE|DICT|INTERRES
    41   19  144 1    
    42   20   21 2    
    43   20   22 1    
    44   22   23 1    
    45   22   24 1    
    46   22  145 1    
    47   23  146 1    
    48   23  147 1    
    49   23  148 1    
    50   24   25 am   BACKBONE|DICT|INTERRES
    51   24  149 1    
    52   25   26 2    
    53   25   27 1    
    54   27   28 1    
    55   27   29 1    
    56   27  150 1    
    57   28  151 1    
    58   28  152 1    
    59   28  153 1    
    60   29   30 am   BACKBONE|DICT|INTERRES
    61   29  154 1    
    62   30   31 2    
    63   30   32 1    
    64   32   33 1    
    65   32   34 1    
    66   32  155 1    
    67   33  156 1    
    68   33  157 1    
    69   33  158 1    
    70   34   35 am   BACKBONE|DICT|INTERRES
    71   34  159 1    
    72   35   36 2    
    73   35   37 1    
    74   37   38 1    
    75   37   39 1    
    76   37  160 1    
    77   38  161 1    
    78   38  162 1    
    79   38  163 1    
    80   39   40 am   BACKBONE|DICT|INTERRES
    81   39  164 1    
    82   40   41 2    
    83   40   42 1    
    84   42   43 1    
    85   42   44 1    
    86   42  165 1    
    87   43  166 1    
    88   43  167 1    
    89   43  168 1    
    90   44   45 am   BACKBONE|DICT|INTERRES
    91   44  169 1    
    92   45   46 2    
    93   45   47 1    
    94   47   48 1    
    95   47   49 1    
    96   47  170 1    
    97   48  171 1    
    98   48  172 1    
    99   48  173 1    
   100   49   50 am   BACKBONE|DICT|INTERRES
   101   49  174 1    
   102   50   51 2    
   103   50   52 1    
   104   52   53 1    
   105   52   54 1    
   106   52  175 1    
   107   53  176 1    
   108   53  177 1    
   109   53  178 1    
   110   54   55 am   BACKBONE|DICT|INTERRES
   111   54  179 1    
   112   55   56 2    
   113   55   57 1    
   114   57   58 1    
   115   57   59 1    
   116   57  180 1    
   117   58  181 1    
   118   58  182 1    
   119   58  183 1    
   120   59   60 am   BACKBONE|DICT|INTERRES
   121   59  184 1    
   122   60   61 2    
   123   60   62 1    
   124   62   63 1    
   125   62   64 1    
   126   62  185 1    
   127   63  186 1    
   128   63  187 1    
   129   63  188 1    
   130   64   65 am   BACKBONE|DICT|INTERRES
   131   64  189 1    
   132   65   66 2    
   133   67   68 2    
   134   67   69 am   BACKBONE|DICT|INTERRES
   135   69   70 1    
   136   69  190 1    
   137   70   71 1    
   138   70   72 1    
   139   70  191 1    
   140   71  192 1    
   141   71  193 1    
   142   71  194 1    
   143   72   73 2    
   144   72   74 am   BACKBONE|DICT|INTERRES
   145   74   75 1    
   146   74  195 1    
   147   75   76 1    
   148   75   77 1    
   149   75  196 1    
   150   76  197 1    
   151   76  198 1    
   152   76  199 1    
   153   77   78 2    
   154   77   79 am   BACKBONE|DICT|INTERRES
   155   79   80 1    
   156   79  200 1    
   157   80   81 1    
   158   80   82 1    
   159   80  201 1    
   160   81  202 1    
   161   81  203 1    
   162   81  204 1    
   163   82   83 2    
   164   82   84 am   BACKBONE|DICT|INTERRES
   165   84   85 1    
   166   84  205 1    
   167   85   86 1    
   168   85   87 1    
   169   85  206 1    
   170   86  207 1    
   171   86  208 1    
   172   86  209 1    
   173   87   88 2    
   174   87   89 am   BACKBONE|DICT|INTERRES
   175   89   90 1    
   176   89  210 1    
   177   90   91 1    
   178   90   92 1    
   179   90  211 1    
   180   91  212 1    
   181   91  213 1    
   182   91  214 1    
   183   92   93 2    
   184   92   94 am   BACKBONE|DICT|INTERRES
   185   94   95 1    
   186   94  215 1    
   187   95   96 1    
   188   95   97 1    
   189   95  216 1    
   190   96  217 1    
   191   96  218 1    
   192   96  219 1    
   193   97   98 2    
   194   97   99 am   BACKBONE|DICT|INTERRES
   195   99  100 1    
   196   99  220 1    
   197  100  101 1    
   198  100  102 1    
   199  100  221 1    
   200  101  222 1    
   201  101  223 1    
   202  101  224 1    
   203  102  103 2    
   204  102  104 am   BACKBONE|DICT|INTERRES
   205  104  105 1    
   206  104  225 1    
   207  105  106 1    
   208  105  107 1    
   209  105  226 1    
   210  106  227 1    
   211  106  228 1    
   212  106  229 1    
   213  107  108 2    
   214  107  109 am   BACKBONE|DICT|INTERRES
   215  109  110 1    
   216  109  230 1    
   217  110  111 1    
   218  110  112 1    
   219  110  231 1    
   220  111  232 1    
   221  111  233 1    
   222  111  234 1    
   223  112  113 2    
   224  112  114 am   BACKBONE|DICT|INTERRES
   225  114  115 1    
   226  114  235 1    
   227  115  116 1    
   228  115  117 1    
   229  115  236 1    
   230  116  237 1    
   231  116  238 1    
   232  116  239 1    
   233  117  118 2    
   234  117  119 am   BACKBONE|DICT|INTERRES
   235  119  120 1    
   236  119  240 1    
   237  120  121 1    
   238  120  124 1    
   239  120  241 1    
   240  121  122 am   BACKBONE|DICT|INTERRES
   241  121  123 2    
   242  122  242 1    
   243  122  243 1    
   244  124  125 1    
   245  124  244 1    
   246  124  245 1    
   247  125  126 1    
   248  126  246 1    
   249  126  247 1    
@<TRIPOS>SUBSTRUCTURE
     1 UNK         1 GROUP             0       ****    0 ROOT    
