@<TRIPOS>MOLECULE
3R540
247   249    1
SMALL
USER_CHARGES


@<TRIPOS>ATOM
      1 CA          6.6910  -10.6255  -48.7400 C.3       0 UNK        -0.1800 
      2 C           5.8380  -11.3582  -47.7144 C.2       0 UNK         0.5000 
      3 O           5.7128  -10.8989  -46.5792 O.2       0 UNK        -0.5000 
      4 N           5.2477  -12.4934  -48.1105 N.am      1 UNK        -0.5000 
      5 CA          4.4074  -13.3481  -47.2593 C.3       1 UNK         0.1400 
      6 C6          4.0990  -14.7208  -47.9132 C.3       23 UNK        -0.0398 
      7 S7          5.5376  -15.6124  -48.5893 S.3       23 UNK        -0.2404 
      8 C8          5.2159  -15.5130  -50.3845 C.3       23 UNK        -0.0205 
      9 C9          3.9357  -16.2288  -50.8058 C.ar      23 UNK        -0.0193 
     10 C10         2.8305  -15.5009  -51.2643 C.ar      23 UNK        -0.1150 
     11 C11         1.6688  -16.1574  -51.6859 C.ar      23 UNK        -0.0193 
     12 C12         1.6218  -17.5527  -51.6532 C.ar      23 UNK        -0.1150 
     13 C13         2.7097  -18.2904  -51.1801 C.ar      23 UNK        -0.0193 
     14 C14         3.8650  -17.6240  -50.7618 C.ar      23 UNK        -0.1150 
     15 C15         2.6373  -19.8077  -51.1235 C.3       23 UNK        -0.0205 
     16 S16         2.0781  -20.3827  -49.4915 S.3       23 UNK        -0.2404 
     17 C17         0.3302  -19.8579  -49.4888 C.3       23 UNK        -0.0398 
     18 CA         -0.5724  -20.8655  -48.7382 C.3       11 UNK         0.1400 
     19 N          -0.1931  -20.9789  -47.3259 N.am      11 UNK        -0.5000 
     20 C          -0.3773  -22.0322  -46.5196 C.2       10 UNK         0.5000 
     21 O          -1.0364  -23.0236  -46.8429 O.2       10 UNK        -0.5000 
     22 CA          0.2132  -21.9318  -45.0997 C.3       10 UNK         0.1400 
     23 CB          0.6391  -23.2941  -44.5232 C.3       10 UNK        -0.1800 
     24 N           1.2887  -20.9440  -44.9888 N.am      10 UNK        -0.5000 
     25 C           2.5188  -20.9693  -45.5265 C.2       9 UNK         0.5000 
     26 O           2.9621  -21.9001  -46.1985 O.2       9 UNK        -0.5000 
     27 CA          3.4083  -19.7377  -45.2493 C.3       9 UNK         0.1400 
     28 CB          3.6057  -18.8862  -46.5150 C.3       9 UNK        -0.1800 
     29 N           2.8425  -18.8995  -44.1875 N.am      9 UNK        -0.5000 
     30 C           3.0718  -19.0924  -42.8815 C.2       8 UNK         0.5000 
     31 O           3.8976  -19.8899  -42.4363 O.2       8 UNK        -0.5000 
     32 CA          2.1896  -18.2892  -41.9136 C.3       8 UNK         0.1400 
     33 CB          2.6221  -16.8159  -41.8706 C.3       8 UNK        -0.1800 
     34 N           0.7660  -18.3841  -42.2539 N.am      8 UNK        -0.5000 
     35 C           0.0134  -19.4761  -42.0485 C.2       7 UNK         0.5000 
     36 O           0.4615  -20.5319  -41.6030 O.2       7 UNK        -0.5000 
     37 CA         -1.4829  -19.3976  -42.3954 C.3       7 UNK         0.1400 
     38 CB         -2.2718  -18.7980  -41.2213 C.3       7 UNK        -0.1800 
     39 N          -1.7406  -18.6020  -43.5950 N.am      7 UNK        -0.5000 
     40 C          -2.3980  -19.0378  -44.6795 C.2       6 UNK         0.5000 
     41 O          -2.7982  -20.1933  -44.8343 O.2       6 UNK        -0.5000 
     42 CA         -2.6578  -18.0088  -45.7960 C.3       6 UNK         0.1400 
     43 CB         -3.9973  -17.2979  -45.5443 C.3       6 UNK        -0.1800 
     44 N          -1.6188  -16.9931  -45.9466 N.am      6 UNK        -0.5000 
     45 C          -0.3120  -17.2155  -46.1264 C.2       5 UNK         0.5000 
     46 O           0.1974  -18.3331  -46.2066 O.2       5 UNK        -0.5000 
     47 CA          0.5873  -15.9700  -46.1810 C.3       5 UNK         0.1400 
     48 CB          0.6028  -15.4418  -47.6195 C.3       5 UNK        -0.1800 
     49 N           0.2264  -14.8746  -45.2659 N.am      5 UNK        -0.5000 
     50 C          -0.0682  -14.9717  -43.9597 C.2       4 UNK         0.5000 
     51 O          -0.2274  -16.0485  -43.3811 O.2       4 UNK        -0.5000 
     52 CA         -0.2048  -13.6667  -43.1505 C.3       4 UNK         0.1400 
     53 CB          0.3912  -13.8079  -41.7342 C.3       4 UNK        -0.1800 
     54 N           0.3794  -12.4957  -43.8161 N.am      4 UNK        -0.5000 
     55 C           0.0029  -11.2320  -43.5606 C.2       3 UNK         0.5000 
     56 O          -0.9181  -10.9385  -42.7965 O.2       3 UNK        -0.5000 
     57 CA          0.7758  -10.0926  -44.2587 C.3       3 UNK         0.1400 
     58 CB          1.9533   -9.6319  -43.3861 C.3       3 UNK        -0.1800 
     59 N           1.2792  -10.4511  -45.5826 N.am      3 UNK        -0.5000 
     60 C           0.5116  -10.7520  -46.6361 C.2       2 UNK         0.5000 
     61 O          -0.7150  -10.6438  -46.6331 O.2       2 UNK        -0.5000 
     62 CA          1.2114  -11.2803  -47.9048 C.3       2 UNK         0.1400 
     63 CB          1.1991  -10.2083  -49.0058 C.3       2 UNK        -0.1800 
     64 N           2.5861  -11.7811  -47.7651 N.am      2 UNK        -0.5000 
     65 C           3.0585  -12.6897  -46.8967 C.2       1 UNK         0.5000 
     66 O           2.4525  -13.0690  -45.8943 O.2       1 UNK        -0.5000 
     67 C          -2.0772  -20.5649  -48.9195 C.2       11 UNK         0.5000 
     68 O          -2.4595  -19.7689  -49.7777 O.2       11 UNK        -0.5000 
     69 N          -2.8972  -21.2337  -48.1092 N.am      12 UNK        -0.5000 
     70 CA         -4.3474  -21.3274  -48.1773 C.3       12 UNK         0.1400 
     71 CB         -5.0395  -20.0159  -47.7704 C.3       12 UNK        -0.1800 
     72 C          -4.7689  -22.4889  -47.2706 C.2       12 UNK         0.5000 
     73 O          -5.5216  -23.3525  -47.7154 O.2       12 UNK        -0.5000 
     74 N          -4.2345  -22.5126  -46.0382 N.am      13 UNK        -0.5000 
     75 CA         -4.4996  -23.5296  -45.0192 C.3       13 UNK         0.1400 
     76 CB         -3.8438  -23.1051  -43.6945 C.3       13 UNK        -0.1800 
     77 C          -4.0510  -24.9454  -45.4279 C.2       13 UNK         0.5000 
     78 O          -4.8800  -25.8549  -45.4748 O.2       13 UNK        -0.5000 
     79 N          -2.7562  -25.1067  -45.7357 N.am      14 UNK        -0.5000 
     80 CA         -2.1741  -26.3787  -46.1798 C.3       14 UNK         0.1400 
     81 CB         -0.6697  -26.3961  -45.8717 C.3       14 UNK        -0.1800 
     82 C          -2.4173  -26.6258  -47.6777 C.2       14 UNK         0.5000 
     83 O          -2.4764  -27.7772  -48.1088 O.2       14 UNK        -0.5000 
     84 N          -2.5806  -25.5339  -48.4349 N.am      15 UNK        -0.5000 
     85 CA         -2.9011  -25.5239  -49.8612 C.3       15 UNK         0.1400 
     86 CB         -2.5543  -24.1349  -50.4089 C.3       15 UNK        -0.1800 
     87 C          -4.3696  -25.8853  -50.1761 C.2       15 UNK         0.5000 
     88 O          -4.7192  -25.9966  -51.3542 O.2       15 UNK        -0.5000 
     89 N          -5.2021  -26.0248  -49.1309 N.am      16 UNK        -0.5000 
     90 CA         -6.6236  -26.3949  -49.1361 C.3       16 UNK         0.1400 
     91 CB         -6.7845  -27.8617  -49.5853 C.3       16 UNK        -0.1800 
     92 C          -7.5165  -25.4305  -49.9461 C.2       16 UNK         0.5000 
     93 O          -8.5532  -25.8444  -50.4676 O.2       16 UNK        -0.5000 
     94 N          -7.0681  -24.1721  -50.0701 N.am      17 UNK        -0.5000 
     95 CA         -7.5921  -23.1082  -50.9351 C.3       17 UNK         0.1400 
     96 CB         -8.9731  -22.6383  -50.4354 C.3       17 UNK        -0.1800 
     97 C          -7.5998  -23.4700  -52.4423 C.2       17 UNK         0.5000 
     98 O          -8.3200  -22.8319  -53.2123 O.2       17 UNK        -0.5000 
     99 N          -6.8254  -24.4916  -52.8364 N.am      18 UNK        -0.5000 
    100 CA        -6.8366  -25.0927  -54.1675 C.3       18 UNK         0.1400 
    101 CB        -7.1667  -26.5891  -54.0379 C.3       18 UNK        -0.1800 
    102 C         -5.4920  -24.8899  -54.8755 C.2       18 UNK         0.5000 
    103 O         -5.4740  -24.4069  -56.0084 O.2       18 UNK        -0.5000 
    104 N         -4.3884  -25.2460  -54.2016 N.am      19 UNK        -0.5000 
    105 CA        -3.0277  -25.0828  -54.7278 C.3       19 UNK         0.1400 
    106 CB        -2.0775  -26.0267  -53.9748 C.3       19 UNK        -0.1800 
    107 C         -2.5342  -23.6235  -54.6535 C.2       19 UNK         0.5000 
    108 O         -1.6565  -23.2312  -55.4228 O.2       19 UNK        -0.5000 
    109 N         -3.1252  -22.8538  -53.7372 N.am      20 UNK        -0.5000 
    110 CA        -2.9138  -21.4413  -53.4642 C.3       20 UNK         0.1400 
    111 CB        -1.5442  -21.2085  -52.7980 C.3       20 UNK        -0.1800 
    112 C         -4.0563  -21.0057  -52.5373 C.2       20 UNK         0.5000 
    113 O         -4.6426  -21.8525  -51.8571 O.2       20 UNK        -0.5000 
    114 N         -4.3497  -19.7045  -52.5205 N.am      21 UNK        -0.5000 
    115 CA        -5.3727  -19.0959  -51.6745 C.3       21 UNK         0.1400 
    116 CB        -6.7559  -19.2095  -52.3449 C.3       21 UNK        -0.1800 
    117 C         -4.9565  -17.6512  -51.3606 C.2       21 UNK         0.5000 
    118 O         -5.7120  -16.7108  -51.6132 O.2       21 UNK        -0.5000 
    119 N         -3.7342  -17.5006  -50.8389 N.am      22 UNK        -0.5000 
    120 CA        -3.0820  -16.2295  -50.4825 C.3       22 UNK         0.1400 
    121 C         -3.6742  -15.5581  -49.2019 C.2       22 UNK         0.5000 
    122 N         -4.9908  -15.4549  -49.0854 N.am      22 UNK        -0.7600 
    123 O         -2.9557  -15.1340  -48.3023 O.2       22 UNK        -0.5000 
    124 C124       -1.5373  -16.4000  -50.4562 C.3       23 UNK        -0.0398 
    125 S125       -0.6459  -14.8527  -50.8607 S.3       23 UNK        -0.2404 
    126 C126        0.4757  -15.3640  -52.2025 C.3       23 UNK        -0.0205 
    127 H127        6.7131  -11.1476  -49.6969 H         1 UNK         0.0600 
    128 H128        7.7155  -10.5343  -48.3790 H         1 UNK         0.0600 
    129 H129        6.2971   -9.6233  -48.9082 H         1 UNK         0.0600 
    130 H130        5.4140  -12.8363  -49.0453 H         1 UNK         0.3000 
    131 H131        4.9484  -13.5267  -46.3277 H         1 UNK         0.0600 
    132 H132        3.6331  -15.3826  -47.1812 H         1 UNK         0.0800 
    133 H133        3.3659  -14.5987  -48.7099 H         1 UNK         0.0800 
    134 H134        6.0590  -15.9586  -50.9143 H         1 UNK         0.0800 
    135 H135        5.1890  -14.4658  -50.6885 H         1 UNK         0.0800 
    136 H136        2.8739  -14.4214  -51.3009 H         1 UNK         0.1150 
    137 H137        0.7359  -18.0668  -51.9956 H         1 UNK         0.1150 
    138 H138        4.7112  -18.1913  -50.3997 H         1 UNK         0.1150 
    139 H139        1.9758  -20.1936  -51.9008 H         1 UNK         0.0800 
    140 H140        3.6225  -20.2303  -51.3264 H         1 UNK         0.0800 
    141 H141        0.0030  -19.7609  -50.5240 H         1 UNK         0.0800 
    142 H142        0.2606  -18.8640  -49.0440 H         1 UNK         0.0800 
    143 H143       -0.4150  -21.8422  -49.2003 H         1 UNK         0.0600 
    144 H144        0.2625  -20.1601  -46.9347 H         1 UNK         0.3000 
    145 H145       -0.5913  -21.5611  -44.4666 H         1 UNK         0.0600 
    146 H146        1.1127  -23.1789  -43.5481 H         1 UNK         0.0600 
    147 H147       -0.2274  -23.9392  -44.3827 H         1 UNK         0.0600 
    148 H148        1.3379  -23.8137  -45.1792 H         1 UNK         0.0600 
    149 H149        1.0446  -20.1053  -44.4843 H         1 UNK         0.3000 
    150 H150        4.3894  -20.1055  -44.9418 H         1 UNK         0.0600 
    151 H151        4.1049  -19.4629  -47.2944 H         1 UNK         0.0600 
    152 H152        4.2268  -18.0133  -46.3133 H         1 UNK         0.0600 
    153 H153        2.6612  -18.5363  -46.9293 H         1 UNK         0.0600 
    154 H154        2.1439  -18.2265  -44.4664 H         1 UNK         0.3000 
    155 H155        2.3292  -18.7048  -40.9131 H         1 UNK         0.0600 
    156 H156        3.6737  -16.7261  -41.5955 H         1 UNK         0.0600 
    157 H157        2.0459  -16.2633  -41.1291 H         1 UNK         0.0600 
    158 H158        2.4931  -16.3234  -42.8347 H         1 UNK         0.0600 
    159 H159        0.3354  -17.5367  -42.6193 H         1 UNK         0.3000 
    160 H160       -1.8294  -20.4232  -42.5400 H         1 UNK         0.0600 
    161 H161       -1.9823  -17.7641  -41.0284 H         1 UNK         0.0600 
    162 H162       -2.1033  -19.3650  -40.3048 H         1 UNK         0.0600 
    163 H163       -3.3435  -18.8138  -41.4207 H         1 UNK         0.0600 
    164 H164       -1.4097  -17.6426  -43.5846 H         1 UNK         0.3000 
    165 H165       -2.7190  -18.5542  -46.7383 H         1 UNK         0.0600 
    166 H166       -4.3086  -16.7241  -46.4163 H         1 UNK         0.0600 
    167 H167       -4.7957  -18.0060  -45.3221 H         1 UNK         0.0600 
    168 H168       -3.9331  -16.6131  -44.6978 H         1 UNK         0.0600 
    169 H169       -1.9299  -16.0323  -45.9270 H         1 UNK         0.3000 
    170 H170        1.5988  -16.2830  -45.9172 H         1 UNK         0.0600 
    171 H171        0.9383  -16.2074  -48.3212 H         1 UNK         0.0600 
    172 H172       -0.3898  -15.1169  -47.9255 H         1 UNK         0.0600 
    173 H173        1.2583  -14.5875  -47.7385 H         1 UNK         0.0600 
    174 H174        0.3511  -13.9467  -45.6431 H         1 UNK         0.3000 
    175 H175       -1.2805  -13.5087  -43.0507 H         1 UNK         0.0600 
    176 H176       -0.0297  -14.6631  -41.2040 H         1 UNK         0.0600 
    177 H177        1.4728  -13.9390  -41.7717 H         1 UNK         0.0600 
    178 H178        0.1846  -12.9283  -41.1248 H         1 UNK         0.0600 
    179 H179        1.1604  -12.6635  -44.4452 H         1 UNK         0.3000 
    180 H180        0.0891   -9.2518  -44.3771 H         1 UNK         0.0600 
    181 H181        2.6900  -10.4254  -43.2541 H         1 UNK         0.0600 
    182 H182        1.6114   -9.3327  -42.3944 H         1 UNK         0.0600 
    183 H183        2.4595   -8.7730  -43.8272 H         1 UNK         0.0600 
    184 H184        2.2748  -10.5973  -45.6680 H         1 UNK         0.3000 
    185 H185        0.6105  -12.1225  -48.2536 H         1 UNK         0.0600 
    186 H186        1.5534  -10.6114  -49.9548 H         1 UNK         0.0600 
    187 H187        0.1909   -9.8278  -49.1759 H         1 UNK         0.0600 
    188 H188        1.8309   -9.3589  -48.7432 H         1 UNK         0.0600 
    189 H189        3.2061  -11.5291  -48.5207 H         1 UNK         0.3000 
    190 H190       -2.4538  -21.8853  -47.4687 H         1 UNK         0.3000 
    191 H191       -4.6282  -21.5698  -49.2032 H         1 UNK         0.0600 
    192 H192       -4.9018  -19.8092  -46.7110 H         1 UNK         0.0600 
    193 H193       -6.1131  -20.0779  -47.9503 H         1 UNK         0.0600 
    194 H194       -4.6652  -19.1613  -48.3333 H         1 UNK         0.0600 
    195 H195       -3.6695  -21.7242  -45.7342 H         1 UNK         0.3000 
    196 H196       -5.5797  -23.5619  -44.8622 H         1 UNK         0.0600 
    197 H197       -4.0142  -23.8492  -42.9155 H         1 UNK         0.0600 
    198 H198       -4.2568  -22.1615  -43.3372 H         1 UNK         0.0600 
    199 H199       -2.7658  -22.9762  -43.7976 H         1 UNK         0.0600 
    200 H200       -2.1447  -24.2984  -45.7591 H         1 UNK         0.3000 
    201 H201       -2.6395  -27.1980  -45.6276 H         1 UNK         0.0600 
    202 H202       -0.4853  -26.2904  -44.8028 H         1 UNK         0.0600 
    203 H203       -0.1414  -25.5955  -46.3903 H         1 UNK         0.0600 
    204 H204       -0.2194  -27.3393  -46.1837 H         1 UNK         0.0600 
    205 H205       -2.4706  -24.6351  -47.9872 H         1 UNK         0.3000 
    206 H206       -2.2701  -26.2602  -50.3628 H         1 UNK         0.0600 
    207 H207       -1.5152  -23.8746  -50.2082 H         1 UNK         0.0600 
    208 H208       -2.6925  -24.1005  -51.4853 H         1 UNK         0.0600 
    209 H209       -3.1892  -23.3630  -49.9774 H         1 UNK         0.0600 
    210 H210       -4.8192  -25.8391  -48.2143 H         1 UNK         0.3000 
    211 H211       -6.9601  -26.3224  -48.1009 H         1 UNK         0.0600 
    212 H212       -6.5246  -27.9916  -50.6366 H         1 UNK         0.0600 
    213 H213       -7.8125  -28.2024  -49.4573 H         1 UNK         0.0600 
    214 H214       -6.1493  -28.5252  -48.9984 H         1 UNK         0.0600 
    215 H215       -6.2497  -23.9274  -49.5225 H         1 UNK         0.3000 
    216 H216       -6.9113  -22.2658  -50.8219 H         1 UNK         0.0600 
    217 H217       -9.3001  -21.7455  -50.9696 H         1 UNK         0.0600 
    218 H218       -8.9431  -22.3864  -49.3753 H         1 UNK         0.0600 
    219 H219       -9.7371  -23.4030  -50.5780 H         1 UNK         0.0600 
    220 H220       -6.2343  -24.9435  -52.1469 H         1 UNK         0.3000 
    221 H221       -7.6081  -24.6353  -54.7902 H         1 UNK         0.0600 
    222 H222       -6.4455  -27.1125  -53.4089 H         1 UNK         0.0600 
    223 H223       -8.1540  -26.7339  -53.5985 H         1 UNK         0.0600 
    224 H224       -7.1693  -27.0760  -55.0139 H         1 UNK         0.0600 
    225 H225       -4.4789  -25.6325  -53.2664 H         1 UNK         0.3000 
    226 H226       -3.0221  -25.3751  -55.7801 H         1 UNK         0.0600 
    227 H227       -2.3794  -27.0669  -54.0980 H         1 UNK         0.0600 
    228 H228       -1.0582  -25.9379  -54.3529 H         1 UNK         0.0600 
    229 H229       -2.0506  -25.8131  -52.9074 H         1 UNK         0.0600 
    230 H230       -3.8617  -23.2531  -53.1674 H         1 UNK         0.3000 
    231 H231       -2.9774  -20.8840  -54.4006 H         1 UNK         0.0600 
    232 H232       -0.7246  -21.5122  -53.4488 H         1 UNK         0.0600 
    233 H233       -1.4528  -21.7634  -51.8641 H         1 UNK         0.0600 
    234 H234       -1.3981  -20.1527  -52.5676 H         1 UNK         0.0600 
    235 H235       -3.8094  -19.0622  -53.0836 H         1 UNK         0.3000 
    236 H236       -5.4116  -19.6216  -50.7187 H         1 UNK         0.0600 
    237 H237       -7.5322  -18.7701  -51.7175 H         1 UNK         0.0600 
    238 H238       -6.7778  -18.6972  -53.3073 H         1 UNK         0.0600 
    239 H239       -7.0298  -20.2505  -52.5152 H         1 UNK         0.0600 
    240 H240       -3.2224  -18.3445  -50.5835 H         1 UNK         0.3000 
    241 H241       -3.3075  -15.5360  -51.2949 H         1 UNK         0.0600 
    242 H242       -5.3927  -15.0209  -48.2704 H         1 UNK         0.3800 
    243 H243       -5.5819  -15.7805  -49.8416 H         1 UNK         0.3800 
    244 H244       -1.2003  -16.7854  -49.4936 H         1 UNK         0.0800 
    245 H245       -1.2455  -17.1542  -51.1864 H         1 UNK         0.0800 
    246 H246       -0.0761  -15.9382  -52.9484 H         1 UNK         0.0800 
    247 H247        0.8313  -14.4698  -52.7164 H         1 UNK         0.0800 
@<TRIPOS>BOND
     1    1    2 1    
     2    1  127 1    
     3    1  128 1    
     4    1  129 1    
     5    2    3 2    
     6    2    4 am   BACKBONE|DICT|INTERRES
     7    4    5 1    
     8    4  130 1    
     9    5    6 1    
    10    5   65 1    
    11    5  131 1    
    12    6    7 1    
    13    6  132 1    
    14    6  133 1    
    15    7    8 1    
    16    8    9 1    
    17    8  134 1    
    18    8  135 1    
    19    9   10 ar   
    20    9   14 ar   
    21   10   11 ar   
    22   10  136 1    
    23   11   12 ar   
    24   11  126 1    
    25   12   13 ar   
    26   12  137 1    
    27   13   14 ar   
    28   13   15 1    
    29   14  138 1    
    30   15   16 1    
    31   15  139 1    
    32   15  140 1    
    33   16   17 1    
    34   17   18 1    
    35   17  141 1    
    36   17  142 1    
    37   18   19 1    
    38   18   67 1    
    39   18  143 1    
    40   19   20 am   BACKBONE|DICT|INTERRES
    41   19  144 1    
    42   20   21 2    
    43   20   22 1    
    44   22   23 1    
    45   22   24 1    
    46   22  145 1    
    47   23  146 1    
    48   23  147 1    
    49   23  148 1    
    50   24   25 am   BACKBONE|DICT|INTERRES
    51   24  149 1    
    52   25   26 2    
    53   25   27 1    
    54   27   28 1    
    55   27   29 1    
    56   27  150 1    
    57   28  151 1    
    58   28  152 1    
    59   28  153 1    
    60   29   30 am   BACKBONE|DICT|INTERRES
    61   29  154 1    
    62   30   31 2    
    63   30   32 1    
    64   32   33 1    
    65   32   34 1    
    66   32  155 1    
    67   33  156 1    
    68   33  157 1    
    69   33  158 1    
    70   34   35 am   BACKBONE|DICT|INTERRES
    71   34  159 1    
    72   35   36 2    
    73   35   37 1    
    74   37   38 1    
    75   37   39 1    
    76   37  160 1    
    77   38  161 1    
    78   38  162 1    
    79   38  163 1    
    80   39   40 am   BACKBONE|DICT|INTERRES
    81   39  164 1    
    82   40   41 2    
    83   40   42 1    
    84   42   43 1    
    85   42   44 1    
    86   42  165 1    
    87   43  166 1    
    88   43  167 1    
    89   43  168 1    
    90   44   45 am   BACKBONE|DICT|INTERRES
    91   44  169 1    
    92   45   46 2    
    93   45   47 1    
    94   47   48 1    
    95   47   49 1    
    96   47  170 1    
    97   48  171 1    
    98   48  172 1    
    99   48  173 1    
   100   49   50 am   BACKBONE|DICT|INTERRES
   101   49  174 1    
   102   50   51 2    
   103   50   52 1    
   104   52   53 1    
   105   52   54 1    
   106   52  175 1    
   107   53  176 1    
   108   53  177 1    
   109   53  178 1    
   110   54   55 am   BACKBONE|DICT|INTERRES
   111   54  179 1    
   112   55   56 2    
   113   55   57 1    
   114   57   58 1    
   115   57   59 1    
   116   57  180 1    
   117   58  181 1    
   118   58  182 1    
   119   58  183 1    
   120   59   60 am   BACKBONE|DICT|INTERRES
   121   59  184 1    
   122   60   61 2    
   123   60   62 1    
   124   62   63 1    
   125   62   64 1    
   126   62  185 1    
   127   63  186 1    
   128   63  187 1    
   129   63  188 1    
   130   64   65 am   BACKBONE|DICT|INTERRES
   131   64  189 1    
   132   65   66 2    
   133   67   68 2    
   134   67   69 am   BACKBONE|DICT|INTERRES
   135   69   70 1    
   136   69  190 1    
   137   70   71 1    
   138   70   72 1    
   139   70  191 1    
   140   71  192 1    
   141   71  193 1    
   142   71  194 1    
   143   72   73 2    
   144   72   74 am   BACKBONE|DICT|INTERRES
   145   74   75 1    
   146   74  195 1    
   147   75   76 1    
   148   75   77 1    
   149   75  196 1    
   150   76  197 1    
   151   76  198 1    
   152   76  199 1    
   153   77   78 2    
   154   77   79 am   BACKBONE|DICT|INTERRES
   155   79   80 1    
   156   79  200 1    
   157   80   81 1    
   158   80   82 1    
   159   80  201 1    
   160   81  202 1    
   161   81  203 1    
   162   81  204 1    
   163   82   83 2    
   164   82   84 am   BACKBONE|DICT|INTERRES
   165   84   85 1    
   166   84  205 1    
   167   85   86 1    
   168   85   87 1    
   169   85  206 1    
   170   86  207 1    
   171   86  208 1    
   172   86  209 1    
   173   87   88 2    
   174   87   89 am   BACKBONE|DICT|INTERRES
   175   89   90 1    
   176   89  210 1    
   177   90   91 1    
   178   90   92 1    
   179   90  211 1    
   180   91  212 1    
   181   91  213 1    
   182   91  214 1    
   183   92   93 2    
   184   92   94 am   BACKBONE|DICT|INTERRES
   185   94   95 1    
   186   94  215 1    
   187   95   96 1    
   188   95   97 1    
   189   95  216 1    
   190   96  217 1    
   191   96  218 1    
   192   96  219 1    
   193   97   98 2    
   194   97   99 am   BACKBONE|DICT|INTERRES
   195   99  100 1    
   196   99  220 1    
   197  100  101 1    
   198  100  102 1    
   199  100  221 1    
   200  101  222 1    
   201  101  223 1    
   202  101  224 1    
   203  102  103 2    
   204  102  104 am   BACKBONE|DICT|INTERRES
   205  104  105 1    
   206  104  225 1    
   207  105  106 1    
   208  105  107 1    
   209  105  226 1    
   210  106  227 1    
   211  106  228 1    
   212  106  229 1    
   213  107  108 2    
   214  107  109 am   BACKBONE|DICT|INTERRES
   215  109  110 1    
   216  109  230 1    
   217  110  111 1    
   218  110  112 1    
   219  110  231 1    
   220  111  232 1    
   221  111  233 1    
   222  111  234 1    
   223  112  113 2    
   224  112  114 am   BACKBONE|DICT|INTERRES
   225  114  115 1    
   226  114  235 1    
   227  115  116 1    
   228  115  117 1    
   229  115  236 1    
   230  116  237 1    
   231  116  238 1    
   232  116  239 1    
   233  117  118 2    
   234  117  119 am   BACKBONE|DICT|INTERRES
   235  119  120 1    
   236  119  240 1    
   237  120  121 1    
   238  120  124 1    
   239  120  241 1    
   240  121  122 am   BACKBONE|DICT|INTERRES
   241  121  123 2    
   242  122  242 1    
   243  122  243 1    
   244  124  125 1    
   245  124  244 1    
   246  124  245 1    
   247  125  126 1    
   248  126  246 1    
   249  126  247 1    
@<TRIPOS>SUBSTRUCTURE
     1 UNK         1 GROUP             0       ****    0 ROOT    
