@<TRIPOS>MOLECULE
3R540
247   249    1
SMALL
USER_CHARGES


@<TRIPOS>ATOM
      1 CA         -2.2774   -9.9882  -49.0171 C.3       0 UNK        -0.1800 
      2 C          -1.1710  -10.9505  -49.4247 C.2       0 UNK         0.5000 
      3 O          -0.2505  -10.5589  -50.1422 O.2       0 UNK        -0.5000 
      4 N          -1.2587  -12.2065  -48.9697 N.am      1 UNK        -0.5000 
      5 CA         -0.2678  -13.2646  -49.2082 C.3       1 UNK         0.1400 
      6 C6         -0.8477  -14.6765  -48.9361 C.3       23 UNK        -0.0398 
      7 S7         -1.5825  -14.8794  -47.2751 S.3       23 UNK        -0.2404 
      8 C8         -3.3588  -14.6977  -47.6180 C.3       23 UNK        -0.0205 
      9 C9         -4.0441  -16.0339  -47.8601 C.ar      23 UNK        -0.0193 
     10 C10        -4.0647  -16.6038  -49.1355 C.ar      23 UNK        -0.1150 
     11 C11        -4.7769  -17.7828  -49.3771 C.ar      23 UNK        -0.0193 
     12 C12        -5.4640  -18.3994  -48.3259 C.ar      23 UNK        -0.1150 
     13 C13        -5.4329  -17.8501  -47.0394 C.ar      23 UNK        -0.0193 
     14 C14        -4.7152  -16.6718  -46.8140 C.ar      23 UNK        -0.1150 
     15 C15        -6.2091  -18.4926  -45.8951 C.3       23 UNK        -0.0205 
     16 S16        -5.6678  -20.1886  -45.5068 S.3       23 UNK        -0.2404 
     17 C17        -3.8775  -19.9756  -45.2189 C.3       23 UNK        -0.0398 
     18 CA         -3.0448  -20.5897  -46.3695 C.3       11 UNK         0.1400 
     19 N          -1.7101  -19.9965  -46.4679 N.am      11 UNK        -0.5000 
     20 C          -0.8726  -20.1914  -47.4965 C.2       10 UNK         0.5000 
     21 O          -1.1592  -20.8494  -48.4963 O.2       10 UNK        -0.5000 
     22 CA          0.5443  -19.6056  -47.3591 C.3       10 UNK         0.1400 
     23 CB          0.5533  -18.1090  -47.7014 C.3       10 UNK        -0.1800 
     24 N           1.1060  -19.8129  -46.0233 N.am      10 UNK        -0.5000 
     25 C           1.3538  -21.0132  -45.4793 C.2       9 UNK         0.5000 
     26 O           1.2039  -22.0768  -46.0785 O.2       9 UNK        -0.5000 
     27 CA          1.7838  -21.0350  -44.0013 C.3       9 UNK         0.1400 
     28 CB          3.2926  -20.7862  -43.8557 C.3       9 UNK        -0.1800 
     29 N           1.0366  -20.0691  -43.1944 N.am      9 UNK        -0.5000 
     30 C          -0.2763  -20.1559  -42.9342 C.2       8 UNK         0.5000 
     31 O          -0.9883  -21.0863  -43.3093 O.2       8 UNK        -0.5000 
     32 CA         -0.9111  -18.9794  -42.1742 C.3       8 UNK         0.1400 
     33 CB         -0.7298  -19.1436  -40.6583 C.3       8 UNK        -0.1800 
     34 N          -0.3590  -17.6959  -42.6077 N.am      8 UNK        -0.5000 
     35 C          -0.6050  -17.1502  -43.8088 C.2       7 UNK         0.5000 
     36 O          -1.3613  -17.6559  -44.6377 O.2       7 UNK        -0.5000 
     37 CA          0.1566  -15.8577  -44.1629 C.3       7 UNK         0.1400 
     38 CB         -0.6322  -14.6241  -43.6987 C.3       7 UNK        -0.1800 
     39 N           1.5062  -15.8158  -43.5987 N.am      7 UNK        -0.5000 
     40 C           2.4821  -16.6851  -43.9039 C.2       6 UNK         0.5000 
     41 O           2.3606  -17.5552  -44.7646 O.2       6 UNK        -0.5000 
     42 CA          3.7920  -16.6187  -43.0890 C.3       6 UNK         0.1400 
     43 CB          4.8923  -15.9233  -43.9039 C.3       6 UNK        -0.1800 
     44 N           3.6628  -15.9424  -41.7965 N.am      6 UNK        -0.5000 
     45 C           2.8173  -16.2760  -40.8104 C.2       5 UNK         0.5000 
     46 O           2.1121  -17.2850  -40.8344 O.2       5 UNK        -0.5000 
     47 CA          2.6798  -15.2814  -39.6376 C.3       5 UNK         0.1400 
     48 CB          3.4342  -15.8025  -38.4053 C.3       5 UNK        -0.1800 
     49 N           3.1299  -13.9122  -39.9297 N.am      5 UNK        -0.5000 
     50 C           2.6766  -13.1228  -40.9148 C.2       4 UNK         0.5000 
     51 O           1.8177  -13.4718  -41.7311 O.2       4 UNK        -0.5000 
     52 CA          3.3334  -11.7383  -41.0378 C.3       4 UNK         0.1400 
     53 CB          4.8545  -11.8535  -41.2670 C.3       4 UNK        -0.1800 
     54 N           2.7246  -11.0320  -42.1588 N.am      4 UNK        -0.5000 
     55 C           2.7329   -9.7116  -42.3685 C.2       3 UNK         0.5000 
     56 O           3.2452   -8.9037  -41.5915 O.2       3 UNK        -0.5000 
     57 CA          2.0872   -9.2292  -43.6832 C.3       3 UNK         0.1400 
     58 CB          2.5634   -7.8246  -44.0979 C.3       3 UNK        -0.1800 
     59 N           2.3892  -10.1718  -44.7638 N.am      3 UNK        -0.5000 
     60 C           1.4910  -10.9146  -45.4171 C.2       2 UNK         0.5000 
     61 O           0.2729  -10.8535  -45.2265 O.2       2 UNK        -0.5000 
     62 CA          2.0570  -11.9171  -46.4340 C.3       2 UNK         0.1400 
     63 CB          2.7165  -13.1112  -45.7179 C.3       2 UNK        -0.1800 
     64 N           0.9594  -12.3656  -47.2806 N.am      2 UNK        -0.5000 
     65 C           1.0530  -13.0201  -48.4432 C.2       1 UNK         0.5000 
     66 O           2.1178  -13.3976  -48.9341 O.2       1 UNK        -0.5000 
     67 C          -2.9861  -22.1304  -46.2756 C.2       11 UNK         0.5000 
     68 O          -3.7365  -22.8097  -46.9750 O.2       11 UNK        -0.5000 
     69 N          -2.0700  -22.6600  -45.4519 N.am      12 UNK        -0.5000 
     70 CA         -1.8280  -24.0964  -45.2985 C.3       12 UNK         0.1400 
     71 CB         -0.8533  -24.3356  -44.1360 C.3       12 UNK        -0.1800 
     72 C          -1.3176  -24.7678  -46.5880 C.2       12 UNK         0.5000 
     73 O          -1.6832  -25.9120  -46.8537 O.2       12 UNK        -0.5000 
     74 N          -0.5066  -24.0438  -47.3720 N.am      13 UNK        -0.5000 
     75 CA         -0.0473  -24.4597  -48.6966 C.3       13 UNK         0.1400 
     76 CB          1.1153  -23.5606  -49.1462 C.3       13 UNK        -0.1800 
     77 C          -1.1785  -24.4531  -49.7416 C.2       13 UNK         0.5000 
     78 O          -1.2269  -25.3558  -50.5762 O.2       13 UNK        -0.5000 
     79 N          -2.0598  -23.4446  -49.6739 N.am      14 UNK        -0.5000 
     80 CA         -3.2226  -23.2937  -50.5493 C.3       14 UNK         0.1400 
     81 CB         -3.8097  -21.8839  -50.3783 C.3       14 UNK        -0.1800 
     82 C          -4.3090  -24.3589  -50.3049 C.2       14 UNK         0.5000 
     83 O          -4.9427  -24.8195  -51.2553 O.2       14 UNK        -0.5000 
     84 N          -4.5281  -24.7080  -49.0311 N.am      15 UNK        -0.5000 
     85 CA         -5.5178  -25.6849  -48.5856 C.3       15 UNK         0.1400 
     86 CB         -5.6320  -25.6172  -47.0547 C.3       15 UNK        -0.1800 
     87 C          -5.1808  -27.1176  -49.0409 C.2       15 UNK         0.5000 
     88 O          -4.0525  -27.5725  -48.8449 O.2       15 UNK        -0.5000 
     89 N          -6.1871  -27.8071  -49.6000 N.am      16 UNK        -0.5000 
     90 CA         -6.1784  -29.2176  -50.0164 C.3       16 UNK         0.1400 
     91 CB         -6.1093  -30.1380  -48.7792 C.3       16 UNK        -0.1800 
     92 C          -5.1116  -29.5694  -51.0793 C.2       16 UNK         0.5000 
     93 O          -4.6386  -30.7070  -51.1245 O.2       16 UNK        -0.5000 
     94 N          -4.7594  -28.5955  -51.9241 N.am      17 UNK        -0.5000 
     95 CA         -3.7670  -28.7044  -52.9893 C.3       17 UNK         0.1400 
     96 CB         -2.3453  -28.6078  -52.3929 C.3       17 UNK        -0.1800 
     97 C          -4.0567  -27.6227  -54.0452 C.2       17 UNK         0.5000 
     98 O          -5.1949  -27.1549  -54.1455 O.2       17 UNK        -0.5000 
     99 N          -3.0293  -27.2329  -54.8117 N.am      18 UNK        -0.5000 
    100 CA        -3.0457  -26.0537  -55.6793 C.3       18 UNK         0.1400 
    101 CB        -1.7700  -26.0454  -56.5357 C.3       18 UNK        -0.1800 
    102 C         -3.1479  -24.7614  -54.8455 C.2       18 UNK         0.5000 
    103 O         -2.6747  -24.7348  -53.7099 O.2       18 UNK        -0.5000 
    104 N         -3.7479  -23.7160  -55.4285 N.am      19 UNK        -0.5000 
    105 CA        -4.1350  -22.4710  -54.7528 C.3       19 UNK         0.1400 
    106 CB        -4.9705  -21.6280  -55.7276 C.3       19 UNK        -0.1800 
    107 C         -2.9854  -21.6309  -54.1559 C.2       19 UNK         0.5000 
    108 O         -3.2605  -20.7465  -53.3439 O.2       19 UNK        -0.5000 
    109 N         -1.7343  -21.9110  -54.5513 N.am      20 UNK        -0.5000 
    110 CA        -0.4961  -21.3064  -54.0498 C.3       20 UNK         0.1400 
    111 CB        -0.2166  -21.7883  -52.6061 C.3       20 UNK        -0.1800 
    112 C         -0.5146  -19.7724  -54.2124 C.2       20 UNK         0.5000 
    113 O         -0.5653  -19.2912  -55.3461 O.2       20 UNK        -0.5000 
    114 N         -0.5280  -19.0338  -53.0943 N.am      21 UNK        -0.5000 
    115 CA        -0.6242  -17.5724  -53.0449 C.3       21 UNK         0.1400 
    116 CB        -0.4446  -17.1120  -51.5911 C.3       21 UNK        -0.1800 
    117 C         -1.9337  -17.0035  -53.6317 C.2       21 UNK         0.5000 
    118 O         -1.9495  -15.8447  -54.0485 O.2       21 UNK        -0.5000 
    119 N         -2.9907  -17.8237  -53.6717 N.am      22 UNK        -0.5000 
    120 CA        -4.2729  -17.5202  -54.3233 C.3       22 UNK         0.1400 
    121 C         -4.3146  -17.9423  -55.8232 C.2       22 UNK         0.5000 
    122 N         -3.2563  -18.4990  -56.4034 N.am      22 UNK        -0.7600 
    123 O         -5.3279  -17.7433  -56.4874 O.2       22 UNK        -0.5000 
    124 C124       -5.4656  -18.1097  -53.5233 C.3       23 UNK        -0.0398 
    125 S125       -5.7092  -17.2685  -51.9236 S.3       23 UNK        -0.2404 
    126 C126       -4.8158  -18.3689  -50.7805 C.3       23 UNK        -0.0205 
    127 H127       -1.8597   -9.1552  -48.4515 H         1 UNK         0.0600 
    128 H128       -3.0312  -10.4752  -48.3978 H         1 UNK         0.0600 
    129 H129       -2.7718   -9.5876  -49.9021 H         1 UNK         0.0600 
    130 H130       -2.0285  -12.4635  -48.3697 H         1 UNK         0.3000 
    131 H131       -0.0117  -13.2299  -50.2696 H         1 UNK         0.0600 
    132 H132       -0.0742  -15.4356  -49.0621 H         1 UNK         0.0800 
    133 H133       -1.6015  -14.9044  -49.6886 H         1 UNK         0.0800 
    134 H134       -3.8210  -14.1979  -46.7653 H         1 UNK         0.0800 
    135 H135       -3.5202  -14.0378  -48.4712 H         1 UNK         0.0800 
    136 H136       -3.5569  -16.1148  -49.9541 H         1 UNK         0.1150 
    137 H137       -6.0266  -19.3048  -48.5056 H         1 UNK         0.1150 
    138 H138       -4.7002  -16.2322  -45.8265 H         1 UNK         0.1150 
    139 H139       -6.1334  -17.8891  -44.9892 H         1 UNK         0.0800 
    140 H140       -7.2676  -18.5144  -46.1574 H         1 UNK         0.0800 
    141 H141       -3.6109  -20.4121  -44.2548 H         1 UNK         0.0800 
    142 H142       -3.6654  -18.9102  -45.1258 H         1 UNK         0.0800 
    143 H143       -3.5440  -20.3469  -47.3100 H         1 UNK         0.0600 
    144 H144       -1.4214  -19.3890  -45.7083 H         1 UNK         0.3000 
    145 H145        1.1880  -20.1216  -48.0743 H         1 UNK         0.0600 
    146 H146        1.5627  -17.6991  -47.6647 H         1 UNK         0.0600 
    147 H147        0.1656  -17.9388  -48.7058 H         1 UNK         0.0600 
    148 H148       -0.0655  -17.5357  -47.0121 H         1 UNK         0.0600 
    149 H149        1.3306  -18.9800  -45.4857 H         1 UNK         0.3000 
    150 H150        1.5710  -22.0311  -43.6081 H         1 UNK         0.0600 
    151 H151        3.8622  -21.5465  -44.3914 H         1 UNK         0.0600 
    152 H152        3.6008  -20.8259  -42.8108 H         1 UNK         0.0600 
    153 H153        3.5884  -19.8175  -44.2569 H         1 UNK         0.0600 
    154 H154        1.5391  -19.2557  -42.8708 H         1 UNK         0.3000 
    155 H155       -1.9823  -18.9809  -42.3877 H         1 UNK         0.0600 
    156 H156       -1.1813  -18.3142  -40.1138 H         1 UNK         0.0600 
    157 H157       -1.2061  -20.0604  -40.3088 H         1 UNK         0.0600 
    158 H158        0.3225  -19.1967  -40.3781 H         1 UNK         0.0600 
    159 H159        0.3217  -17.2626  -41.9948 H         1 UNK         0.3000 
    160 H160        0.2561  -15.8178  -45.2482 H         1 UNK         0.0600 
    161 H161       -0.7148  -14.5854  -42.6119 H         1 UNK         0.0600 
    162 H162       -1.6439  -14.6318  -44.1063 H         1 UNK         0.0600 
    163 H163       -0.1583  -13.7006  -44.0311 H         1 UNK         0.0600 
    164 H164        1.6783  -15.1081  -42.8915 H         1 UNK         0.3000 
    165 H165        4.1036  -17.6465  -42.8936 H         1 UNK         0.0600 
    166 H166        5.8510  -15.9616  -43.3864 H         1 UNK         0.0600 
    167 H167        5.0280  -16.4071  -44.8723 H         1 UNK         0.0600 
    168 H168        4.6526  -14.8760  -44.0907 H         1 UNK         0.0600 
    169 H169        4.1966  -15.0941  -41.6826 H         1 UNK         0.3000 
    170 H170        1.6176  -15.2282  -39.3909 H         1 UNK         0.0600 
    171 H171        3.1044  -16.8080  -38.1401 H         1 UNK         0.0600 
    172 H172        4.5098  -15.8456  -38.5814 H         1 UNK         0.0600 
    173 H173        3.2600  -15.1668  -37.5370 H         1 UNK         0.0600 
    174 H174        3.8424  -13.5471  -39.3141 H         1 UNK         0.3000 
    175 H175        3.1372  -11.1892  -40.1148 H         1 UNK         0.0600 
    176 H176        5.3506  -12.3471  -40.4310 H         1 UNK         0.0600 
    177 H177        5.0811  -12.4234  -42.1692 H         1 UNK         0.0600 
    178 H178        5.3157  -10.8714  -41.3712 H         1 UNK         0.0600 
    179 H179        2.2169  -11.6342  -42.7947 H         1 UNK         0.3000 
    180 H180        1.0118   -9.1794  -43.5012 H         1 UNK         0.0600 
    181 H181        3.6439   -7.7927  -44.2433 H         1 UNK         0.0600 
    182 H182        2.3094   -7.0829  -43.3397 H         1 UNK         0.0600 
    183 H183        2.0908   -7.5091  -45.0282 H         1 UNK         0.0600 
    184 H184        3.3711  -10.3066  -44.9623 H         1 UNK         0.3000 
    185 H185        2.7938  -11.4041  -47.0553 H         1 UNK         0.0600 
    186 H186        3.1248  -13.8331  -46.4250 H         1 UNK         0.0600 
    187 H187        3.5392  -12.7857  -45.0806 H         1 UNK         0.0600 
    188 H188        2.0003  -13.6329  -45.0866 H         1 UNK         0.0600 
    189 H189        0.0491  -12.0670  -46.9514 H         1 UNK         0.3000 
    190 H190       -1.5204  -22.0417  -44.8610 H         1 UNK         0.3000 
    191 H191       -2.7809  -24.5635  -45.0411 H         1 UNK         0.0600 
    192 H192        0.1204  -23.8857  -44.3286 H         1 UNK         0.0600 
    193 H193       -0.6949  -25.4023  -43.9735 H         1 UNK         0.0600 
    194 H194       -1.2380  -23.9182  -43.2053 H         1 UNK         0.0600 
    195 H195       -0.1792  -23.1439  -47.0353 H         1 UNK         0.3000 
    196 H196        0.3287  -25.4821  -48.6187 H         1 UNK         0.0600 
    197 H197        1.4946  -23.8724  -50.1200 H         1 UNK         0.0600 
    198 H198        1.9457  -23.6081  -48.4416 H         1 UNK         0.0600 
    199 H199        0.8103  -22.5178  -49.2332 H         1 UNK         0.0600 
    200 H200       -1.9086  -22.7103  -48.9910 H         1 UNK         0.3000 
    201 H201       -2.8774  -23.3887  -51.5781 H         1 UNK         0.0600 
    202 H202       -3.0647  -21.1156  -50.5845 H         1 UNK         0.0600 
    203 H203       -4.1885  -21.7179  -49.3701 H         1 UNK         0.0600 
    204 H204       -4.6381  -21.7262  -51.0695 H         1 UNK         0.0600 
    205 H205       -4.0006  -24.2332  -48.3048 H         1 UNK         0.3000 
    206 H206       -6.4814  -25.3953  -49.0100 H         1 UNK         0.0600 
    207 H207       -5.9413  -24.6250  -46.7253 H         1 UNK         0.0600 
    208 H208       -6.3709  -26.3290  -46.6845 H         1 UNK         0.0600 
    209 H209       -4.6810  -25.8477  -46.5724 H         1 UNK         0.0600 
    210 H210       -7.0688  -27.3310  -49.7326 H         1 UNK         0.3000 
    211 H211       -7.1410  -29.3940  -50.4982 H         1 UNK         0.0600 
    212 H212       -5.1463  -30.0616  -48.2731 H         1 UNK         0.0600 
    213 H213       -6.2511  -31.1830  -49.0570 H         1 UNK         0.0600 
    214 H214       -6.8877  -29.8889  -48.0580 H         1 UNK         0.0600 
    215 H215       -5.2202  -27.6960  -51.8646 H         1 UNK         0.3000 
    216 H216       -3.8821  -29.6711  -53.4834 H         1 UNK         0.0600 
    217 H217       -2.1602  -27.6203  -51.9673 H         1 UNK         0.0600 
    218 H218       -1.5792  -28.7976  -53.1449 H         1 UNK         0.0600 
    219 H219       -2.1942  -29.3408  -51.6004 H         1 UNK         0.0600 
    220 H220       -2.1241  -27.6452  -54.6421 H         1 UNK         0.3000 
    221 H221       -3.9146  -26.1207  -56.3375 H         1 UNK         0.0600 
    222 H222       -1.6957  -26.9484  -57.1420 H         1 UNK         0.0600 
    223 H223       -0.8721  -25.9792  -55.9197 H         1 UNK         0.0600 
    224 H224       -1.7624  -25.1954  -57.2191 H         1 UNK         0.0600 
    225 H225       -4.0730  -23.8174  -56.3792 H         1 UNK         0.3000 
    226 H226       -4.7771  -22.7499  -53.9145 H         1 UNK         0.0600 
    227 H227       -5.8359  -22.1824  -56.0909 H         1 UNK         0.0600 
    228 H228       -5.3495  -20.7283  -55.2436 H         1 UNK         0.0600 
    229 H229       -4.3836  -21.3143  -56.5916 H         1 UNK         0.0600 
    230 H230       -1.6195  -22.6373  -55.2425 H         1 UNK         0.3000 
    231 H231        0.3116  -21.6734  -54.6843 H         1 UNK         0.0600 
    232 H232       -0.9900  -21.4744  -51.9046 H         1 UNK         0.0600 
    233 H233        0.7391  -21.4110  -52.2404 H         1 UNK         0.0600 
    234 H234       -0.1674  -22.8768  -52.5642 H         1 UNK         0.0600 
    235 H235       -0.5219  -19.5147  -52.2068 H         1 UNK         0.3000 
    236 H236        0.1995  -17.1674  -53.6363 H         1 UNK         0.0600 
    237 H237        0.5065  -17.4533  -51.1821 H         1 UNK         0.0600 
    238 H238       -0.4486  -16.0235  -51.5328 H         1 UNK         0.0600 
    239 H239       -1.2436  -17.4827  -50.9472 H         1 UNK         0.0600 
    240 H240       -2.8857  -18.7816  -53.3521 H         1 UNK         0.3000 
    241 H241       -4.4057  -16.4369  -54.3393 H         1 UNK         0.0600 
    242 H242       -3.3080  -18.7447  -57.3788 H         1 UNK         0.3800 
    243 H243       -2.3932  -18.6592  -55.8963 H         1 UNK         0.3800 
    244 H244       -5.3453  -19.1810  -53.3635 H         1 UNK         0.0800 
    245 H245       -6.3975  -17.9930  -54.0787 H         1 UNK         0.0800 
    246 H246       -5.2986  -19.3466  -50.7788 H         1 UNK         0.0800 
    247 H247       -3.7948  -18.5249  -51.1296 H         1 UNK         0.0800 
@<TRIPOS>BOND
     1    1    2 1    
     2    1  127 1    
     3    1  128 1    
     4    1  129 1    
     5    2    3 2    
     6    2    4 am   BACKBONE|DICT|INTERRES
     7    4    5 1    
     8    4  130 1    
     9    5    6 1    
    10    5   65 1    
    11    5  131 1    
    12    6    7 1    
    13    6  132 1    
    14    6  133 1    
    15    7    8 1    
    16    8    9 1    
    17    8  134 1    
    18    8  135 1    
    19    9   10 ar   
    20    9   14 ar   
    21   10   11 ar   
    22   10  136 1    
    23   11   12 ar   
    24   11  126 1    
    25   12   13 ar   
    26   12  137 1    
    27   13   14 ar   
    28   13   15 1    
    29   14  138 1    
    30   15   16 1    
    31   15  139 1    
    32   15  140 1    
    33   16   17 1    
    34   17   18 1    
    35   17  141 1    
    36   17  142 1    
    37   18   19 1    
    38   18   67 1    
    39   18  143 1    
    40   19   20 am   BACKBONE|DICT|INTERRES
    41   19  144 1    
    42   20   21 2    
    43   20   22 1    
    44   22   23 1    
    45   22   24 1    
    46   22  145 1    
    47   23  146 1    
    48   23  147 1    
    49   23  148 1    
    50   24   25 am   BACKBONE|DICT|INTERRES
    51   24  149 1    
    52   25   26 2    
    53   25   27 1    
    54   27   28 1    
    55   27   29 1    
    56   27  150 1    
    57   28  151 1    
    58   28  152 1    
    59   28  153 1    
    60   29   30 am   BACKBONE|DICT|INTERRES
    61   29  154 1    
    62   30   31 2    
    63   30   32 1    
    64   32   33 1    
    65   32   34 1    
    66   32  155 1    
    67   33  156 1    
    68   33  157 1    
    69   33  158 1    
    70   34   35 am   BACKBONE|DICT|INTERRES
    71   34  159 1    
    72   35   36 2    
    73   35   37 1    
    74   37   38 1    
    75   37   39 1    
    76   37  160 1    
    77   38  161 1    
    78   38  162 1    
    79   38  163 1    
    80   39   40 am   BACKBONE|DICT|INTERRES
    81   39  164 1    
    82   40   41 2    
    83   40   42 1    
    84   42   43 1    
    85   42   44 1    
    86   42  165 1    
    87   43  166 1    
    88   43  167 1    
    89   43  168 1    
    90   44   45 am   BACKBONE|DICT|INTERRES
    91   44  169 1    
    92   45   46 2    
    93   45   47 1    
    94   47   48 1    
    95   47   49 1    
    96   47  170 1    
    97   48  171 1    
    98   48  172 1    
    99   48  173 1    
   100   49   50 am   BACKBONE|DICT|INTERRES
   101   49  174 1    
   102   50   51 2    
   103   50   52 1    
   104   52   53 1    
   105   52   54 1    
   106   52  175 1    
   107   53  176 1    
   108   53  177 1    
   109   53  178 1    
   110   54   55 am   BACKBONE|DICT|INTERRES
   111   54  179 1    
   112   55   56 2    
   113   55   57 1    
   114   57   58 1    
   115   57   59 1    
   116   57  180 1    
   117   58  181 1    
   118   58  182 1    
   119   58  183 1    
   120   59   60 am   BACKBONE|DICT|INTERRES
   121   59  184 1    
   122   60   61 2    
   123   60   62 1    
   124   62   63 1    
   125   62   64 1    
   126   62  185 1    
   127   63  186 1    
   128   63  187 1    
   129   63  188 1    
   130   64   65 am   BACKBONE|DICT|INTERRES
   131   64  189 1    
   132   65   66 2    
   133   67   68 2    
   134   67   69 am   BACKBONE|DICT|INTERRES
   135   69   70 1    
   136   69  190 1    
   137   70   71 1    
   138   70   72 1    
   139   70  191 1    
   140   71  192 1    
   141   71  193 1    
   142   71  194 1    
   143   72   73 2    
   144   72   74 am   BACKBONE|DICT|INTERRES
   145   74   75 1    
   146   74  195 1    
   147   75   76 1    
   148   75   77 1    
   149   75  196 1    
   150   76  197 1    
   151   76  198 1    
   152   76  199 1    
   153   77   78 2    
   154   77   79 am   BACKBONE|DICT|INTERRES
   155   79   80 1    
   156   79  200 1    
   157   80   81 1    
   158   80   82 1    
   159   80  201 1    
   160   81  202 1    
   161   81  203 1    
   162   81  204 1    
   163   82   83 2    
   164   82   84 am   BACKBONE|DICT|INTERRES
   165   84   85 1    
   166   84  205 1    
   167   85   86 1    
   168   85   87 1    
   169   85  206 1    
   170   86  207 1    
   171   86  208 1    
   172   86  209 1    
   173   87   88 2    
   174   87   89 am   BACKBONE|DICT|INTERRES
   175   89   90 1    
   176   89  210 1    
   177   90   91 1    
   178   90   92 1    
   179   90  211 1    
   180   91  212 1    
   181   91  213 1    
   182   91  214 1    
   183   92   93 2    
   184   92   94 am   BACKBONE|DICT|INTERRES
   185   94   95 1    
   186   94  215 1    
   187   95   96 1    
   188   95   97 1    
   189   95  216 1    
   190   96  217 1    
   191   96  218 1    
   192   96  219 1    
   193   97   98 2    
   194   97   99 am   BACKBONE|DICT|INTERRES
   195   99  100 1    
   196   99  220 1    
   197  100  101 1    
   198  100  102 1    
   199  100  221 1    
   200  101  222 1    
   201  101  223 1    
   202  101  224 1    
   203  102  103 2    
   204  102  104 am   BACKBONE|DICT|INTERRES
   205  104  105 1    
   206  104  225 1    
   207  105  106 1    
   208  105  107 1    
   209  105  226 1    
   210  106  227 1    
   211  106  228 1    
   212  106  229 1    
   213  107  108 2    
   214  107  109 am   BACKBONE|DICT|INTERRES
   215  109  110 1    
   216  109  230 1    
   217  110  111 1    
   218  110  112 1    
   219  110  231 1    
   220  111  232 1    
   221  111  233 1    
   222  111  234 1    
   223  112  113 2    
   224  112  114 am   BACKBONE|DICT|INTERRES
   225  114  115 1    
   226  114  235 1    
   227  115  116 1    
   228  115  117 1    
   229  115  236 1    
   230  116  237 1    
   231  116  238 1    
   232  116  239 1    
   233  117  118 2    
   234  117  119 am   BACKBONE|DICT|INTERRES
   235  119  120 1    
   236  119  240 1    
   237  120  121 1    
   238  120  124 1    
   239  120  241 1    
   240  121  122 am   BACKBONE|DICT|INTERRES
   241  121  123 2    
   242  122  242 1    
   243  122  243 1    
   244  124  125 1    
   245  124  244 1    
   246  124  245 1    
   247  125  126 1    
   248  126  246 1    
   249  126  247 1    
@<TRIPOS>SUBSTRUCTURE
     1 UNK         1 GROUP             0       ****    0 ROOT    
