@<TRIPOS>MOLECULE
3R540
247   249    1
SMALL
USER_CHARGES


@<TRIPOS>ATOM
      1 CA         -2.6106  -10.3898  -49.8199 C.3       0 UNK        -0.1800 
      2 C          -1.7010  -11.6031  -49.6888 C.2       0 UNK         0.5000 
      3 O          -1.0590  -11.9941  -50.6632 O.2       0 UNK        -0.5000 
      4 N          -1.6448  -12.1953  -48.4886 N.am      1 UNK        -0.5000 
      5 CA         -0.8408  -13.3839  -48.1687 C.3       1 UNK         0.1400 
      6 C6         -1.2562  -14.0128  -46.8160 C.3       23 UNK        -0.0398 
      7 S7         -3.0066  -14.5376  -46.8047 S.3       23 UNK        -0.2404 
      8 C8         -2.8826  -16.3454  -46.9952 C.3       23 UNK        -0.0205 
      9 C9         -2.2077  -16.7438  -48.2988 C.ar      23 UNK        -0.0193 
     10 C10        -2.9330  -16.7567  -49.4942 C.ar      23 UNK        -0.1150 
     11 C11        -2.3097  -17.0955  -50.6991 C.ar      23 UNK        -0.0193 
     12 C12        -0.9513  -17.4319  -50.6919 C.ar      23 UNK        -0.1150 
     13 C13        -0.2152  -17.4239  -49.5059 C.ar      23 UNK        -0.0193 
     14 C14        -0.8529  -17.0878  -48.3104 C.ar      23 UNK        -0.1150 
     15 C15         1.2757  -17.7300  -49.5348 C.3       23 UNK        -0.0205 
     16 S16         1.6243  -19.5163  -49.4728 S.3       23 UNK        -0.2404 
     17 C17         1.4965  -19.8398  -47.6820 C.3       23 UNK        -0.0398 
     18 CA          1.0470  -21.2782  -47.3310 C.3       11 UNK         0.1400 
     19 N           1.1818  -21.5325  -45.8969 N.am      11 UNK        -0.5000 
     20 C           1.0915  -22.7325  -45.3093 C.2       10 UNK         0.5000 
     21 O           0.9860  -23.7924  -45.9260 O.2       10 UNK        -0.5000 
     22 CA          1.0871  -22.7476  -43.7683 C.3       10 UNK         0.1400 
     23 CB          2.5214  -22.7608  -43.2195 C.3       10 UNK        -0.1800 
     24 N           0.3474  -21.6249  -43.1845 N.am      10 UNK        -0.5000 
     25 C          -0.9680  -21.4188  -43.3488 C.2       9 UNK         0.5000 
     26 O          -1.7020  -22.1695  -43.9900 O.2       9 UNK        -0.5000 
     27 CA         -1.5586  -20.1387  -42.7324 C.3       9 UNK         0.1400 
     28 CB         -1.7851  -20.3131  -41.2235 C.3       9 UNK        -0.1800 
     29 N          -0.7305  -18.9582  -42.9790 N.am      9 UNK        -0.5000 
     30 C          -0.4706  -18.4568  -44.1953 C.2       8 UNK         0.5000 
     31 O          -0.9317  -18.9148  -45.2392 O.2       8 UNK        -0.5000 
     32 CA          0.5197  -17.2835  -44.2671 C.3       8 UNK         0.1400 
     33 CB         -0.1456  -15.9706  -43.8270 C.3       8 UNK        -0.1800 
     34 N           1.7120  -17.5218  -43.4601 N.am      8 UNK        -0.5000 
     35 C           2.5787  -18.5283  -43.6289 C.2       7 UNK         0.5000 
     36 O           2.5080  -19.3471  -44.5443 O.2       7 UNK        -0.5000 
     37 CA          3.6760  -18.6733  -42.5614 C.3       7 UNK         0.1400 
     38 CB          4.8606  -17.7394  -42.8485 C.3       7 UNK        -0.1800 
     39 N           3.1677  -18.4126  -41.2150 N.am      7 UNK        -0.5000 
     40 C           2.3365  -19.2226  -40.5469 C.2       6 UNK         0.5000 
     41 O           1.9225  -20.2944  -40.9899 O.2       6 UNK        -0.5000 
     42 CA          1.8688  -18.7341  -39.1633 C.3       6 UNK         0.1400 
     43 CB          2.9444  -19.0024  -38.0999 C.3       6 UNK        -0.1800 
     44 N           1.5169  -17.3120  -39.1519 N.am      6 UNK        -0.5000 
     45 C           0.4538  -16.8009  -39.7873 C.2       5 UNK         0.5000 
     46 O          -0.3339  -17.4764  -40.4493 O.2       5 UNK        -0.5000 
     47 CA          0.2514  -15.2746  -39.7022 C.3       5 UNK         0.1400 
     48 CB         -0.4122  -14.8955  -38.3694 C.3       5 UNK        -0.1800 
     49 N           1.4562  -14.4552  -39.8939 N.am      5 UNK        -0.5000 
     50 C           2.3362  -14.5765  -40.8967 C.2       4 UNK         0.5000 
     51 O           2.3531  -15.5236  -41.6822 O.2       4 UNK        -0.5000 
     52 CA          3.3917  -13.4650  -41.0451 C.3       4 UNK         0.1400 
     53 CB          4.5924  -13.7461  -40.1289 C.3       4 UNK        -0.1800 
     54 N           3.8658  -13.3709  -42.4292 N.am      4 UNK        -0.5000 
     55 C           3.1118  -12.9965  -43.4716 C.2       3 UNK         0.5000 
     56 O           1.9725  -12.5310  -43.3695 O.2       3 UNK        -0.5000 
     57 CA          3.7284  -13.2081  -44.8615 C.3       3 UNK         0.1400 
     58 CB          3.7209  -14.7001  -45.2478 C.3       3 UNK        -0.1800 
     59 N           2.9655  -12.4501  -45.8467 N.am      3 UNK        -0.5000 
     60 C           3.4260  -12.0327  -47.0306 C.2       2 UNK         0.5000 
     61 O           4.5844  -12.2164  -47.4107 O.2       2 UNK        -0.5000 
     62 CA          2.4182  -11.2885  -47.9350 C.3       2 UNK         0.1400 
     63 CB          2.8969  -11.1736  -49.3975 C.3       2 UNK        -0.1800 
     64 N           1.0583  -11.8432  -47.8917 N.am      2 UNK        -0.5000 
     65 C           0.6773  -13.0983  -48.1866 C.2       1 UNK         0.5000 
     66 O           1.4555  -14.0083  -48.4733 O.2       1 UNK        -0.5000 
     67 C          -0.3875  -21.5837  -47.8103 C.2       11 UNK         0.5000 
     68 O          -0.5636  -22.3709  -48.7414 O.2       11 UNK        -0.5000 
     69 N          -1.3857  -20.9892  -47.1392 N.am      12 UNK        -0.5000 
     70 CA         -2.8057  -21.1247  -47.4620 C.3       12 UNK         0.1400 
     71 CB         -3.6323  -20.1862  -46.5741 C.3       12 UNK        -0.1800 
     72 C          -3.3384  -22.5633  -47.3591 C.2       12 UNK         0.5000 
     73 O          -4.2169  -22.9299  -48.1386 O.2       12 UNK        -0.5000 
     74 N          -2.7807  -23.3675  -46.4448 N.am      13 UNK        -0.5000 
     75 CA         -3.1252  -24.7742  -46.2102 C.3       13 UNK         0.1400 
     76 CB         -2.3019  -25.2977  -45.0224 C.3       13 UNK        -0.1800 
     77 C          -2.9718  -25.7131  -47.4285 C.2       13 UNK         0.5000 
     78 O          -3.4665  -26.8397  -47.3733 O.2       13 UNK        -0.5000 
     79 N          -2.3136  -25.2483  -48.5012 N.am      14 UNK        -0.5000 
     80 CA         -2.1526  -25.9541  -49.7716 C.3       14 UNK         0.1400 
     81 CB         -1.2663  -25.1136  -50.7034 C.3       14 UNK        -0.1800 
     82 C          -3.4859  -26.3121  -50.4623 C.2       14 UNK         0.5000 
     83 O          -3.6024  -27.4205  -50.9868 O.2       14 UNK        -0.5000 
     84 N          -4.4650  -25.3939  -50.4402 N.am      15 UNK        -0.5000 
     85 CA         -5.7922  -25.5922  -51.0395 C.3       15 UNK         0.1400 
     86 CB         -5.7144  -25.5155  -52.5808 C.3       15 UNK        -0.1800 
     87 C          -6.8567  -24.6340  -50.4689 C.2       15 UNK         0.5000 
     88 O          -7.8395  -24.3543  -51.1564 O.2       15 UNK        -0.5000 
     89 N          -6.6526  -24.1429  -49.2353 N.am      16 UNK        -0.5000 
     90 CA         -7.4209  -23.0749  -48.5768 C.3       16 UNK         0.1400 
     91 CB         -8.8820  -23.4981  -48.3148 C.3       16 UNK        -0.1800 
     92 C          -7.2873  -21.7570  -49.3672 C.2       16 UNK         0.5000 
     93 O          -8.2741  -21.2201  -49.8734 O.2       16 UNK        -0.5000 
     94 N          -6.0272  -21.3195  -49.4963 N.am      17 UNK        -0.5000 
     95 CA         -5.5036  -20.3336  -50.4405 C.3       17 UNK         0.1400 
     96 CB         -6.1526  -18.9434  -50.2530 C.3       17 UNK        -0.1800 
     97 C          -5.5824  -20.9197  -51.8645 C.2       17 UNK         0.5000 
     98 O          -4.9869  -21.9734  -52.1028 O.2       17 UNK        -0.5000 
     99 N          -6.3285  -20.2565  -52.7570 N.am      18 UNK        -0.5000 
    100 CA        -6.7829  -20.7462  -54.0611 C.3       18 UNK         0.1400 
    101 CB        -7.8409  -21.8534  -53.8466 C.3       18 UNK        -0.1800 
    102 C         -5.6528  -21.1710  -55.0272 C.2       18 UNK         0.5000 
    103 O         -4.5187  -20.6872  -54.9274 O.2       18 UNK        -0.5000 
    104 N         -5.9967  -22.0551  -55.9727 N.am      19 UNK        -0.5000 
    105 CA        -5.1840  -22.5496  -57.0870 C.3       19 UNK         0.1400 
    106 CB        -6.1298  -23.1437  -58.1469 C.3       19 UNK        -0.1800 
    107 C         -4.0634  -23.5338  -56.6793 C.2       19 UNK         0.5000 
    108 O         -3.8171  -24.5136  -57.3855 O.2       19 UNK        -0.5000 
    109 N         -3.3895  -23.2503  -55.5624 N.am      20 UNK        -0.5000 
    110 CA        -2.1923  -23.9477  -55.1060 C.3       20 UNK         0.1400 
    111 CB        -2.5600  -25.1390  -54.2082 C.3       20 UNK        -0.1800 
    112 C         -1.2652  -22.9643  -54.3852 C.2       20 UNK         0.5000 
    113 O         -0.0747  -22.9228  -54.6968 O.2       20 UNK        -0.5000 
    114 N         -1.8224  -22.1757  -53.4536 N.am      21 UNK        -0.5000 
    115 CA        -1.0707  -21.1639  -52.7111 C.3       21 UNK         0.1400 
    116 CB        -1.8222  -20.8206  -51.4200 C.3       21 UNK        -0.1800 
    117 C         -0.8145  -19.9022  -53.5575 C.2       21 UNK         0.5000 
    118 O          0.3027  -19.3848  -53.5425 O.2       21 UNK        -0.5000 
    119 N         -1.8427  -19.4475  -54.2876 N.am      22 UNK        -0.5000 
    120 CA        -1.7837  -18.2944  -55.2039 C.3       22 UNK         0.1400 
    121 C         -1.9939  -18.7143  -56.6825 C.2       22 UNK         0.5000 
    122 N         -2.8281  -19.7029  -56.9744 N.am      22 UNK        -0.7600 
    123 O         -1.3847  -18.1391  -57.5801 O.2       22 UNK        -0.5000 
    124 C124       -2.7988  -17.1887  -54.8091 C.3       23 UNK        -0.0398 
    125 S125       -2.2528  -16.2399  -53.3509 S.3       23 UNK        -0.2404 
    126 C126       -3.1065  -17.1132  -51.9991 C.3       23 UNK        -0.0205 
    127 H127       -2.0301   -9.5161  -50.1162 H         1 UNK         0.0600 
    128 H128       -3.1178  -10.1594  -48.8827 H         1 UNK         0.0600 
    129 H129       -3.3694  -10.5707  -50.5812 H         1 UNK         0.0600 
    130 H130       -2.2209  -11.8439  -47.7369 H         1 UNK         0.3000 
    131 H131       -1.0261  -14.1218  -48.9527 H         1 UNK         0.0600 
    132 H132       -0.6222  -14.8665  -46.5766 H         1 UNK         0.0800 
    133 H133       -1.1119  -13.2992  -46.0030 H         1 UNK         0.0800 
    134 H134       -2.3512  -16.7683  -46.1430 H         1 UNK         0.0800 
    135 H135       -3.8878  -16.7679  -46.9634 H         1 UNK         0.0800 
    136 H136       -3.9807  -16.4909  -49.4839 H         1 UNK         0.1150 
    137 H137       -0.4572  -17.6896  -51.6172 H         1 UNK         0.1150 
    138 H138       -0.2893  -17.0723  -47.3902 H         1 UNK         0.1150 
    139 H139        1.7062  -17.3254  -50.4520 H         1 UNK         0.0800 
    140 H140        1.7878  -17.2214  -48.7161 H         1 UNK         0.0800 
    141 H141        0.8307  -19.1123  -47.2206 H         1 UNK         0.0800 
    142 H142        2.4823  -19.6509  -47.2550 H         1 UNK         0.0800 
    143 H143        1.7176  -21.9707  -47.8444 H         1 UNK         0.0600 
    144 H144        1.3447  -20.7201  -45.3095 H         1 UNK         0.3000 
    145 H145        0.5939  -23.6685  -43.4505 H         1 UNK         0.0600 
    146 H146        2.5270  -22.8479  -42.1329 H         1 UNK         0.0600 
    147 H147        3.0838  -23.6066  -43.6168 H         1 UNK         0.0600 
    148 H148        3.0624  -21.8526  -43.4852 H         1 UNK         0.0600 
    149 H149        0.8774  -20.9813  -42.6058 H         1 UNK         0.3000 
    150 H150       -2.5296  -19.9651  -43.2006 H         1 UNK         0.0600 
    151 H151       -2.3990  -21.1910  -41.0186 H         1 UNK         0.0600 
    152 H152       -2.3011  -19.4505  -40.8016 H         1 UNK         0.0600 
    153 H153       -0.8447  -20.4354  -40.6853 H         1 UNK         0.0600 
    154 H154       -0.3438  -18.4973  -42.1610 H         1 UNK         0.3000 
    155 H155        0.8389  -17.1762  -45.3051 H         1 UNK         0.0600 
    156 H156       -0.4044  -15.9876  -42.7690 H         1 UNK         0.0600 
    157 H157       -1.0662  -15.7867  -44.3797 H         1 UNK         0.0600 
    158 H158        0.5133  -15.1182  -43.9928 H         1 UNK         0.0600 
    159 H159        1.8842  -16.8627  -42.7012 H         1 UNK         0.3000 
    160 H160        4.0399  -19.7021  -42.5994 H         1 UNK         0.0600 
    161 H161        4.5893  -16.6925  -42.7148 H         1 UNK         0.0600 
    162 H162        5.2198  -17.8620  -43.8712 H         1 UNK         0.0600 
    163 H163        5.6965  -17.9524  -42.1822 H         1 UNK         0.0600 
    164 H164        3.3853  -17.5103  -40.8170 H         1 UNK         0.3000 
    165 H165        0.9782  -19.3067  -38.8951 H         1 UNK         0.0600 
    166 H166        2.5879  -18.7387  -37.1040 H         1 UNK         0.0600 
    167 H167        3.2157  -20.0587  -38.0778 H         1 UNK         0.0600 
    168 H168        3.8548  -18.4334  -38.2925 H         1 UNK         0.0600 
    169 H169        2.1252  -16.6875  -38.6433 H         1 UNK         0.3000 
    170 H170       -0.4384  -15.0033  -40.5035 H         1 UNK         0.0600 
    171 H171       -1.3210  -15.4763  -38.2049 H         1 UNK         0.0600 
    172 H172        0.2515  -15.0774  -37.5233 H         1 UNK         0.0600 
    173 H173       -0.6955  -13.8429  -38.3541 H         1 UNK         0.0600 
    174 H174        1.5448  -13.6605  -39.2773 H         1 UNK         0.3000 
    175 H175        2.9416  -12.5103  -40.7658 H         1 UNK         0.0600 
    176 H176        5.0725  -14.6946  -40.3740 H         1 UNK         0.0600 
    177 H177        5.3428  -12.9594  -40.2096 H         1 UNK         0.0600 
    178 H178        4.2860  -13.7941  -39.0832 H         1 UNK         0.0600 
    179 H179        4.7778  -13.7631  -42.6094 H         1 UNK         0.3000 
    180 H180        4.7560  -12.8391  -44.8365 H         1 UNK         0.0600 
    181 H181        2.7103  -15.1100  -45.2477 H         1 UNK         0.0600 
    182 H182        4.3154  -15.2895  -44.5516 H         1 UNK         0.0600 
    183 H183        4.1422  -14.8570  -46.2408 H         1 UNK         0.0600 
    184 H184        2.0222  -12.2213  -45.5604 H         1 UNK         0.3000 
    185 H185        2.3480  -10.2764  -47.5342 H         1 UNK         0.0600 
    186 H186        3.8470  -10.6418  -49.4600 H         1 UNK         0.0600 
    187 H187        3.0388  -12.1540  -49.8534 H         1 UNK         0.0600 
    188 H188        2.1782  -10.6236  -50.0051 H         1 UNK         0.0600 
    189 H189        0.3284  -11.1821  -47.6659 H         1 UNK         0.3000 
    190 H190       -1.1599  -20.3450  -46.3840 H         1 UNK         0.3000 
    191 H191       -2.9272  -20.8049  -48.4976 H         1 UNK         0.0600 
    192 H192       -3.3199  -19.1518  -46.7047 H         1 UNK         0.0600 
    193 H193       -4.6927  -20.2396  -46.8240 H         1 UNK         0.0600 
    194 H194       -3.5263  -20.4368  -45.5181 H         1 UNK         0.0600 
    195 H195       -2.1089  -22.9599  -45.8020 H         1 UNK         0.3000 
    196 H196       -4.1792  -24.8019  -45.9279 H         1 UNK         0.0600 
    197 H197       -2.5361  -26.3411  -44.8073 H         1 UNK         0.0600 
    198 H198       -2.5111  -24.7303  -44.1157 H         1 UNK         0.0600 
    199 H199       -1.2315  -25.2353  -45.2193 H         1 UNK         0.0600 
    200 H200       -1.9239  -24.3154  -48.4531 H         1 UNK         0.3000 
    201 H201       -1.6295  -26.8885  -49.5584 H         1 UNK         0.0600 
    202 H202       -1.0539  -25.6510  -51.6274 H         1 UNK         0.0600 
    203 H203       -0.3080  -24.8837  -50.2371 H         1 UNK         0.0600 
    204 H204       -1.7416  -24.1690  -50.9701 H         1 UNK         0.0600 
    205 H205       -4.2902  -24.4972  -50.0050 H         1 UNK         0.3000 
    206 H206       -6.1348  -26.5937  -50.7717 H         1 UNK         0.0600 
    207 H207       -5.0327  -26.2618  -52.9864 H         1 UNK         0.0600 
    208 H208       -6.6861  -25.7029  -53.0387 H         1 UNK         0.0600 
    209 H209       -5.3809  -24.5328  -52.9149 H         1 UNK         0.0600 
    210 H210       -5.8095  -24.4141  -48.7481 H         1 UNK         0.3000 
    211 H211       -6.9540  -22.9080  -47.6048 H         1 UNK         0.0600 
    212 H212       -9.4463  -23.6335  -49.2375 H         1 UNK         0.0600 
    213 H213       -9.4021  -22.7410  -47.7272 H         1 UNK         0.0600 
    214 H214       -8.9264  -24.4321  -47.7548 H         1 UNK         0.0600 
    215 H215       -5.3154  -21.8986  -49.0546 H         1 UNK         0.3000 
    216 H216       -4.4471  -20.2248  -50.2041 H         1 UNK         0.0600 
    217 H217       -5.6817  -18.2023  -50.8980 H         1 UNK         0.0600 
    218 H218       -6.0296  -18.5961  -49.2270 H         1 UNK         0.0600 
    219 H219       -7.2195  -18.9409  -50.4753 H         1 UNK         0.0600 
    220 H220       -6.7404  -19.3838  -52.4607 H         1 UNK         0.3000 
    221 H221       -7.2798  -19.9010  -54.5387 H         1 UNK         0.0600 
    222 H222       -7.3875  -22.7799  -53.4911 H         1 UNK         0.0600 
    223 H223       -8.5822  -21.5497  -53.1067 H         1 UNK         0.0600 
    224 H224       -8.3872  -22.0768  -54.7633 H         1 UNK         0.0600 
    225 H225       -6.9380  -22.4183  -55.9397 H         1 UNK         0.3000 
    226 H226       -4.6894  -21.6918  -57.5438 H         1 UNK         0.0600 
    227 H227       -6.8802  -22.4170  -58.4589 H         1 UNK         0.0600 
    228 H228       -5.5833  -23.4416  -59.0427 H         1 UNK         0.0600 
    229 H229       -6.6510  -24.0247  -57.7702 H         1 UNK         0.0600 
    230 H230       -3.6433  -22.4014  -55.0689 H         1 UNK         0.3000 
    231 H231       -1.6477  -24.3265  -55.9740 H         1 UNK         0.0600 
    232 H232       -3.0193  -24.8118  -53.2759 H         1 UNK         0.0600 
    233 H233       -1.6722  -25.7176  -53.9530 H         1 UNK         0.0600 
    234 H234       -3.2531  -25.8147  -54.7092 H         1 UNK         0.0600 
    235 H235       -2.8008  -22.2791  -53.2182 H         1 UNK         0.3000 
    236 H236       -0.1048  -21.5873  -52.4259 H         1 UNK         0.0600 
    237 H237       -2.7190  -20.2450  -51.6301 H         1 UNK         0.0600 
    238 H238       -2.1181  -21.7176  -50.8766 H         1 UNK         0.0600 
    239 H239       -1.1972  -20.2290  -50.7514 H         1 UNK         0.0600 
    240 H240       -2.7191  -19.9549  -54.2746 H         1 UNK         0.3000 
    241 H241       -0.7871  -17.8498  -55.1706 H         1 UNK         0.0600 
    242 H242       -2.9517  -19.9637  -57.9392 H         1 UNK         0.3800 
    243 H243       -3.4049  -20.1212  -56.2517 H         1 UNK         0.3800 
    244 H244       -2.9142  -16.4645  -55.6179 H         1 UNK         0.0800 
    245 H245       -3.7919  -17.6088  -54.6397 H         1 UNK         0.0800 
    246 H246       -4.0836  -16.6489  -51.8607 H         1 UNK         0.0800 
    247 H247       -3.2931  -18.1478  -52.2804 H         1 UNK         0.0800 
@<TRIPOS>BOND
     1    1    2 1    
     2    1  127 1    
     3    1  128 1    
     4    1  129 1    
     5    2    3 2    
     6    2    4 am   BACKBONE|DICT|INTERRES
     7    4    5 1    
     8    4  130 1    
     9    5    6 1    
    10    5   65 1    
    11    5  131 1    
    12    6    7 1    
    13    6  132 1    
    14    6  133 1    
    15    7    8 1    
    16    8    9 1    
    17    8  134 1    
    18    8  135 1    
    19    9   10 ar   
    20    9   14 ar   
    21   10   11 ar   
    22   10  136 1    
    23   11   12 ar   
    24   11  126 1    
    25   12   13 ar   
    26   12  137 1    
    27   13   14 ar   
    28   13   15 1    
    29   14  138 1    
    30   15   16 1    
    31   15  139 1    
    32   15  140 1    
    33   16   17 1    
    34   17   18 1    
    35   17  141 1    
    36   17  142 1    
    37   18   19 1    
    38   18   67 1    
    39   18  143 1    
    40   19   20 am   BACKBONE|DICT|INTERRES
    41   19  144 1    
    42   20   21 2    
    43   20   22 1    
    44   22   23 1    
    45   22   24 1    
    46   22  145 1    
    47   23  146 1    
    48   23  147 1    
    49   23  148 1    
    50   24   25 am   BACKBONE|DICT|INTERRES
    51   24  149 1    
    52   25   26 2    
    53   25   27 1    
    54   27   28 1    
    55   27   29 1    
    56   27  150 1    
    57   28  151 1    
    58   28  152 1    
    59   28  153 1    
    60   29   30 am   BACKBONE|DICT|INTERRES
    61   29  154 1    
    62   30   31 2    
    63   30   32 1    
    64   32   33 1    
    65   32   34 1    
    66   32  155 1    
    67   33  156 1    
    68   33  157 1    
    69   33  158 1    
    70   34   35 am   BACKBONE|DICT|INTERRES
    71   34  159 1    
    72   35   36 2    
    73   35   37 1    
    74   37   38 1    
    75   37   39 1    
    76   37  160 1    
    77   38  161 1    
    78   38  162 1    
    79   38  163 1    
    80   39   40 am   BACKBONE|DICT|INTERRES
    81   39  164 1    
    82   40   41 2    
    83   40   42 1    
    84   42   43 1    
    85   42   44 1    
    86   42  165 1    
    87   43  166 1    
    88   43  167 1    
    89   43  168 1    
    90   44   45 am   BACKBONE|DICT|INTERRES
    91   44  169 1    
    92   45   46 2    
    93   45   47 1    
    94   47   48 1    
    95   47   49 1    
    96   47  170 1    
    97   48  171 1    
    98   48  172 1    
    99   48  173 1    
   100   49   50 am   BACKBONE|DICT|INTERRES
   101   49  174 1    
   102   50   51 2    
   103   50   52 1    
   104   52   53 1    
   105   52   54 1    
   106   52  175 1    
   107   53  176 1    
   108   53  177 1    
   109   53  178 1    
   110   54   55 am   BACKBONE|DICT|INTERRES
   111   54  179 1    
   112   55   56 2    
   113   55   57 1    
   114   57   58 1    
   115   57   59 1    
   116   57  180 1    
   117   58  181 1    
   118   58  182 1    
   119   58  183 1    
   120   59   60 am   BACKBONE|DICT|INTERRES
   121   59  184 1    
   122   60   61 2    
   123   60   62 1    
   124   62   63 1    
   125   62   64 1    
   126   62  185 1    
   127   63  186 1    
   128   63  187 1    
   129   63  188 1    
   130   64   65 am   BACKBONE|DICT|INTERRES
   131   64  189 1    
   132   65   66 2    
   133   67   68 2    
   134   67   69 am   BACKBONE|DICT|INTERRES
   135   69   70 1    
   136   69  190 1    
   137   70   71 1    
   138   70   72 1    
   139   70  191 1    
   140   71  192 1    
   141   71  193 1    
   142   71  194 1    
   143   72   73 2    
   144   72   74 am   BACKBONE|DICT|INTERRES
   145   74   75 1    
   146   74  195 1    
   147   75   76 1    
   148   75   77 1    
   149   75  196 1    
   150   76  197 1    
   151   76  198 1    
   152   76  199 1    
   153   77   78 2    
   154   77   79 am   BACKBONE|DICT|INTERRES
   155   79   80 1    
   156   79  200 1    
   157   80   81 1    
   158   80   82 1    
   159   80  201 1    
   160   81  202 1    
   161   81  203 1    
   162   81  204 1    
   163   82   83 2    
   164   82   84 am   BACKBONE|DICT|INTERRES
   165   84   85 1    
   166   84  205 1    
   167   85   86 1    
   168   85   87 1    
   169   85  206 1    
   170   86  207 1    
   171   86  208 1    
   172   86  209 1    
   173   87   88 2    
   174   87   89 am   BACKBONE|DICT|INTERRES
   175   89   90 1    
   176   89  210 1    
   177   90   91 1    
   178   90   92 1    
   179   90  211 1    
   180   91  212 1    
   181   91  213 1    
   182   91  214 1    
   183   92   93 2    
   184   92   94 am   BACKBONE|DICT|INTERRES
   185   94   95 1    
   186   94  215 1    
   187   95   96 1    
   188   95   97 1    
   189   95  216 1    
   190   96  217 1    
   191   96  218 1    
   192   96  219 1    
   193   97   98 2    
   194   97   99 am   BACKBONE|DICT|INTERRES
   195   99  100 1    
   196   99  220 1    
   197  100  101 1    
   198  100  102 1    
   199  100  221 1    
   200  101  222 1    
   201  101  223 1    
   202  101  224 1    
   203  102  103 2    
   204  102  104 am   BACKBONE|DICT|INTERRES
   205  104  105 1    
   206  104  225 1    
   207  105  106 1    
   208  105  107 1    
   209  105  226 1    
   210  106  227 1    
   211  106  228 1    
   212  106  229 1    
   213  107  108 2    
   214  107  109 am   BACKBONE|DICT|INTERRES
   215  109  110 1    
   216  109  230 1    
   217  110  111 1    
   218  110  112 1    
   219  110  231 1    
   220  111  232 1    
   221  111  233 1    
   222  111  234 1    
   223  112  113 2    
   224  112  114 am   BACKBONE|DICT|INTERRES
   225  114  115 1    
   226  114  235 1    
   227  115  116 1    
   228  115  117 1    
   229  115  236 1    
   230  116  237 1    
   231  116  238 1    
   232  116  239 1    
   233  117  118 2    
   234  117  119 am   BACKBONE|DICT|INTERRES
   235  119  120 1    
   236  119  240 1    
   237  120  121 1    
   238  120  124 1    
   239  120  241 1    
   240  121  122 am   BACKBONE|DICT|INTERRES
   241  121  123 2    
   242  122  242 1    
   243  122  243 1    
   244  124  125 1    
   245  124  244 1    
   246  124  245 1    
   247  125  126 1    
   248  126  246 1    
   249  126  247 1    
@<TRIPOS>SUBSTRUCTURE
     1 UNK         1 GROUP             0       ****    0 ROOT    
