@<TRIPOS>MOLECULE
3R540
247   249    1
SMALL
USER_CHARGES


@<TRIPOS>ATOM
      1 CA         -3.9744  -11.3409  -45.0117 C.3       0 UNK        -0.1800 
      2 C          -3.0758  -10.8443  -46.1359 C.2       0 UNK         0.5000 
      3 O          -2.7770   -9.6518  -46.2024 O.2       0 UNK        -0.5000 
      4 N          -2.6508  -11.7538  -47.0192 N.am      1 UNK        -0.5000 
      5 CA         -1.7125  -11.4883  -48.1105 C.3       1 UNK         0.1400 
      6 C6         -1.8527  -12.5380  -49.2436 C.3       23 UNK        -0.0398 
      7 S7         -3.1148  -12.0815  -50.4832 S.3       23 UNK        -0.2404 
      8 C8         -4.6947  -12.5216  -49.6866 C.3       23 UNK        -0.0205 
      9 C9         -4.7626  -13.9832  -49.2707 C.ar      23 UNK        -0.0193 
     10 C10        -4.8461  -14.9955  -50.2312 C.ar      23 UNK        -0.1150 
     11 C11        -4.9025  -16.3390  -49.8446 C.ar      23 UNK        -0.0193 
     12 C12        -4.8656  -16.6627  -48.4842 C.ar      23 UNK        -0.1150 
     13 C13        -4.7714  -15.6588  -47.5166 C.ar      23 UNK        -0.0193 
     14 C14        -4.7448  -14.3223  -47.9166 C.ar      23 UNK        -0.1150 
     15 C15        -4.6714  -16.0008  -46.0398 C.3       23 UNK        -0.0205 
     16 S16        -2.9488  -15.8336  -45.4729 S.3       23 UNK        -0.2404 
     17 C17        -2.5878  -17.5073  -44.8516 C.3       23 UNK        -0.0398 
     18 CA         -2.3791  -18.5453  -45.9917 C.3       11 UNK         0.1400 
     19 N          -1.0303  -19.1225  -45.9967 N.am      11 UNK        -0.5000 
     20 C          -0.4664  -19.7173  -47.0589 C.2       10 UNK         0.5000 
     21 O          -0.9603  -19.7057  -48.1839 O.2       10 UNK        -0.5000 
     22 CA          0.8582  -20.4742  -46.8383 C.3       10 UNK         0.1400 
     23 CB          2.0643  -19.6309  -47.2695 C.3       10 UNK        -0.1800 
     24 N           1.0488  -20.9011  -45.4534 N.am      10 UNK        -0.5000 
     25 C           0.4395  -21.9547  -44.8935 C.2       9 UNK         0.5000 
     26 O          -0.2936  -22.7272  -45.5078 O.2       9 UNK        -0.5000 
     27 CA          0.6625  -22.1541  -43.3818 C.3       9 UNK         0.1400 
     28 CB          1.8628  -23.0788  -43.1316 C.3       9 UNK        -0.1800 
     29 N           0.8696  -20.8965  -42.6591 N.am      9 UNK        -0.5000 
     30 C          -0.0214  -19.9032  -42.5546 C.2       8 UNK         0.5000 
     31 O          -1.1436  -19.9450  -43.0595 O.2       8 UNK        -0.5000 
     32 CA          0.4333  -18.6253  -41.8286 C.3       8 UNK         0.1400 
     33 CB          0.3942  -18.7935  -40.2989 C.3       8 UNK        -0.1800 
     34 N           1.7290  -18.1166  -42.2934 N.am      8 UNK        -0.5000 
     35 C           2.9596  -18.6244  -42.1300 C.2       7 UNK         0.5000 
     36 O           3.1969  -19.6808  -41.5432 O.2       7 UNK        -0.5000 
     37 CA          4.1218  -17.8251  -42.7497 C.3       7 UNK         0.1400 
     38 CB          4.4183  -18.3269  -44.1699 C.3       7 UNK        -0.1800 
     39 N           3.8555  -16.3869  -42.8011 N.am      7 UNK        -0.5000 
     40 C           3.8402  -15.5783  -41.7320 C.2       6 UNK         0.5000 
     41 O           4.1306  -15.9421  -40.5918 O.2       6 UNK        -0.5000 
     42 CA          3.3930  -14.1264  -41.9762 C.3       6 UNK         0.1400 
     43 CB          4.5388  -13.2837  -42.5574 C.3       6 UNK        -0.1800 
     44 N           2.2302  -14.0602  -42.8627 N.am      6 UNK        -0.5000 
     45 C           0.9854  -14.4049  -42.5030 C.2       5 UNK         0.5000 
     46 O           0.6765  -14.7650  -41.3671 O.2       5 UNK        -0.5000 
     47 CA         -0.0977  -14.3552  -43.5954 C.3       5 UNK         0.1400 
     48 CB         -0.8465  -13.0159  -43.5570 C.3       5 UNK        -0.1800 
     49 N           0.4319  -14.5710  -44.9422 N.am      5 UNK        -0.5000 
     50 C           0.8730  -15.7517  -45.3969 C.2       4 UNK         0.5000 
     51 O           0.8955  -16.7829  -44.7239 O.2       4 UNK        -0.5000 
     52 CA          1.4352  -15.7666  -46.8272 C.3       4 UNK         0.1400 
     53 CB          0.3033  -15.7061  -47.8637 C.3       4 UNK        -0.1800 
     54 N           2.3965  -14.6918  -47.0708 N.am      4 UNK        -0.5000 
     55 C           3.5446  -14.5074  -46.4054 C.2       3 UNK         0.5000 
     56 O           3.9154  -15.2318  -45.4817 O.2       3 UNK        -0.5000 
     57 CA          4.4102  -13.2917  -46.7954 C.3       3 UNK         0.1400 
     58 CB          5.3230  -13.6140  -47.9936 C.3       3 UNK        -0.1800 
     59 N           3.6432  -12.0546  -47.0015 N.am      3 UNK        -0.5000 
     60 C           2.7637  -11.7692  -47.9704 C.2       2 UNK         0.5000 
     61 O           2.5202  -12.5073  -48.9283 O.2       2 UNK        -0.5000 
     62 CA          1.9867  -10.4502  -47.8105 C.3       2 UNK         0.1400 
     63 CB          2.5952   -9.3537  -48.6974 C.3       2 UNK        -0.1800 
     64 N           0.5684  -10.6042  -48.1404 N.am      2 UNK        -0.5000 
     65 C          -0.2762  -11.4633  -47.5521 C.2       1 UNK         0.5000 
     66 O           0.0420  -12.2253  -46.6333 O.2       1 UNK        -0.5000 
     67 C          -3.4282  -19.6725  -45.9128 C.2       11 UNK         0.5000 
     68 O          -4.4179  -19.6467  -46.6440 O.2       11 UNK        -0.5000 
     69 N          -3.1745  -20.6737  -45.0580 N.am      12 UNK        -0.5000 
     70 CA         -3.9700  -21.8943  -44.8959 C.3       12 UNK         0.1400 
     71 CB         -3.6481  -22.5065  -43.5213 C.3       12 UNK        -0.1800 
     72 C          -3.7578  -22.8934  -46.0580 C.2       12 UNK         0.5000 
     73 O          -3.4807  -24.0715  -45.8289 O.2       12 UNK        -0.5000 
     74 N          -3.8823  -22.3940  -47.2932 N.am      13 UNK        -0.5000 
     75 CA         -3.5734  -23.0970  -48.5353 C.3       13 UNK         0.1400 
     76 CB         -3.3944  -22.0600  -49.6510 C.3       13 UNK        -0.1800 
     77 C          -4.6207  -24.1420  -48.9511 C.2       13 UNK         0.5000 
     78 O          -4.3254  -24.9413  -49.8383 O.2       13 UNK        -0.5000 
     79 N          -5.8129  -24.1192  -48.3356 N.am      14 UNK        -0.5000 
     80 CA         -6.9185  -25.0677  -48.5288 C.3       14 UNK         0.1400 
     81 CB         -6.5385  -26.4466  -47.9483 C.3       14 UNK        -0.1800 
     82 C          -7.3802  -25.1479  -49.9997 C.2       14 UNK         0.5000 
     83 O          -7.4120  -26.2320  -50.5821 O.2       14 UNK        -0.5000 
     84 N          -7.6745  -23.9769  -50.5849 N.am      15 UNK        -0.5000 
     85 CA         -8.0201  -23.7677  -51.9992 C.3       15 UNK         0.1400 
     86 CB         -9.3558  -24.4538  -52.3576 C.3       15 UNK        -0.1800 
     87 C          -6.8645  -24.1435  -52.9542 C.2       15 UNK         0.5000 
     88 O          -7.0959  -24.7013  -54.0281 O.2       15 UNK        -0.5000 
     89 N          -5.6375  -23.8168  -52.5234 N.am      16 UNK        -0.5000 
     90 CA         -4.3534  -24.0401  -53.1962 C.3       16 UNK         0.1400 
     91 CB         -4.2896  -23.2919  -54.5434 C.3       16 UNK        -0.1800 
     92 C          -3.9452  -25.5258  -53.3099 C.2       16 UNK         0.5000 
     93 O          -3.1553  -25.8769  -54.1884 O.2       16 UNK        -0.5000 
     94 N          -4.4761  -26.3740  -52.4199 N.am      17 UNK        -0.5000 
     95 CA         -4.1592  -27.7992  -52.3415 C.3       17 UNK         0.1400 
     96 CB         -5.4157  -28.5718  -51.9132 C.3       17 UNK        -0.1800 
     97 C          -3.0055  -28.0854  -51.3642 C.2       17 UNK         0.5000 
     98 O          -2.2168  -28.9969  -51.6175 O.2       17 UNK        -0.5000 
     99 N          -2.9326  -27.3254  -50.2630 N.am      18 UNK        -0.5000 
    100 CA        -1.9612  -27.5165  -49.1838 C.3       18 UNK         0.1400 
    101 CB        -2.6508  -27.2624  -47.8338 C.3       18 UNK        -0.1800 
    102 C         -0.7230  -26.6157  -49.3316 C.2       18 UNK         0.5000 
    103 O          0.3193  -26.9374  -48.7594 O.2       18 UNK        -0.5000 
    104 N         -0.8392  -25.5208  -50.0921 N.am      19 UNK        -0.5000 
    105 CA         0.2522  -24.6050  -50.4063 C.3       19 UNK         0.1400 
    106 CB         0.3539  -23.5064  -49.3337 C.3       19 UNK        -0.1800 
    107 C         -0.0055  -23.9973  -51.7878 C.2       19 UNK         0.5000 
    108 O         -1.1570  -23.7192  -52.1231 O.2       19 UNK        -0.5000 
    109 N          1.0680  -23.7789  -52.5548 N.am      20 UNK        -0.5000 
    110 CA         1.0145  -23.2250  -53.9109 C.3       20 UNK         0.1400 
    111 CB         2.2996  -23.6216  -54.6547 C.3       20 UNK        -0.1800 
    112 C          0.8233  -21.6954  -53.9492 C.2       20 UNK         0.5000 
    113 O          0.5120  -21.1583  -55.0127 O.2       20 UNK        -0.5000 
    114 N          1.0143  -21.0211  -52.8048 N.am      21 UNK        -0.5000 
    115 CA         0.9875  -19.5627  -52.6399 C.3       21 UNK         0.1400 
    116 CB         1.2722  -19.2267  -51.1675 C.3       21 UNK        -0.1800 
    117 C         -0.3151  -18.8789  -53.1022 C.2       21 UNK         0.5000 
    118 O         -0.2646  -17.7435  -53.5771 O.2       21 UNK        -0.5000 
    119 N         -1.4412  -19.5887  -52.9752 N.am      22 UNK        -0.5000 
    120 CA        -2.7698  -19.1551  -53.4365 C.3       22 UNK         0.1400 
    121 C         -3.1278  -19.6576  -54.8669 C.2       22 UNK         0.5000 
    122 N         -2.2413  -20.3319  -55.5904 N.am      22 UNK        -0.7600 
    123 O         -4.2328  -19.4153  -55.3440 O.2       22 UNK        -0.5000 
    124 C124       -3.8665  -19.5142  -52.4014 C.3       23 UNK        -0.0398 
    125 S125       -3.6268  -18.6045  -50.8352 S.3       23 UNK        -0.2404 
    126 C126       -5.0212  -17.4349  -50.8955 C.3       23 UNK        -0.0205 
    127 H127       -4.0867  -12.4254  -45.0289 H         1 UNK         0.0600 
    128 H128       -3.5548  -11.0611  -44.0453 H         1 UNK         0.0600 
    129 H129       -4.9648  -10.8940  -45.0974 H         1 UNK         0.0600 
    130 H130       -2.8721  -12.7268  -46.8705 H         1 UNK         0.3000 
    131 H131       -1.9234  -10.4978  -48.5204 H         1 UNK         0.0600 
    132 H132       -0.9191  -12.6357  -49.8018 H         1 UNK         0.0800 
    133 H133       -2.0542  -13.5340  -48.8474 H         1 UNK         0.0800 
    134 H134       -5.5076  -12.3131  -50.3834 H         1 UNK         0.0800 
    135 H135       -4.8571  -11.8649  -48.8308 H         1 UNK         0.0800 
    136 H136       -4.8663  -14.7323  -51.2795 H         1 UNK         0.1150 
    137 H137       -4.8983  -17.6999  -48.1858 H         1 UNK         0.1150 
    138 H138       -4.6957  -13.5476  -47.1668 H         1 UNK         0.1150 
    139 H139       -5.3041  -15.3263  -45.4610 H         1 UNK         0.0800 
    140 H140       -5.0491  -17.0069  -45.8543 H         1 UNK         0.0800 
    141 H141       -3.3805  -17.7895  -44.1552 H         1 UNK         0.0800 
    142 H142       -1.6937  -17.4304  -44.2329 H         1 UNK         0.0800 
    143 H143       -2.5265  -18.0506  -46.9547 H         1 UNK         0.0600 
    144 H144       -0.5682  -19.1854  -45.1009 H         1 UNK         0.3000 
    145 H145        0.8272  -21.3593  -47.4759 H         1 UNK         0.0600 
    146 H146        2.9657  -20.2408  -47.3316 H         1 UNK         0.0600 
    147 H147        1.9077  -19.1788  -48.2495 H         1 UNK         0.0600 
    148 H148        2.2557  -18.8309  -46.5590 H         1 UNK         0.0600 
    149 H149        1.6385  -20.3241  -44.8729 H         1 UNK         0.3000 
    150 H150       -0.2302  -22.6316  -42.9741 H         1 UNK         0.0600 
    151 H151        2.7929  -22.6367  -43.4913 H         1 UNK         0.0600 
    152 H152        1.7332  -24.0345  -43.6414 H         1 UNK         0.0600 
    153 H153        1.9817  -23.2913  -42.0690 H         1 UNK         0.0600 
    154 H154        1.7764  -20.7543  -42.2221 H         1 UNK         0.3000 
    155 H155       -0.2882  -17.8479  -42.0852 H         1 UNK         0.0600 
    156 H156        1.0700  -19.5756  -39.9525 H         1 UNK         0.0600 
    157 H157       -0.6090  -19.0606  -39.9648 H         1 UNK         0.0600 
    158 H158        0.6684  -17.8657  -39.7963 H         1 UNK         0.0600 
    159 H159        1.6551  -17.3074  -42.9004 H         1 UNK         0.3000 
    160 H160        5.0073  -17.9943  -42.1336 H         1 UNK         0.0600 
    161 H161        3.5897  -18.1149  -44.8446 H         1 UNK         0.0600 
    162 H162        4.5928  -19.4036  -44.1825 H         1 UNK         0.0600 
    163 H163        5.3079  -17.8467  -44.5779 H         1 UNK         0.0600 
    164 H164        3.6686  -15.9925  -43.7190 H         1 UNK         0.3000 
    165 H165        3.1146  -13.6943  -41.0125 H         1 UNK         0.0600 
    166 H166        4.2297  -12.2501  -42.7137 H         1 UNK         0.0600 
    167 H167        5.3909  -13.2683  -41.8768 H         1 UNK         0.0600 
    168 H168        4.8918  -13.6775  -43.5100 H         1 UNK         0.0600 
    169 H169        2.3976  -13.8071  -43.8247 H         1 UNK         0.3000 
    170 H170       -0.8143  -15.1496  -43.3784 H         1 UNK         0.0600 
    171 H171       -1.6592  -13.0071  -44.2822 H         1 UNK         0.0600 
    172 H172       -0.1864  -12.1777  -43.7836 H         1 UNK         0.0600 
    173 H173       -1.2844  -12.8375  -42.5742 H         1 UNK         0.0600 
    174 H174        0.4234  -13.7691  -45.5686 H         1 UNK         0.3000 
    175 H175        1.9700  -16.7037  -46.9670 H         1 UNK         0.0600 
    176 H176       -0.4102  -16.5174  -47.7116 H         1 UNK         0.0600 
    177 H177        0.6901  -15.7994  -48.8785 H         1 UNK         0.0600 
    178 H178       -0.2493  -14.7692  -47.7990 H         1 UNK         0.0600 
    179 H179        2.1785  -14.0328  -47.8123 H         1 UNK         0.3000 
    180 H180        5.0613  -13.0899  -45.9435 H         1 UNK         0.0600 
    181 H181        5.9604  -12.7658  -48.2431 H         1 UNK         0.0600 
    182 H182        4.7549  -13.8814  -48.8847 H         1 UNK         0.0600 
    183 H183        5.9772  -14.4560  -47.7642 H         1 UNK         0.0600 
    184 H184        3.7474  -11.3757  -46.2602 H         1 UNK         0.3000 
    185 H185        2.0467  -10.1283  -46.7688 H         1 UNK         0.0600 
    186 H186        2.0863   -8.4003  -48.5534 H         1 UNK         0.0600 
    187 H187        3.6482   -9.1979  -48.4591 H         1 UNK         0.0600 
    188 H188        2.5332   -9.6121  -49.7554 H         1 UNK         0.0600 
    189 H189        0.2309  -10.0374  -48.9044 H         1 UNK         0.3000 
    190 H190       -2.3507  -20.5999  -44.4694 H         1 UNK         0.3000 
    191 H191       -5.0268  -21.6204  -44.8979 H         1 UNK         0.0600 
    192 H192       -4.2740  -23.3772  -43.3225 H         1 UNK         0.0600 
    193 H193       -3.8240  -21.7903  -42.7184 H         1 UNK         0.0600 
    194 H194       -2.6079  -22.8274  -43.4612 H         1 UNK         0.0600 
    195 H195       -4.1235  -21.4103  -47.3730 H         1 UNK         0.3000 
    196 H196       -2.6278  -23.6251  -48.3987 H         1 UNK         0.0600 
    197 H197       -4.3227  -21.5258  -49.8559 H         1 UNK         0.0600 
    198 H198       -2.6372  -21.3224  -49.3887 H         1 UNK         0.0600 
    199 H199       -3.0679  -22.5313  -50.5765 H         1 UNK         0.0600 
    200 H200       -5.9595  -23.4055  -47.6365 H         1 UNK         0.3000 
    201 H201       -7.7656  -24.6882  -47.9558 H         1 UNK         0.0600 
    202 H202       -5.7239  -26.9110  -48.5049 H         1 UNK         0.0600 
    203 H203       -7.3869  -27.1310  -47.9803 H         1 UNK         0.0600 
    204 H204       -6.2261  -26.3638  -46.9073 H         1 UNK         0.0600 
    205 H205       -7.6099  -23.1400  -50.0222 H         1 UNK         0.3000 
    206 H206       -8.1675  -22.6934  -52.1190 H         1 UNK         0.0600 
    207 H207      -10.1462  -24.1643  -51.6652 H         1 UNK         0.0600 
    208 H208       -9.6827  -24.1700  -53.3585 H         1 UNK         0.0600 
    209 H209       -9.2746  -25.5408  -52.3393 H         1 UNK         0.0600 
    210 H210       -5.5699  -23.4119  -51.6017 H         1 UNK         0.3000 
    211 H211       -3.6152  -23.5800  -52.5448 H         1 UNK         0.0600 
    212 H212       -3.2694  -23.2710  -54.9286 H         1 UNK         0.0600 
    213 H213       -4.6159  -22.2579  -54.4364 H         1 UNK         0.0600 
    214 H214       -4.9156  -23.7646  -55.3004 H         1 UNK         0.0600 
    215 H215       -5.0914  -26.0023  -51.7071 H         1 UNK         0.3000 
    216 H216       -3.8646  -28.1653  -53.3273 H         1 UNK         0.0600 
    217 H217       -5.7294  -28.3033  -50.9038 H         1 UNK         0.0600 
    218 H218       -5.2342  -29.6472  -51.9237 H         1 UNK         0.0600 
    219 H219       -6.2501  -28.3745  -52.5865 H         1 UNK         0.0600 
    220 H220       -3.5868  -26.5539  -50.1471 H         1 UNK         0.3000 
    221 H221       -1.6125  -28.5514  -49.1838 H         1 UNK         0.0600 
    222 H222       -3.5189  -27.9088  -47.7053 H         1 UNK         0.0600 
    223 H223       -2.9825  -26.2296  -47.7334 H         1 UNK         0.0600 
    224 H224       -1.9708  -27.4649  -47.0055 H         1 UNK         0.0600 
    225 H225       -1.7094  -25.3341  -50.5737 H         1 UNK         0.3000 
    226 H226        1.1920  -25.1604  -50.4428 H         1 UNK         0.0600 
    227 H227        1.2114  -22.8594  -49.5209 H         1 UNK         0.0600 
    228 H228       -0.5332  -22.8732  -49.3164 H         1 UNK         0.0600 
    229 H229        0.4796  -23.9315  -48.3375 H         1 UNK         0.0600 
    230 H230        1.9836  -24.0283  -52.2083 H         1 UNK         0.3000 
    231 H231        0.1671  -23.6700  -54.4375 H         1 UNK         0.0600 
    232 H232        3.1872  -23.2079  -54.1745 H         1 UNK         0.0600 
    233 H233        2.2846  -23.2598  -55.6838 H         1 UNK         0.0600 
    234 H234        2.4131  -24.7051  -54.6960 H         1 UNK         0.0600 
    235 H235        1.2598  -21.5566  -51.9863 H         1 UNK         0.3000 
    236 H236        1.7984  -19.1545  -53.2463 H         1 UNK         0.0600 
    237 H237        2.2454  -19.6055  -50.8551 H         1 UNK         0.0600 
    238 H238        1.2763  -18.1482  -51.0035 H         1 UNK         0.0600 
    239 H239        0.5164  -19.6544  -50.5075 H         1 UNK         0.0600 
    240 H240       -1.3824  -20.5181  -52.5862 H         1 UNK         0.3000 
    241 H241       -2.7702  -18.0672  -53.5265 H         1 UNK         0.0600 
    242 H242       -2.4969  -20.6349  -56.5163 H         1 UNK         0.3800 
    243 H243       -1.3032  -20.5172  -55.2497 H         1 UNK         0.3800 
    244 H244       -3.8574  -20.5849  -52.1948 H         1 UNK         0.0800 
    245 H245       -4.8626  -19.2928  -52.7883 H         1 UNK         0.0800 
    246 H246       -5.0747  -16.9971  -51.8935 H         1 UNK         0.0800 
    247 H247       -5.9541  -17.9791  -50.7423 H         1 UNK         0.0800 
@<TRIPOS>BOND
     1    1    2 1    
     2    1  127 1    
     3    1  128 1    
     4    1  129 1    
     5    2    3 2    
     6    2    4 am   BACKBONE|DICT|INTERRES
     7    4    5 1    
     8    4  130 1    
     9    5    6 1    
    10    5   65 1    
    11    5  131 1    
    12    6    7 1    
    13    6  132 1    
    14    6  133 1    
    15    7    8 1    
    16    8    9 1    
    17    8  134 1    
    18    8  135 1    
    19    9   10 ar   
    20    9   14 ar   
    21   10   11 ar   
    22   10  136 1    
    23   11   12 ar   
    24   11  126 1    
    25   12   13 ar   
    26   12  137 1    
    27   13   14 ar   
    28   13   15 1    
    29   14  138 1    
    30   15   16 1    
    31   15  139 1    
    32   15  140 1    
    33   16   17 1    
    34   17   18 1    
    35   17  141 1    
    36   17  142 1    
    37   18   19 1    
    38   18   67 1    
    39   18  143 1    
    40   19   20 am   BACKBONE|DICT|INTERRES
    41   19  144 1    
    42   20   21 2    
    43   20   22 1    
    44   22   23 1    
    45   22   24 1    
    46   22  145 1    
    47   23  146 1    
    48   23  147 1    
    49   23  148 1    
    50   24   25 am   BACKBONE|DICT|INTERRES
    51   24  149 1    
    52   25   26 2    
    53   25   27 1    
    54   27   28 1    
    55   27   29 1    
    56   27  150 1    
    57   28  151 1    
    58   28  152 1    
    59   28  153 1    
    60   29   30 am   BACKBONE|DICT|INTERRES
    61   29  154 1    
    62   30   31 2    
    63   30   32 1    
    64   32   33 1    
    65   32   34 1    
    66   32  155 1    
    67   33  156 1    
    68   33  157 1    
    69   33  158 1    
    70   34   35 am   BACKBONE|DICT|INTERRES
    71   34  159 1    
    72   35   36 2    
    73   35   37 1    
    74   37   38 1    
    75   37   39 1    
    76   37  160 1    
    77   38  161 1    
    78   38  162 1    
    79   38  163 1    
    80   39   40 am   BACKBONE|DICT|INTERRES
    81   39  164 1    
    82   40   41 2    
    83   40   42 1    
    84   42   43 1    
    85   42   44 1    
    86   42  165 1    
    87   43  166 1    
    88   43  167 1    
    89   43  168 1    
    90   44   45 am   BACKBONE|DICT|INTERRES
    91   44  169 1    
    92   45   46 2    
    93   45   47 1    
    94   47   48 1    
    95   47   49 1    
    96   47  170 1    
    97   48  171 1    
    98   48  172 1    
    99   48  173 1    
   100   49   50 am   BACKBONE|DICT|INTERRES
   101   49  174 1    
   102   50   51 2    
   103   50   52 1    
   104   52   53 1    
   105   52   54 1    
   106   52  175 1    
   107   53  176 1    
   108   53  177 1    
   109   53  178 1    
   110   54   55 am   BACKBONE|DICT|INTERRES
   111   54  179 1    
   112   55   56 2    
   113   55   57 1    
   114   57   58 1    
   115   57   59 1    
   116   57  180 1    
   117   58  181 1    
   118   58  182 1    
   119   58  183 1    
   120   59   60 am   BACKBONE|DICT|INTERRES
   121   59  184 1    
   122   60   61 2    
   123   60   62 1    
   124   62   63 1    
   125   62   64 1    
   126   62  185 1    
   127   63  186 1    
   128   63  187 1    
   129   63  188 1    
   130   64   65 am   BACKBONE|DICT|INTERRES
   131   64  189 1    
   132   65   66 2    
   133   67   68 2    
   134   67   69 am   BACKBONE|DICT|INTERRES
   135   69   70 1    
   136   69  190 1    
   137   70   71 1    
   138   70   72 1    
   139   70  191 1    
   140   71  192 1    
   141   71  193 1    
   142   71  194 1    
   143   72   73 2    
   144   72   74 am   BACKBONE|DICT|INTERRES
   145   74   75 1    
   146   74  195 1    
   147   75   76 1    
   148   75   77 1    
   149   75  196 1    
   150   76  197 1    
   151   76  198 1    
   152   76  199 1    
   153   77   78 2    
   154   77   79 am   BACKBONE|DICT|INTERRES
   155   79   80 1    
   156   79  200 1    
   157   80   81 1    
   158   80   82 1    
   159   80  201 1    
   160   81  202 1    
   161   81  203 1    
   162   81  204 1    
   163   82   83 2    
   164   82   84 am   BACKBONE|DICT|INTERRES
   165   84   85 1    
   166   84  205 1    
   167   85   86 1    
   168   85   87 1    
   169   85  206 1    
   170   86  207 1    
   171   86  208 1    
   172   86  209 1    
   173   87   88 2    
   174   87   89 am   BACKBONE|DICT|INTERRES
   175   89   90 1    
   176   89  210 1    
   177   90   91 1    
   178   90   92 1    
   179   90  211 1    
   180   91  212 1    
   181   91  213 1    
   182   91  214 1    
   183   92   93 2    
   184   92   94 am   BACKBONE|DICT|INTERRES
   185   94   95 1    
   186   94  215 1    
   187   95   96 1    
   188   95   97 1    
   189   95  216 1    
   190   96  217 1    
   191   96  218 1    
   192   96  219 1    
   193   97   98 2    
   194   97   99 am   BACKBONE|DICT|INTERRES
   195   99  100 1    
   196   99  220 1    
   197  100  101 1    
   198  100  102 1    
   199  100  221 1    
   200  101  222 1    
   201  101  223 1    
   202  101  224 1    
   203  102  103 2    
   204  102  104 am   BACKBONE|DICT|INTERRES
   205  104  105 1    
   206  104  225 1    
   207  105  106 1    
   208  105  107 1    
   209  105  226 1    
   210  106  227 1    
   211  106  228 1    
   212  106  229 1    
   213  107  108 2    
   214  107  109 am   BACKBONE|DICT|INTERRES
   215  109  110 1    
   216  109  230 1    
   217  110  111 1    
   218  110  112 1    
   219  110  231 1    
   220  111  232 1    
   221  111  233 1    
   222  111  234 1    
   223  112  113 2    
   224  112  114 am   BACKBONE|DICT|INTERRES
   225  114  115 1    
   226  114  235 1    
   227  115  116 1    
   228  115  117 1    
   229  115  236 1    
   230  116  237 1    
   231  116  238 1    
   232  116  239 1    
   233  117  118 2    
   234  117  119 am   BACKBONE|DICT|INTERRES
   235  119  120 1    
   236  119  240 1    
   237  120  121 1    
   238  120  124 1    
   239  120  241 1    
   240  121  122 am   BACKBONE|DICT|INTERRES
   241  121  123 2    
   242  122  242 1    
   243  122  243 1    
   244  124  125 1    
   245  124  244 1    
   246  124  245 1    
   247  125  126 1    
   248  126  246 1    
   249  126  247 1    
@<TRIPOS>SUBSTRUCTURE
     1 UNK         1 GROUP             0       ****    0 ROOT    
