@<TRIPOS>MOLECULE
3R540
247   249    1
SMALL
USER_CHARGES


@<TRIPOS>ATOM
      1 CA          1.7419  -11.7957  -47.3070 C.3       0 UNK        -0.1800 
      2 C           0.5675  -12.6587  -47.7457 C.2       0 UNK         0.5000 
      3 O          -0.3192  -12.1738  -48.4479 O.2       0 UNK        -0.5000 
      4 N           0.5649  -13.9356  -47.3363 N.am      1 UNK        -0.5000 
      5 CA         -0.4678  -14.9400  -47.6372 C.3       1 UNK         0.1400 
      6 C6         -0.5451  -15.2902  -49.1554 C.3       23 UNK        -0.0398 
      7 S7         -0.3299  -17.0748  -49.4628 S.3       23 UNK        -0.2404 
      8 C8          1.3036  -17.0874  -50.2625 C.3       23 UNK        -0.0205 
      9 C9          1.7624  -18.4879  -50.6464 C.ar      23 UNK        -0.0193 
     10 C10         1.4352  -19.0043  -51.9029 C.ar      23 UNK        -0.1150 
     11 C11         1.9378  -20.2390  -52.3184 C.ar      23 UNK        -0.0193 
     12 C12         2.7610  -20.9714  -51.4581 C.ar      23 UNK        -0.1150 
     13 C13         3.0968  -20.4714  -50.1959 C.ar      23 UNK        -0.0193 
     14 C14         2.5831  -19.2330  -49.7908 C.ar      23 UNK        -0.1150 
     15 C15         4.0973  -21.2250  -49.3250 C.3       23 UNK        -0.0205 
     16 S16         3.4057  -22.7239  -48.5523 S.3       23 UNK        -0.2404 
     17 C17         2.5472  -22.0081  -47.1111 C.3       23 UNK        -0.0398 
     18 CA          1.2785  -22.7742  -46.6597 C.3       11 UNK         0.1400 
     19 N           0.7000  -22.1814  -45.4496 N.am      11 UNK        -0.5000 
     20 C          -0.3425  -22.6728  -44.7636 C.2       10 UNK         0.5000 
     21 O          -0.9015  -23.7349  -45.0326 O.2       10 UNK        -0.5000 
     22 CA         -0.8855  -21.8131  -43.6080 C.3       10 UNK         0.1400 
     23 CB         -0.0795  -22.0588  -42.3242 C.3       10 UNK        -0.1800 
     24 N          -0.8992  -20.3830  -43.9186 N.am      10 UNK        -0.5000 
     25 C          -1.6190  -19.8171  -44.8990 C.2       9 UNK         0.5000 
     26 O          -2.3934  -20.4388  -45.6242 O.2       9 UNK        -0.5000 
     27 CA         -1.3864  -18.3158  -45.1531 C.3       9 UNK         0.1400 
     28 CB         -2.1446  -17.4595  -44.1306 C.3       9 UNK        -0.1800 
     29 N           0.0358  -17.9680  -45.1388 N.am      9 UNK        -0.5000 
     30 C           0.9291  -18.4626  -46.0081 C.2       8 UNK         0.5000 
     31 O           0.6305  -19.2038  -46.9431 O.2       8 UNK        -0.5000 
     32 CA          2.4065  -18.1261  -45.7503 C.3       8 UNK         0.1400 
     33 CB          2.7797  -16.7580  -46.3390 C.3       8 UNK        -0.1800 
     34 N           2.7145  -18.1500  -44.3216 N.am      8 UNK        -0.5000 
     35 C           2.8403  -19.2722  -43.5999 C.2       7 UNK         0.5000 
     36 O           2.7544  -20.4021  -44.0815 O.2       7 UNK        -0.5000 
     37 CA          3.0620  -19.1057  -42.0835 C.3       7 UNK         0.1400 
     38 CB          4.5560  -18.9335  -41.7728 C.3       7 UNK        -0.1800 
     39 N           2.3165  -17.9796  -41.5162 N.am      7 UNK        -0.5000 
     40 C           0.9795  -17.9164  -41.4511 C.2       6 UNK         0.5000 
     41 O           0.2399  -18.8278  -41.8173 O.2       6 UNK        -0.5000 
     42 CA          0.3546  -16.6045  -40.9388 C.3       6 UNK         0.1400 
     43 CB          0.1035  -16.6811  -39.4262 C.3       6 UNK        -0.1800 
     44 N           1.1176  -15.3893  -41.2383 N.am      6 UNK        -0.5000 
     45 C           1.5101  -14.9930  -42.4568 C.2       5 UNK         0.5000 
     46 O           1.3897  -15.6793  -43.4740 O.2       5 UNK        -0.5000 
     47 CA          2.0612  -13.5630  -42.5422 C.3       5 UNK         0.1400 
     48 CB          2.5524  -13.1925  -43.9528 C.3       5 UNK        -0.1800 
     49 N           0.9854  -12.6583  -42.1541 N.am      5 UNK        -0.5000 
     50 C           1.1011  -11.5763  -41.3758 C.2       4 UNK         0.5000 
     51 O           2.1698  -11.1966  -40.8956 O.2       4 UNK        -0.5000 
     52 CA         -0.1848  -10.7707  -41.0826 C.3       4 UNK         0.1400 
     53 CB         -0.2046   -9.4791  -41.9151 C.3       4 UNK        -0.1800 
     54 N          -1.4225  -11.5109  -41.3431 N.am      4 UNK        -0.5000 
     55 C          -1.8816  -12.5330  -40.6078 C.2       3 UNK         0.5000 
     56 O          -1.3441  -12.9190  -39.5693 O.2       3 UNK        -0.5000 
     57 CA         -3.1323  -13.2729  -41.1351 C.3       3 UNK         0.1400 
     58 CB         -4.3938  -12.7628  -40.4219 C.3       3 UNK        -0.1800 
     59 N          -3.3458  -13.2020  -42.5896 N.am      3 UNK        -0.5000 
     60 C          -2.4607  -13.5852  -43.5192 C.2       2 UNK         0.5000 
     61 O          -1.3216  -13.9637  -43.2444 O.2       2 UNK        -0.5000 
     62 CA         -2.8956  -13.5182  -44.9919 C.3       2 UNK         0.1400 
     63 CB         -3.2870  -12.0892  -45.4097 C.3       2 UNK        -0.1800 
     64 N          -1.7746  -13.9674  -45.8105 N.am      2 UNK        -0.5000 
     65 C          -1.8345  -14.5922  -46.9906 C.2       1 UNK         0.5000 
     66 O          -2.8937  -14.8818  -47.5486 O.2       1 UNK        -0.5000 
     67 C           0.2266  -22.8962  -47.7819 C.2       11 UNK         0.5000 
     68 O           0.0091  -23.9961  -48.2932 O.2       11 UNK        -0.5000 
     69 N          -0.4456  -21.7829  -48.1048 N.am      12 UNK        -0.5000 
     70 CA         -1.5000  -21.7524  -49.1158 C.3       12 UNK         0.1400 
     71 CB         -1.8467  -20.3054  -49.4685 C.3       12 UNK        -0.1800 
     72 C          -2.7539  -22.5504  -48.7152 C.2       12 UNK         0.5000 
     73 O          -3.3637  -23.1768  -49.5806 O.2       12 UNK        -0.5000 
     74 N          -3.1063  -22.5602  -47.4226 N.am      13 UNK        -0.5000 
     75 CA         -4.1912  -23.3791  -46.8787 C.3       13 UNK         0.1400 
     76 CB         -4.4623  -22.9963  -45.4168 C.3       13 UNK        -0.1800 
     77 C          -3.9103  -24.8873  -47.0119 C.2       13 UNK         0.5000 
     78 O          -4.7843  -25.6246  -47.4681 O.2       13 UNK        -0.5000 
     79 N          -2.6859  -25.3108  -46.6651 N.am      14 UNK        -0.5000 
     80 CA         -2.2090  -26.6901  -46.8011 C.3       14 UNK         0.1400 
     81 CB         -0.8484  -26.8343  -46.1029 C.3       14 UNK        -0.1800 
     82 C          -2.1194  -27.1557  -48.2667 C.2       14 UNK         0.5000 
     83 O          -2.4153  -28.3156  -48.5554 O.2       14 UNK        -0.5000 
     84 N          -1.7493  -26.2362  -49.1680 N.am      15 UNK        -0.5000 
     85 CA         -1.7154  -26.4465  -50.6167 C.3       15 UNK         0.1400 
     86 CB         -0.8543  -25.3427  -51.2540 C.3       15 UNK        -0.1800 
     87 C          -3.1118  -26.4770  -51.2750 C.2       15 UNK         0.5000 
     88 O          -3.2055  -26.8413  -52.4477 O.2       15 UNK        -0.5000 
     89 N          -4.1555  -26.0672  -50.5345 N.am      16 UNK        -0.5000 
     90 CA         -5.5359  -25.8378  -50.9835 C.3       16 UNK         0.1400 
     91 CB         -6.2061  -27.1533  -51.4307 C.3       16 UNK        -0.1800 
     92 C          -5.6333  -24.7127  -52.0390 C.2       16 UNK         0.5000 
     93 O          -6.4987  -24.7445  -52.9153 O.2       16 UNK        -0.5000 
     94 N          -4.7257  -23.7381  -51.9250 N.am      17 UNK        -0.5000 
     95 CA         -4.5666  -22.5890  -52.8075 C.3       17 UNK         0.1400 
     96 CB         -3.0699  -22.2699  -52.8806 C.3       17 UNK        -0.1800 
     97 C          -5.3393  -21.3573  -52.3108 C.2       17 UNK         0.5000 
     98 O          -5.5997  -20.4570  -53.1088 O.2       17 UNK        -0.5000 
     99 N          -5.6791  -21.3340  -51.0118 N.am      18 UNK        -0.5000 
    100 CA        -6.4185  -20.2855  -50.3030 C.3       18 UNK         0.1400 
    101 CB        -7.9029  -20.2954  -50.7299 C.3       18 UNK        -0.1800 
    102 C         -5.7389  -18.9082  -50.4450 C.2       18 UNK         0.5000 
    103 O         -4.7258  -18.6663  -49.7900 O.2       18 UNK        -0.5000 
    104 N         -6.2704  -18.0458  -51.3198 N.am      19 UNK        -0.5000 
    105 CA        -5.7333  -16.7275  -51.6583 C.3       19 UNK         0.1400 
    106 CB        -6.8855  -15.8519  -52.1842 C.3       19 UNK        -0.1800 
    107 C         -4.5480  -16.8132  -52.6475 C.2       19 UNK         0.5000 
    108 O         -4.5725  -16.1667  -53.6960 O.2       19 UNK        -0.5000 
    109 N         -3.5334  -17.6150  -52.2915 N.am      20 UNK        -0.5000 
    110 CA        -2.2465  -17.8050  -52.9763 C.3       20 UNK         0.1400 
    111 CB        -1.4558  -16.4783  -52.9948 C.3       20 UNK        -0.1800 
    112 C         -2.3289  -18.4243  -54.3908 C.2       20 UNK         0.5000 
    113 O         -1.3330  -18.3959  -55.1170 O.2       20 UNK        -0.5000 
    114 N         -3.4841  -18.9841  -54.7753 N.am      21 UNK        -0.5000 
    115 CA        -3.7505  -19.5315  -56.1073 C.3       21 UNK         0.1400 
    116 CB        -5.2597  -19.4308  -56.3933 C.3       21 UNK        -0.1800 
    117 C         -3.2044  -20.9663  -56.2617 C.2       21 UNK         0.5000 
    118 O         -3.9718  -21.9017  -56.4955 O.2       21 UNK        -0.5000 
    119 N         -1.8839  -21.1181  -56.1004 N.am      22 UNK        -0.5000 
    120 CA        -1.1633  -22.4011  -56.1923 C.3       22 UNK         0.1400 
    121 C         -1.0530  -22.9872  -57.6323 C.2       22 UNK         0.5000 
    122 N         -1.3398  -22.2328  -58.6866 N.am      22 UNK        -0.7600 
    123 O         -0.7026  -24.1527  -57.7955 O.2       22 UNK        -0.5000 
    124 C124        0.2396  -22.3364  -55.5333 C.3       23 UNK        -0.0398 
    125 S125        0.2115  -21.8435  -53.7746 S.3       23 UNK        -0.2404 
    126 C126        1.6534  -20.7424  -53.7244 C.3       23 UNK        -0.0205 
    127 H127        2.1138  -11.2098  -48.1476 H         1 UNK         0.0600 
    128 H128        2.5672  -12.3984  -46.9275 H         1 UNK         0.0600 
    129 H129        1.4288  -11.1075  -46.5217 H         1 UNK         0.0600 
    130 H130        1.3302  -14.2623  -46.7651 H         1 UNK         0.3000 
    131 H131       -0.1379  -15.8271  -47.0966 H         1 UNK         0.0600 
    132 H132       -1.4826  -14.9721  -49.6134 H         1 UNK         0.0800 
    133 H133        0.2211  -14.7530  -49.7153 H         1 UNK         0.0800 
    134 H134        1.2642  -16.4623  -51.1560 H         1 UNK         0.0800 
    135 H135        2.0369  -16.6217  -49.6051 H         1 UNK         0.0800 
    136 H136        0.8200  -18.4275  -52.5768 H         1 UNK         0.1150 
    137 H137        3.1700  -21.9173  -51.7845 H         1 UNK         0.1150 
    138 H138        2.8550  -18.8278  -48.8272 H         1 UNK         0.1150 
    139 H139        4.9452  -21.5200  -49.9449 H         1 UNK         0.0800 
    140 H140        4.5080  -20.5725  -48.5527 H         1 UNK         0.0800 
    141 H141        2.3011  -20.9752  -47.3423 H         1 UNK         0.0800 
    142 H142        3.2632  -21.9683  -46.2892 H         1 UNK         0.0800 
    143 H143        1.5836  -23.7889  -46.3957 H         1 UNK         0.0600 
    144 H144        1.1260  -21.3224  -45.1235 H         1 UNK         0.3000 
    145 H145       -1.9163  -22.1193  -43.4214 H         1 UNK         0.0600 
    146 H146       -0.5112  -21.5219  -41.4794 H         1 UNK         0.0600 
    147 H147       -0.0703  -23.1183  -42.0654 H         1 UNK         0.0600 
    148 H148        0.9565  -21.7372  -42.4308 H         1 UNK         0.0600 
    149 H149       -0.3340  -19.7865  -43.3193 H         1 UNK         0.3000 
    150 H150       -1.7736  -18.0800  -46.1471 H         1 UNK         0.0600 
    151 H151       -3.2200  -17.6227  -44.2090 H         1 UNK         0.0600 
    152 H152       -1.9618  -16.4004  -44.2976 H         1 UNK         0.0600 
    153 H153       -1.8524  -17.6926  -43.1075 H         1 UNK         0.0600 
    154 H154        0.3624  -17.3547  -44.4011 H         1 UNK         0.3000 
    155 H155        3.0164  -18.8818  -46.2492 H         1 UNK         0.0600 
    156 H156        2.2067  -15.9495  -45.8886 H         1 UNK         0.0600 
    157 H157        3.8375  -16.5411  -46.1904 H         1 UNK         0.0600 
    158 H158        2.5910  -16.7331  -47.4106 H         1 UNK         0.0600 
    159 H159        2.6933  -17.2575  -43.8432 H         1 UNK         0.3000 
    160 H160        2.7160  -20.0197  -41.5964 H         1 UNK         0.0600 
    161 H161        4.9570  -18.0197  -42.2132 H         1 UNK         0.0600 
    162 H162        5.1351  -19.7697  -42.1670 H         1 UNK         0.0600 
    163 H163        4.7334  -18.8949  -40.6979 H         1 UNK         0.0600 
    164 H164        2.8519  -17.1846  -41.1999 H         1 UNK         0.3000 
    165 H165       -0.6120  -16.4953  -41.4340 H         1 UNK         0.0600 
    166 H166       -0.4471  -15.8084  -39.0735 H         1 UNK         0.0600 
    167 H167       -0.4885  -17.5613  -39.1715 H         1 UNK         0.0600 
    168 H168        1.0376  -16.7392  -38.8663 H         1 UNK         0.0600 
    169 H169        1.2332  -14.7414  -40.4725 H         1 UNK         0.3000 
    170 H170        2.8985  -13.4915  -41.8451 H         1 UNK         0.0600 
    171 H171        1.7401  -13.2402  -44.6775 H         1 UNK         0.0600 
    172 H172        2.9612  -12.1823  -43.9750 H         1 UNK         0.0600 
    173 H173        3.3377  -13.8714  -44.2871 H         1 UNK         0.0600 
    174 H174        0.0615  -12.9468  -42.4685 H         1 UNK         0.3000 
    175 H175       -0.1652  -10.4973  -40.0256 H         1 UNK         0.0600 
    176 H176       -1.0697   -8.8633  -41.6685 H         1 UNK         0.0600 
    177 H177       -0.2355   -9.6909  -42.9847 H         1 UNK         0.0600 
    178 H178        0.6850   -8.8770  -41.7254 H         1 UNK         0.0600 
    179 H179       -1.9293  -11.2635  -42.1799 H         1 UNK         0.3000 
    180 H180       -3.0028  -14.3272  -40.8821 H         1 UNK         0.0600 
    181 H181       -4.6012  -11.7211  -40.6699 H         1 UNK         0.0600 
    182 H182       -4.2848  -12.8270  -39.3383 H         1 UNK         0.0600 
    183 H183       -5.2682  -13.3545  -40.6933 H         1 UNK         0.0600 
    184 H184       -4.2578  -12.8873  -42.8879 H         1 UNK         0.3000 
    185 H185       -3.7443  -14.1922  -45.1239 H         1 UNK         0.0600 
    186 H186       -4.1511  -11.7312  -44.8494 H         1 UNK         0.0600 
    187 H187       -2.4699  -11.3855  -45.2453 H         1 UNK         0.0600 
    188 H188       -3.5515  -12.0482  -46.4666 H         1 UNK         0.0600 
    189 H189       -0.8737  -13.8450  -45.3664 H         1 UNK         0.3000 
    190 H190       -0.2122  -20.9054  -47.6488 H         1 UNK         0.3000 
    191 H191       -1.0975  -22.2167  -50.0181 H         1 UNK         0.0600 
    192 H192       -0.9833  -19.8084  -49.9078 H         1 UNK         0.0600 
    193 H193       -2.6493  -20.2631  -50.2045 H         1 UNK         0.0600 
    194 H194       -2.1626  -19.7360  -48.5932 H         1 UNK         0.0600 
    195 H195       -2.6117  -21.9582  -46.7698 H         1 UNK         0.3000 
    196 H196       -5.0926  -23.1581  -47.4542 H         1 UNK         0.0600 
    197 H197       -5.2917  -23.5757  -45.0096 H         1 UNK         0.0600 
    198 H198       -4.7271  -21.9427  -45.3277 H         1 UNK         0.0600 
    199 H199       -3.5940  -23.1788  -44.7847 H         1 UNK         0.0600 
    200 H200       -2.0281  -24.6445  -46.2673 H         1 UNK         0.3000 
    201 H201       -2.9225  -27.3407  -46.2916 H         1 UNK         0.0600 
    202 H202       -0.9229  -26.5934  -45.0424 H         1 UNK         0.0600 
    203 H203       -0.0989  -26.1754  -46.5429 H         1 UNK         0.0600 
    204 H204       -0.4748  -27.8562  -46.1792 H         1 UNK         0.0600 
    205 H205       -1.4463  -25.3263  -48.8344 H         1 UNK         0.3000 
    206 H206       -1.2386  -27.4085  -50.8146 H         1 UNK         0.0600 
    207 H207        0.1502  -25.3287  -50.8305 H         1 UNK         0.0600 
    208 H208       -0.7508  -25.4945  -52.3291 H         1 UNK         0.0600 
    209 H209       -1.2936  -24.3564  -51.1060 H         1 UNK         0.0600 
    210 H210       -3.9673  -25.7910  -49.5789 H         1 UNK         0.3000 
    211 H211       -6.0778  -25.4758  -50.1087 H         1 UNK         0.0600 
    212 H212       -5.7713  -27.5394  -52.3528 H         1 UNK         0.0600 
    213 H213       -7.2715  -27.0059  -51.6105 H         1 UNK         0.0600 
    214 H214       -6.1104  -27.9234  -50.6653 H         1 UNK         0.0600 
    215 H215       -4.0937  -23.7672  -51.1272 H         1 UNK         0.3000 
    216 H216       -4.9236  -22.8331  -53.8103 H         1 UNK         0.0600 
    217 H217       -2.8801  -21.3827  -53.4794 H         1 UNK         0.0600 
    218 H218       -2.5184  -23.0968  -53.3269 H         1 UNK         0.0600 
    219 H219       -2.6437  -22.0804  -51.8974 H         1 UNK         0.0600 
    220 H220       -5.3594  -22.1049  -50.4419 H         1 UNK         0.3000 
    221 H221       -6.3784  -20.5382  -49.2423 H         1 UNK         0.0600 
    222 H222       -8.0299  -20.1310  -51.8003 H         1 UNK         0.0600 
    223 H223       -8.3670  -21.2521  -50.4900 H         1 UNK         0.0600 
    224 H224       -8.4680  -19.5243  -50.2046 H         1 UNK         0.0600 
    225 H225       -7.0563  -18.3599  -51.8703 H         1 UNK         0.3000 
    226 H226       -5.3534  -16.2591  -50.7477 H         1 UNK         0.0600 
    227 H227       -7.6861  -15.7706  -51.4488 H         1 UNK         0.0600 
    228 H228       -6.5421  -14.8393  -52.3995 H         1 UNK         0.0600 
    229 H229       -7.3127  -16.2578  -53.1021 H         1 UNK         0.0600 
    230 H230       -3.6381  -18.1060  -51.4091 H         1 UNK         0.3000 
    231 H231       -1.6886  -18.5173  -52.3667 H         1 UNK         0.0600 
    232 H232       -1.9066  -15.7499  -53.6692 H         1 UNK         0.0600 
    233 H233       -0.4295  -16.6302  -53.3284 H         1 UNK         0.0600 
    234 H234       -1.4110  -16.0273  -52.0050 H         1 UNK         0.0600 
    235 H235       -4.2443  -19.0468  -54.1087 H         1 UNK         0.3000 
    236 H236       -3.2411  -18.9139  -56.8500 H         1 UNK         0.0600 
    237 H237       -5.6100  -18.4024  -56.3024 H         1 UNK         0.0600 
    238 H238       -5.4875  -19.7630  -57.4068 H         1 UNK         0.0600 
    239 H239       -5.8450  -20.0448  -55.7087 H         1 UNK         0.0600 
    240 H240       -1.3340  -20.2981  -55.8678 H         1 UNK         0.3000 
    241 H241       -1.7468  -23.1316  -55.6294 H         1 UNK         0.0600 
    242 H242       -1.6260  -21.2744  -58.5694 H         1 UNK         0.3800 
    243 H243       -1.2682  -22.6253  -59.6124 H         1 UNK         0.3800 
    244 H244        0.7296  -23.3105  -55.5833 H         1 UNK         0.0800 
    245 H245        0.8764  -21.6498  -56.0937 H         1 UNK         0.0800 
    246 H246        2.5265  -21.2728  -54.1078 H         1 UNK         0.0800 
    247 H247        1.4845  -19.8995  -54.3969 H         1 UNK         0.0800 
@<TRIPOS>BOND
     1    1    2 1    
     2    1  127 1    
     3    1  128 1    
     4    1  129 1    
     5    2    3 2    
     6    2    4 am   BACKBONE|DICT|INTERRES
     7    4    5 1    
     8    4  130 1    
     9    5    6 1    
    10    5   65 1    
    11    5  131 1    
    12    6    7 1    
    13    6  132 1    
    14    6  133 1    
    15    7    8 1    
    16    8    9 1    
    17    8  134 1    
    18    8  135 1    
    19    9   10 ar   
    20    9   14 ar   
    21   10   11 ar   
    22   10  136 1    
    23   11   12 ar   
    24   11  126 1    
    25   12   13 ar   
    26   12  137 1    
    27   13   14 ar   
    28   13   15 1    
    29   14  138 1    
    30   15   16 1    
    31   15  139 1    
    32   15  140 1    
    33   16   17 1    
    34   17   18 1    
    35   17  141 1    
    36   17  142 1    
    37   18   19 1    
    38   18   67 1    
    39   18  143 1    
    40   19   20 am   BACKBONE|DICT|INTERRES
    41   19  144 1    
    42   20   21 2    
    43   20   22 1    
    44   22   23 1    
    45   22   24 1    
    46   22  145 1    
    47   23  146 1    
    48   23  147 1    
    49   23  148 1    
    50   24   25 am   BACKBONE|DICT|INTERRES
    51   24  149 1    
    52   25   26 2    
    53   25   27 1    
    54   27   28 1    
    55   27   29 1    
    56   27  150 1    
    57   28  151 1    
    58   28  152 1    
    59   28  153 1    
    60   29   30 am   BACKBONE|DICT|INTERRES
    61   29  154 1    
    62   30   31 2    
    63   30   32 1    
    64   32   33 1    
    65   32   34 1    
    66   32  155 1    
    67   33  156 1    
    68   33  157 1    
    69   33  158 1    
    70   34   35 am   BACKBONE|DICT|INTERRES
    71   34  159 1    
    72   35   36 2    
    73   35   37 1    
    74   37   38 1    
    75   37   39 1    
    76   37  160 1    
    77   38  161 1    
    78   38  162 1    
    79   38  163 1    
    80   39   40 am   BACKBONE|DICT|INTERRES
    81   39  164 1    
    82   40   41 2    
    83   40   42 1    
    84   42   43 1    
    85   42   44 1    
    86   42  165 1    
    87   43  166 1    
    88   43  167 1    
    89   43  168 1    
    90   44   45 am   BACKBONE|DICT|INTERRES
    91   44  169 1    
    92   45   46 2    
    93   45   47 1    
    94   47   48 1    
    95   47   49 1    
    96   47  170 1    
    97   48  171 1    
    98   48  172 1    
    99   48  173 1    
   100   49   50 am   BACKBONE|DICT|INTERRES
   101   49  174 1    
   102   50   51 2    
   103   50   52 1    
   104   52   53 1    
   105   52   54 1    
   106   52  175 1    
   107   53  176 1    
   108   53  177 1    
   109   53  178 1    
   110   54   55 am   BACKBONE|DICT|INTERRES
   111   54  179 1    
   112   55   56 2    
   113   55   57 1    
   114   57   58 1    
   115   57   59 1    
   116   57  180 1    
   117   58  181 1    
   118   58  182 1    
   119   58  183 1    
   120   59   60 am   BACKBONE|DICT|INTERRES
   121   59  184 1    
   122   60   61 2    
   123   60   62 1    
   124   62   63 1    
   125   62   64 1    
   126   62  185 1    
   127   63  186 1    
   128   63  187 1    
   129   63  188 1    
   130   64   65 am   BACKBONE|DICT|INTERRES
   131   64  189 1    
   132   65   66 2    
   133   67   68 2    
   134   67   69 am   BACKBONE|DICT|INTERRES
   135   69   70 1    
   136   69  190 1    
   137   70   71 1    
   138   70   72 1    
   139   70  191 1    
   140   71  192 1    
   141   71  193 1    
   142   71  194 1    
   143   72   73 2    
   144   72   74 am   BACKBONE|DICT|INTERRES
   145   74   75 1    
   146   74  195 1    
   147   75   76 1    
   148   75   77 1    
   149   75  196 1    
   150   76  197 1    
   151   76  198 1    
   152   76  199 1    
   153   77   78 2    
   154   77   79 am   BACKBONE|DICT|INTERRES
   155   79   80 1    
   156   79  200 1    
   157   80   81 1    
   158   80   82 1    
   159   80  201 1    
   160   81  202 1    
   161   81  203 1    
   162   81  204 1    
   163   82   83 2    
   164   82   84 am   BACKBONE|DICT|INTERRES
   165   84   85 1    
   166   84  205 1    
   167   85   86 1    
   168   85   87 1    
   169   85  206 1    
   170   86  207 1    
   171   86  208 1    
   172   86  209 1    
   173   87   88 2    
   174   87   89 am   BACKBONE|DICT|INTERRES
   175   89   90 1    
   176   89  210 1    
   177   90   91 1    
   178   90   92 1    
   179   90  211 1    
   180   91  212 1    
   181   91  213 1    
   182   91  214 1    
   183   92   93 2    
   184   92   94 am   BACKBONE|DICT|INTERRES
   185   94   95 1    
   186   94  215 1    
   187   95   96 1    
   188   95   97 1    
   189   95  216 1    
   190   96  217 1    
   191   96  218 1    
   192   96  219 1    
   193   97   98 2    
   194   97   99 am   BACKBONE|DICT|INTERRES
   195   99  100 1    
   196   99  220 1    
   197  100  101 1    
   198  100  102 1    
   199  100  221 1    
   200  101  222 1    
   201  101  223 1    
   202  101  224 1    
   203  102  103 2    
   204  102  104 am   BACKBONE|DICT|INTERRES
   205  104  105 1    
   206  104  225 1    
   207  105  106 1    
   208  105  107 1    
   209  105  226 1    
   210  106  227 1    
   211  106  228 1    
   212  106  229 1    
   213  107  108 2    
   214  107  109 am   BACKBONE|DICT|INTERRES
   215  109  110 1    
   216  109  230 1    
   217  110  111 1    
   218  110  112 1    
   219  110  231 1    
   220  111  232 1    
   221  111  233 1    
   222  111  234 1    
   223  112  113 2    
   224  112  114 am   BACKBONE|DICT|INTERRES
   225  114  115 1    
   226  114  235 1    
   227  115  116 1    
   228  115  117 1    
   229  115  236 1    
   230  116  237 1    
   231  116  238 1    
   232  116  239 1    
   233  117  118 2    
   234  117  119 am   BACKBONE|DICT|INTERRES
   235  119  120 1    
   236  119  240 1    
   237  120  121 1    
   238  120  124 1    
   239  120  241 1    
   240  121  122 am   BACKBONE|DICT|INTERRES
   241  121  123 2    
   242  122  242 1    
   243  122  243 1    
   244  124  125 1    
   245  124  244 1    
   246  124  245 1    
   247  125  126 1    
   248  126  246 1    
   249  126  247 1    
@<TRIPOS>SUBSTRUCTURE
     1 UNK         1 GROUP             0       ****    0 ROOT    
