@<TRIPOS>MOLECULE
3R540
247   249    1
SMALL
USER_CHARGES


@<TRIPOS>ATOM
      1 CA         -2.1248  -13.4586  -47.1391 C.3       0 UNK        -0.1800 
      2 C          -0.9894  -12.7040  -47.8155 C.2       0 UNK         0.5000 
      3 O          -1.2230  -12.0139  -48.8080 O.2       0 UNK        -0.5000 
      4 N           0.2314  -12.8361  -47.2867 N.am      1 UNK        -0.5000 
      5 CA          1.4299  -12.1437  -47.7665 C.3       1 UNK         0.1400 
      6 C6          2.6706  -13.0717  -47.7226 C.3       23 UNK        -0.0398 
      7 S7          2.5830  -14.3829  -48.9866 S.3       23 UNK        -0.2404 
      8 C8          2.0262  -15.7888  -47.9812 C.3       23 UNK        -0.0205 
      9 C9          1.7931  -17.0300  -48.8273 C.ar      23 UNK        -0.0193 
     10 C10         0.7148  -17.0884  -49.7171 C.ar      23 UNK        -0.1150 
     11 C11         0.4895  -18.2314  -50.4911 C.ar      23 UNK        -0.0193 
     12 C12         1.3593  -19.3200  -50.3666 C.ar      23 UNK        -0.1150 
     13 C13         2.4292  -19.2802  -49.4699 C.ar      23 UNK        -0.0193 
     14 C14         2.6450  -18.1308  -48.7066 C.ar      23 UNK        -0.1150 
     15 C15         3.3522  -20.4800  -49.3278 C.3       23 UNK        -0.0205 
     16 S16         2.9980  -21.4301  -47.8175 S.3       23 UNK        -0.2404 
     17 C17         1.2917  -21.9929  -48.1341 C.3       23 UNK        -0.0398 
     18 CA          0.8313  -23.0195  -47.0761 C.3       11 UNK         0.1400 
     19 N           0.7006  -22.4347  -45.7382 N.am      11 UNK        -0.5000 
     20 C           0.6454  -23.1549  -44.6095 C.2       10 UNK         0.5000 
     21 O           0.7722  -24.3785  -44.5767 O.2       10 UNK        -0.5000 
     22 CA          0.3653  -22.3923  -43.3013 C.3       10 UNK         0.1400 
     23 CB          1.6591  -21.7970  -42.7260 C.3       10 UNK        -0.1800 
     24 N          -0.6328  -21.3350  -43.4625 N.am      10 UNK        -0.5000 
     25 C          -1.9143  -21.5379  -43.8005 C.2       9 UNK         0.5000 
     26 O          -2.4103  -22.6523  -43.9647 O.2       9 UNK        -0.5000 
     27 CA         -2.7731  -20.2817  -44.0412 C.3       9 UNK         0.1400 
     28 CB         -3.3283  -19.7298  -42.7197 C.3       9 UNK        -0.1800 
     29 N          -2.0428  -19.2288  -44.7494 N.am      9 UNK        -0.5000 
     30 C          -1.5758  -19.3421  -46.0013 C.2       8 UNK         0.5000 
     31 O          -1.7336  -20.3353  -46.7074 O.2       8 UNK        -0.5000 
     32 CA         -0.7468  -18.1687  -46.5390 C.3       8 UNK         0.1400 
     33 CB         -1.6638  -17.0621  -47.0770 C.3       8 UNK        -0.1800 
     34 N           0.1605  -17.6340  -45.5230 N.am      8 UNK        -0.5000 
     35 C           1.2295  -18.3056  -45.0663 C.2       7 UNK         0.5000 
     36 O           1.5674  -19.4115  -45.4849 O.2       7 UNK        -0.5000 
     37 CA          2.0140  -17.6703  -43.9031 C.3       7 UNK         0.1400 
     38 CB          3.0787  -16.6920  -44.4190 C.3       7 UNK        -0.1800 
     39 N           1.1450  -16.9846  -42.9476 N.am      7 UNK        -0.5000 
     40 C           0.2208  -17.5974  -42.1942 C.2       6 UNK         0.5000 
     41 O           0.0486  -18.8154  -42.1906 O.2       6 UNK        -0.5000 
     42 CA         -0.6890  -16.7073  -41.3274 C.3       6 UNK         0.1400 
     43 CB         -0.1836  -16.6803  -39.8775 C.3       6 UNK        -0.1800 
     44 N          -0.8127  -15.3318  -41.8142 N.am      6 UNK        -0.5000 
     45 C          -1.3575  -14.9616  -42.9830 C.2       5 UNK         0.5000 
     46 O          -1.8021  -15.7545  -43.8134 O.2       5 UNK        -0.5000 
     47 CA         -1.3484  -13.4513  -43.2854 C.3       5 UNK         0.1400 
     48 CB         -2.5903  -12.7701  -42.6930 C.3       5 UNK        -0.1800 
     49 N          -0.1399  -12.8040  -42.7711 N.am      5 UNK        -0.5000 
     50 C           1.0725  -12.9513  -43.3186 C.2       4 UNK         0.5000 
     51 O           1.2829  -13.5653  -44.3694 O.2       4 UNK        -0.5000 
     52 CA          2.2502  -12.3835  -42.5183 C.3       4 UNK         0.1400 
     53 CB          2.8340  -13.4862  -41.6111 C.3       4 UNK        -0.1800 
     54 N           3.2576  -11.8810  -43.4457 N.am      4 UNK        -0.5000 
     55 C           4.3423  -11.1675  -43.1172 C.2       3 UNK         0.5000 
     56 O           4.6348  -10.8501  -41.9637 O.2       3 UNK        -0.5000 
     57 CA          5.2474  -10.7140  -44.2779 C.3       3 UNK         0.1400 
     58 CB          6.1546  -11.8655  -44.7395 C.3       3 UNK        -0.1800 
     59 N           4.4856  -10.2119  -45.4212 N.am      3 UNK        -0.5000 
     60 C           3.7816   -9.0699  -45.4324 C.2       2 UNK         0.5000 
     61 O           3.7530   -8.2727  -44.4942 O.2       2 UNK        -0.5000 
     62 CA          2.9611   -8.7737  -46.7050 C.3       2 UNK         0.1400 
     63 CB          3.7632   -7.8859  -47.6688 C.3       2 UNK        -0.1800 
     64 N           2.5329   -9.9856  -47.4118 N.am      2 UNK        -0.5000 
     65 C           1.6623  -10.8775  -46.9192 C.2       1 UNK         0.5000 
     66 O           1.0926  -10.7364  -45.8343 O.2       1 UNK        -0.5000 
     67 C          -0.4706  -23.7230  -47.5069 C.2       11 UNK         0.5000 
     68 O          -0.4122  -24.8547  -47.9889 O.2       11 UNK        -0.5000 
     69 N          -1.6259  -23.0782  -47.2851 N.am      12 UNK        -0.5000 
     70 CA         -2.9628  -23.5967  -47.5954 C.3       12 UNK         0.1400 
     71 CB         -4.0135  -22.5152  -47.3114 C.3       12 UNK        -0.1800 
     72 C          -3.3225  -24.9016  -46.8592 C.2       12 UNK         0.5000 
     73 O          -4.1340  -25.6716  -47.3672 O.2       12 UNK        -0.5000 
     74 N          -2.6814  -25.1716  -45.7144 N.am      13 UNK        -0.5000 
     75 CA         -2.7829  -26.4418  -44.9914 C.3       13 UNK         0.1400 
     76 CB         -2.0362  -26.3253  -43.6546 C.3       13 UNK        -0.1800 
     77 C          -2.2711  -27.6569  -45.7980 C.2       13 UNK         0.5000 
     78 O          -2.7196  -28.7749  -45.5409 O.2       13 UNK        -0.5000 
     79 N          -1.3669  -27.4204  -46.7598 N.am      14 UNK        -0.5000 
     80 CA         -0.8504  -28.4225  -47.6914 C.3       14 UNK         0.1400 
     81 CB          0.6855  -28.3646  -47.6859 C.3       14 UNK        -0.1800 
     82 C          -1.3898  -28.1975  -49.1154 C.2       14 UNK         0.5000 
     83 O          -1.7594  -29.1631  -49.7837 O.2       14 UNK        -0.5000 
     84 N          -1.4205  -26.9339  -49.5609 N.am      15 UNK        -0.5000 
     85 CA         -1.7588  -26.5297  -50.9284 C.3       15 UNK         0.1400 
     86 CB         -1.0482  -25.1977  -51.2291 C.3       15 UNK        -0.1800 
     87 C          -3.2699  -26.3930  -51.1980 C.2       15 UNK         0.5000 
     88 O          -3.6405  -26.0542  -52.3241 O.2       15 UNK        -0.5000 
     89 N          -4.1118  -26.5815  -50.1716 N.am      16 UNK        -0.5000 
     90 CA         -5.5647  -26.3563  -50.1134 C.3       16 UNK         0.1400 
     91 CB         -6.3292  -27.1954  -51.1565 C.3       16 UNK        -0.1800 
     92 C          -5.9307  -24.8610  -50.1889 C.2       16 UNK         0.5000 
     93 O          -6.5522  -24.3351  -49.2663 O.2       16 UNK        -0.5000 
     94 N          -5.4980  -24.2082  -51.2704 N.am      17 UNK        -0.5000 
     95 CA         -5.5389  -22.7663  -51.5083 C.3       17 UNK         0.1400 
     96 CB         -6.9879  -22.2982  -51.7514 C.3       17 UNK        -0.1800 
     97 C          -4.6182  -22.3554  -52.6773 C.2       17 UNK         0.5000 
     98 O          -4.6794  -21.1988  -53.1009 O.2       17 UNK        -0.5000 
     99 N          -3.8138  -23.2925  -53.2122 N.am      18 UNK        -0.5000 
    100 CA        -3.0459  -23.1826  -54.4566 C.3       18 UNK         0.1400 
    101 CB        -1.8930  -22.1656  -54.3152 C.3       18 UNK        -0.1800 
    102 C         -3.9909  -22.9191  -55.6475 C.2       18 UNK         0.5000 
    103 O         -4.9577  -23.6638  -55.8197 O.2       18 UNK        -0.5000 
    104 N         -3.7511  -21.8481  -56.4130 N.am      19 UNK        -0.5000 
    105 CA        -4.6043  -21.3762  -57.5079 C.3       19 UNK         0.1400 
    106 CB        -3.7284  -20.5980  -58.5069 C.3       19 UNK        -0.1800 
    107 C         -5.8065  -20.5446  -56.9995 C.2       19 UNK         0.5000 
    108 O         -6.1294  -19.5119  -57.5892 O.2       19 UNK        -0.5000 
    109 N         -6.4296  -20.9989  -55.9002 N.am      20 UNK        -0.5000 
    110 CA        -7.5139  -20.3548  -55.1478 C.3       20 UNK         0.1400 
    111 CB        -8.8226  -20.3662  -55.9647 C.3       20 UNK        -0.1800 
    112 C         -7.1233  -18.9488  -54.6414 C.2       20 UNK         0.5000 
    113 O         -7.9069  -18.0046  -54.7622 O.2       20 UNK        -0.5000 
    114 N         -5.8953  -18.8369  -54.1209 N.am      21 UNK        -0.5000 
    115 CA        -5.2475  -17.5751  -53.7704 C.3       21 UNK         0.1400 
    116 CB        -4.0202  -17.3894  -54.6783 C.3       21 UNK        -0.1800 
    117 C         -4.8241  -17.5135  -52.2955 C.2       21 UNK         0.5000 
    118 O         -4.8782  -16.4330  -51.7063 O.2       21 UNK        -0.5000 
    119 N         -4.3830  -18.6427  -51.7283 N.am      22 UNK        -0.5000 
    120 CA        -3.8206  -18.7072  -50.3721 C.3       22 UNK         0.1400 
    121 C         -4.9434  -18.9061  -49.3221 C.2       22 UNK         0.5000 
    122 N         -5.1273  -17.9700  -48.4010 N.am      22 UNK        -0.7600 
    123 O         -5.6383  -19.9180  -49.3259 O.2       22 UNK        -0.5000 
    124 C124       -2.7151  -19.7906  -50.2317 C.3       23 UNK        -0.0398 
    125 S125       -1.5278  -19.8468  -51.6181 S.3       23 UNK        -0.2404 
    126 C126       -0.6499  -18.2498  -51.5047 C.3       23 UNK        -0.0205 
    127 H127       -1.7508  -14.1947  -46.4292 H         1 UNK         0.0600 
    128 H128       -2.7740  -12.7643  -46.6059 H         1 UNK         0.0600 
    129 H129       -2.7228  -13.9855  -47.8828 H         1 UNK         0.0600 
    130 H130        0.3528  -13.3275  -46.4096 H         1 UNK         0.3000 
    131 H131        1.2853  -11.8167  -48.7985 H         1 UNK         0.0600 
    132 H132        3.5856  -12.5129  -47.9246 H         1 UNK         0.0800 
    133 H133        2.7992  -13.5116  -46.7318 H         1 UNK         0.0800 
    134 H134        1.1097  -15.5260  -47.4547 H         1 UNK         0.0800 
    135 H135        2.7780  -15.9881  -47.2184 H         1 UNK         0.0800 
    136 H136        0.0609  -16.2331  -49.8143 H         1 UNK         0.1150 
    137 H137        1.2053  -20.2030  -50.9704 H         1 UNK         0.1150 
    138 H138        3.4717  -18.1019  -48.0108 H         1 UNK         0.1150 
    139 H139        3.2734  -21.1360  -50.1961 H         1 UNK         0.0800 
    140 H140        4.3878  -20.1387  -49.2962 H         1 UNK         0.0800 
    141 H141        1.2608  -22.4281  -49.1349 H         1 UNK         0.0800 
    142 H142        0.6249  -21.1287  -48.1466 H         1 UNK         0.0800 
    143 H143        1.5969  -23.7972  -47.0238 H         1 UNK         0.0600 
    144 H144        0.6513  -21.4241  -45.6832 H         1 UNK         0.3000 
    145 H145       -0.0281  -23.1100  -42.5784 H         1 UNK         0.0600 
    146 H146        1.4769  -21.3083  -41.7687 H         1 UNK         0.0600 
    147 H147        2.4051  -22.5747  -42.5584 H         1 UNK         0.0600 
    148 H148        2.0986  -21.0608  -43.3989 H         1 UNK         0.0600 
    149 H149       -0.3242  -20.3853  -43.2762 H         1 UNK         0.3000 
    150 H150       -3.6209  -20.5704  -44.6646 H         1 UNK         0.0600 
    151 H151       -3.9409  -20.4782  -42.2155 H         1 UNK         0.0600 
    152 H152       -3.9571  -18.8555  -42.8890 H         1 UNK         0.0600 
    153 H153       -2.5332  -19.4441  -42.0318 H         1 UNK         0.0600 
    154 H154       -1.8559  -18.3767  -44.2403 H         1 UNK         0.3000 
    155 H155       -0.1472  -18.5477  -47.3687 H         1 UNK         0.0600 
    156 H156       -2.3125  -16.6571  -46.3001 H         1 UNK         0.0600 
    157 H157       -2.3032  -17.4470  -47.8704 H         1 UNK         0.0600 
    158 H158       -1.0897  -16.2413  -47.5015 H         1 UNK         0.0600 
    159 H159       -0.1040  -16.7640  -45.0812 H         1 UNK         0.3000 
    160 H160        2.5252  -18.4775  -43.3741 H         1 UNK         0.0600 
    161 H161        3.7223  -16.3493  -43.6090 H         1 UNK         0.0600 
    162 H162        2.6285  -15.8138  -44.8807 H         1 UNK         0.0600 
    163 H163        3.7199  -17.1674  -45.1625 H         1 UNK         0.0600 
    164 H164        1.2123  -15.9787  -42.9089 H         1 UNK         0.3000 
    165 H165       -1.6852  -17.1538  -41.3358 H         1 UNK         0.0600 
    166 H166       -0.8644  -16.1252  -39.2319 H         1 UNK         0.0600 
    167 H167       -0.1055  -17.6901  -39.4720 H         1 UNK         0.0600 
    168 H168        0.8023  -16.2196  -39.8033 H         1 UNK         0.0600 
    169 H169       -0.4710  -14.6087  -41.1993 H         1 UNK         0.3000 
    170 H170       -1.3745  -13.3192  -44.3665 H         1 UNK         0.0600 
    171 H171       -3.5042  -13.2228  -43.0802 H         1 UNK         0.0600 
    172 H172       -2.6182  -12.8515  -41.6058 H         1 UNK         0.0600 
    173 H173       -2.6190  -11.7114  -42.9517 H         1 UNK         0.0600 
    174 H174       -0.2372  -12.2724  -41.9178 H         1 UNK         0.3000 
    175 H175        1.8959  -11.5521  -41.9057 H         1 UNK         0.0600 
    176 H176        3.2632  -14.2998  -42.1967 H         1 UNK         0.0600 
    177 H177        3.6148  -13.0998  -40.9567 H         1 UNK         0.0600 
    178 H178        2.0655  -13.9151  -40.9669 H         1 UNK         0.0600 
    179 H179        3.0579  -12.0744  -44.4175 H         1 UNK         0.3000 
    180 H180        5.8839   -9.9059  -43.9107 H         1 UNK         0.0600 
    181 H181        5.5785  -12.6979  -45.1458 H         1 UNK         0.0600 
    182 H182        6.7470  -12.2515  -43.9088 H         1 UNK         0.0600 
    183 H183        6.8530  -11.5336  -45.5079 H         1 UNK         0.0600 
    184 H184        4.4741  -10.7876  -46.2486 H         1 UNK         0.3000 
    185 H185        2.0672   -8.2255  -46.3996 H         1 UNK         0.0600 
    186 H186        4.0757   -6.9621  -47.1800 H         1 UNK         0.0600 
    187 H187        4.6629   -8.3884  -48.0261 H         1 UNK         0.0600 
    188 H188        3.1664   -7.6059  -48.5371 H         1 UNK         0.0600 
    189 H189        2.9500  -10.1463  -48.3177 H         1 UNK         0.3000 
    190 H190       -1.5958  -22.1309  -46.9119 H         1 UNK         0.3000 
    191 H191       -2.9868  -23.8148  -48.6648 H         1 UNK         0.0600 
    192 H192       -4.0352  -22.2481  -46.2558 H         1 UNK         0.0600 
    193 H193       -5.0129  -22.8568  -47.5820 H         1 UNK         0.0600 
    194 H194       -3.8179  -21.6099  -47.8848 H         1 UNK         0.0600 
    195 H195       -2.0782  -24.4618  -45.3181 H         1 UNK         0.3000 
    196 H196       -3.8395  -26.6131  -44.7761 H         1 UNK         0.0600 
    197 H197       -2.1799  -27.2213  -43.0497 H         1 UNK         0.0600 
    198 H198       -2.3955  -25.4770  -43.0714 H         1 UNK         0.0600 
    199 H199       -0.9638  -26.2016  -43.8035 H         1 UNK         0.0600 
    200 H200       -1.0606  -26.4660  -46.9119 H         1 UNK         0.3000 
    201 H201       -1.1483  -29.4261  -47.3810 H         1 UNK         0.0600 
    202 H202        1.0822  -28.5865  -46.6951 H         1 UNK         0.0600 
    203 H203        1.0550  -27.3814  -47.9804 H         1 UNK         0.0600 
    204 H204        1.1072  -29.0959  -48.3766 H         1 UNK         0.0600 
    205 H205       -1.0694  -26.1932  -48.9567 H         1 UNK         0.3000 
    206 H206       -1.3750  -27.2806  -51.6221 H         1 UNK         0.0600 
    207 H207        0.0250  -25.2740  -51.0538 H         1 UNK         0.0600 
    208 H208       -1.1833  -24.9036  -52.2707 H         1 UNK         0.0600 
    209 H209       -1.4309  -24.3866  -50.6085 H         1 UNK         0.0600 
    210 H210       -3.6949  -26.7784  -49.2705 H         1 UNK         0.3000 
    211 H211       -5.8795  -26.7086  -49.1300 H         1 UNK         0.0600 
    212 H212       -6.1093  -26.8918  -52.1799 H         1 UNK         0.0600 
    213 H213       -7.4060  -27.0954  -51.0156 H         1 UNK         0.0600 
    214 H214       -6.0862  -28.2537  -51.0623 H         1 UNK         0.0600 
    215 H215       -5.0114  -24.7697  -51.9600 H         1 UNK         0.3000 
    216 H216       -5.1548  -22.2677  -50.6171 H         1 UNK         0.0600 
    217 H217       -7.0313  -21.2192  -51.9046 H         1 UNK         0.0600 
    218 H218       -7.6299  -22.5161  -50.8985 H         1 UNK         0.0600 
    219 H219       -7.4206  -22.7811  -52.6279 H         1 UNK         0.0600 
    220 H220       -3.8005  -24.2254  -52.8174 H         1 UNK         0.3000 
    221 H221       -2.6016  -24.1638  -54.6298 H         1 UNK         0.0600 
    222 H222       -2.2545  -21.1440  -54.1971 H         1 UNK         0.0600 
    223 H223       -1.2750  -22.3988  -53.4480 H         1 UNK         0.0600 
    224 H224       -1.2391  -22.1884  -55.1875 H         1 UNK         0.0600 
    225 H225       -2.9654  -21.2599  -56.1760 H         1 UNK         0.3000 
    226 H226       -5.0165  -22.2398  -58.0339 H         1 UNK         0.0600 
    227 H227       -2.9018  -21.2107  -58.8672 H         1 UNK         0.0600 
    228 H228       -4.3050  -20.2913  -59.3805 H         1 UNK         0.0600 
    229 H229       -3.3082  -19.6980  -58.0561 H         1 UNK         0.0600 
    230 H230       -6.0807  -21.8661  -55.5106 H         1 UNK         0.3000 
    231 H231       -7.6787  -20.9644  -54.2603 H         1 UNK         0.0600 
    232 H232       -9.0770  -21.3761  -56.2862 H         1 UNK         0.0600 
    233 H233       -8.7517  -19.7392  -56.8540 H         1 UNK         0.0600 
    234 H234       -9.6579  -19.9962  -55.3692 H         1 UNK         0.0600 
    235 H235       -5.3497  -19.6844  -53.9884 H         1 UNK         0.3000 
    236 H236       -5.9234  -16.7352  -53.9438 H         1 UNK         0.0600 
    237 H237       -3.5084  -16.4513  -54.4595 H         1 UNK         0.0600 
    238 H238       -3.2981  -18.1970  -54.5484 H         1 UNK         0.0600 
    239 H239       -4.3093  -17.3659  -55.7293 H         1 UNK         0.0600 
    240 H240       -4.3967  -19.5135  -52.2490 H         1 UNK         0.3000 
    241 H241       -3.3383  -17.7512  -50.1615 H         1 UNK         0.0600 
    242 H242       -5.8548  -18.1022  -47.7165 H         1 UNK         0.3800 
    243 H243       -4.6061  -17.1081  -48.4085 H         1 UNK         0.3800 
    244 H244       -2.1588  -19.6474  -49.3045 H         1 UNK         0.0800 
    245 H245       -3.1600  -20.7843  -50.1648 H         1 UNK         0.0800 
    246 H246       -1.3633  -17.4498  -51.3068 H         1 UNK         0.0800 
    247 H247       -0.2232  -18.0331  -52.4846 H         1 UNK         0.0800 
@<TRIPOS>BOND
     1    1    2 1    
     2    1  127 1    
     3    1  128 1    
     4    1  129 1    
     5    2    3 2    
     6    2    4 am   BACKBONE|DICT|INTERRES
     7    4    5 1    
     8    4  130 1    
     9    5    6 1    
    10    5   65 1    
    11    5  131 1    
    12    6    7 1    
    13    6  132 1    
    14    6  133 1    
    15    7    8 1    
    16    8    9 1    
    17    8  134 1    
    18    8  135 1    
    19    9   10 ar   
    20    9   14 ar   
    21   10   11 ar   
    22   10  136 1    
    23   11   12 ar   
    24   11  126 1    
    25   12   13 ar   
    26   12  137 1    
    27   13   14 ar   
    28   13   15 1    
    29   14  138 1    
    30   15   16 1    
    31   15  139 1    
    32   15  140 1    
    33   16   17 1    
    34   17   18 1    
    35   17  141 1    
    36   17  142 1    
    37   18   19 1    
    38   18   67 1    
    39   18  143 1    
    40   19   20 am   BACKBONE|DICT|INTERRES
    41   19  144 1    
    42   20   21 2    
    43   20   22 1    
    44   22   23 1    
    45   22   24 1    
    46   22  145 1    
    47   23  146 1    
    48   23  147 1    
    49   23  148 1    
    50   24   25 am   BACKBONE|DICT|INTERRES
    51   24  149 1    
    52   25   26 2    
    53   25   27 1    
    54   27   28 1    
    55   27   29 1    
    56   27  150 1    
    57   28  151 1    
    58   28  152 1    
    59   28  153 1    
    60   29   30 am   BACKBONE|DICT|INTERRES
    61   29  154 1    
    62   30   31 2    
    63   30   32 1    
    64   32   33 1    
    65   32   34 1    
    66   32  155 1    
    67   33  156 1    
    68   33  157 1    
    69   33  158 1    
    70   34   35 am   BACKBONE|DICT|INTERRES
    71   34  159 1    
    72   35   36 2    
    73   35   37 1    
    74   37   38 1    
    75   37   39 1    
    76   37  160 1    
    77   38  161 1    
    78   38  162 1    
    79   38  163 1    
    80   39   40 am   BACKBONE|DICT|INTERRES
    81   39  164 1    
    82   40   41 2    
    83   40   42 1    
    84   42   43 1    
    85   42   44 1    
    86   42  165 1    
    87   43  166 1    
    88   43  167 1    
    89   43  168 1    
    90   44   45 am   BACKBONE|DICT|INTERRES
    91   44  169 1    
    92   45   46 2    
    93   45   47 1    
    94   47   48 1    
    95   47   49 1    
    96   47  170 1    
    97   48  171 1    
    98   48  172 1    
    99   48  173 1    
   100   49   50 am   BACKBONE|DICT|INTERRES
   101   49  174 1    
   102   50   51 2    
   103   50   52 1    
   104   52   53 1    
   105   52   54 1    
   106   52  175 1    
   107   53  176 1    
   108   53  177 1    
   109   53  178 1    
   110   54   55 am   BACKBONE|DICT|INTERRES
   111   54  179 1    
   112   55   56 2    
   113   55   57 1    
   114   57   58 1    
   115   57   59 1    
   116   57  180 1    
   117   58  181 1    
   118   58  182 1    
   119   58  183 1    
   120   59   60 am   BACKBONE|DICT|INTERRES
   121   59  184 1    
   122   60   61 2    
   123   60   62 1    
   124   62   63 1    
   125   62   64 1    
   126   62  185 1    
   127   63  186 1    
   128   63  187 1    
   129   63  188 1    
   130   64   65 am   BACKBONE|DICT|INTERRES
   131   64  189 1    
   132   65   66 2    
   133   67   68 2    
   134   67   69 am   BACKBONE|DICT|INTERRES
   135   69   70 1    
   136   69  190 1    
   137   70   71 1    
   138   70   72 1    
   139   70  191 1    
   140   71  192 1    
   141   71  193 1    
   142   71  194 1    
   143   72   73 2    
   144   72   74 am   BACKBONE|DICT|INTERRES
   145   74   75 1    
   146   74  195 1    
   147   75   76 1    
   148   75   77 1    
   149   75  196 1    
   150   76  197 1    
   151   76  198 1    
   152   76  199 1    
   153   77   78 2    
   154   77   79 am   BACKBONE|DICT|INTERRES
   155   79   80 1    
   156   79  200 1    
   157   80   81 1    
   158   80   82 1    
   159   80  201 1    
   160   81  202 1    
   161   81  203 1    
   162   81  204 1    
   163   82   83 2    
   164   82   84 am   BACKBONE|DICT|INTERRES
   165   84   85 1    
   166   84  205 1    
   167   85   86 1    
   168   85   87 1    
   169   85  206 1    
   170   86  207 1    
   171   86  208 1    
   172   86  209 1    
   173   87   88 2    
   174   87   89 am   BACKBONE|DICT|INTERRES
   175   89   90 1    
   176   89  210 1    
   177   90   91 1    
   178   90   92 1    
   179   90  211 1    
   180   91  212 1    
   181   91  213 1    
   182   91  214 1    
   183   92   93 2    
   184   92   94 am   BACKBONE|DICT|INTERRES
   185   94   95 1    
   186   94  215 1    
   187   95   96 1    
   188   95   97 1    
   189   95  216 1    
   190   96  217 1    
   191   96  218 1    
   192   96  219 1    
   193   97   98 2    
   194   97   99 am   BACKBONE|DICT|INTERRES
   195   99  100 1    
   196   99  220 1    
   197  100  101 1    
   198  100  102 1    
   199  100  221 1    
   200  101  222 1    
   201  101  223 1    
   202  101  224 1    
   203  102  103 2    
   204  102  104 am   BACKBONE|DICT|INTERRES
   205  104  105 1    
   206  104  225 1    
   207  105  106 1    
   208  105  107 1    
   209  105  226 1    
   210  106  227 1    
   211  106  228 1    
   212  106  229 1    
   213  107  108 2    
   214  107  109 am   BACKBONE|DICT|INTERRES
   215  109  110 1    
   216  109  230 1    
   217  110  111 1    
   218  110  112 1    
   219  110  231 1    
   220  111  232 1    
   221  111  233 1    
   222  111  234 1    
   223  112  113 2    
   224  112  114 am   BACKBONE|DICT|INTERRES
   225  114  115 1    
   226  114  235 1    
   227  115  116 1    
   228  115  117 1    
   229  115  236 1    
   230  116  237 1    
   231  116  238 1    
   232  116  239 1    
   233  117  118 2    
   234  117  119 am   BACKBONE|DICT|INTERRES
   235  119  120 1    
   236  119  240 1    
   237  120  121 1    
   238  120  124 1    
   239  120  241 1    
   240  121  122 am   BACKBONE|DICT|INTERRES
   241  121  123 2    
   242  122  242 1    
   243  122  243 1    
   244  124  125 1    
   245  124  244 1    
   246  124  245 1    
   247  125  126 1    
   248  126  246 1    
   249  126  247 1    
@<TRIPOS>SUBSTRUCTURE
     1 UNK         1 GROUP             0       ****    0 ROOT    
