@<TRIPOS>MOLECULE
3R540
247   249    1
SMALL
USER_CHARGES


@<TRIPOS>ATOM
      1 CA          3.7269  -10.5727  -50.2351 C.3       0 UNK        -0.1800 
      2 C           2.4750  -11.3695  -50.5971 C.2       0 UNK         0.5000 
      3 O           1.7859  -11.0052  -51.5476 O.2       0 UNK        -0.5000 
      4 N           2.1400  -12.4581  -49.8919 N.am      1 UNK        -0.5000 
      5 CA          2.7845  -12.9686  -48.6784 C.3       1 UNK         0.1400 
      6 C6          2.5308  -14.4839  -48.4854 C.3       23 UNK        -0.0398 
      7 S7          3.4347  -15.4902  -49.7123 S.3       23 UNK        -0.2404 
      8 C8          2.1911  -15.7566  -51.0167 C.3       23 UNK        -0.0205 
      9 C9          1.1601  -16.8043  -50.6284 C.ar      23 UNK        -0.0193 
     10 C10        -0.0810  -16.4186  -50.1158 C.ar      23 UNK        -0.1150 
     11 C11        -1.0453  -17.3767  -49.7925 C.ar      23 UNK        -0.0193 
     12 C12        -0.7556  -18.7314  -49.9773 C.ar      23 UNK        -0.1150 
     13 C13         0.4834  -19.1312  -50.4881 C.ar      23 UNK        -0.0193 
     14 C14         1.4356  -18.1618  -50.8144 C.ar      23 UNK        -0.1150 
     15 C15         0.7843  -20.6077  -50.7081 C.3       23 UNK        -0.0205 
     16 S16         2.0739  -21.2513  -49.5867 S.3       23 UNK        -0.2404 
     17 C17         1.3720  -20.9227  -47.9330 C.3       23 UNK        -0.0398 
     18 CA          0.6245  -22.1244  -47.3061 C.3       11 UNK         0.1400 
     19 N           0.3761  -21.9151  -45.8784 N.am      11 UNK        -0.5000 
     20 C          -0.1542  -22.8150  -45.0385 C.2       10 UNK         0.5000 
     21 O          -0.4324  -23.9706  -45.3572 O.2       10 UNK        -0.5000 
     22 CA         -0.4788  -22.3241  -43.6156 C.3       10 UNK         0.1400 
     23 CB          0.7752  -22.3419  -42.7296 C.3       10 UNK        -0.1800 
     24 N          -1.0774  -20.9871  -43.6062 N.am      10 UNK        -0.5000 
     25 C          -2.2620  -20.6875  -44.1595 C.2       9 UNK         0.5000 
     26 O          -2.9983  -21.5217  -44.6854 O.2       9 UNK        -0.5000 
     27 CA         -2.6764  -19.2050  -44.1718 C.3       9 UNK         0.1400 
     28 CB         -3.2570  -18.7875  -42.8128 C.3       9 UNK        -0.1800 
     29 N          -1.5763  -18.3116  -44.5372 N.am      9 UNK        -0.5000 
     30 C          -0.9531  -18.3188  -45.7242 C.2       8 UNK         0.5000 
     31 O          -1.2745  -19.0578  -46.6536 O.2       8 UNK        -0.5000 
     32 CA          0.2712  -17.3935  -45.8751 C.3       8 UNK         0.1400 
     33 CB         -0.1551  -15.9394  -46.1259 C.3       8 UNK        -0.1800 
     34 N           1.1519  -17.4509  -44.7067 N.am      8 UNK        -0.5000 
     35 C           1.7996  -18.5528  -44.3012 C.2       7 UNK         0.5000 
     36 O           1.7780  -19.6212  -44.9094 O.2       7 UNK        -0.5000 
     37 CA          2.5486  -18.4661  -42.9621 C.3       7 UNK         0.1400 
     38 CB          3.9517  -17.8713  -43.1523 C.3       7 UNK        -0.1800 
     39 N           1.7980  -17.6881  -41.9761 N.am      7 UNK        -0.5000 
     40 C           0.6734  -18.1172  -41.3840 C.2       6 UNK         0.5000 
     41 O           0.1837  -19.2296  -41.5774 O.2       6 UNK        -0.5000 
     42 CA         -0.0477  -17.1232  -40.4542 C.3       6 UNK         0.1400 
     43 CB          0.5604  -17.1619  -39.0446 C.3       6 UNK        -0.1800 
     44 N          -0.0113  -15.7507  -40.9610 N.am      6 UNK        -0.5000 
     45 C          -0.6212  -15.3392  -42.0818 C.2       5 UNK         0.5000 
     46 O          -1.3344  -16.0644  -42.7727 O.2       5 UNK        -0.5000 
     47 CA         -0.3469  -13.8930  -42.5361 C.3       5 UNK         0.1400 
     48 CB         -1.4013  -12.9361  -41.9621 C.3       5 UNK        -0.1800 
     49 N           0.9884  -13.4135  -42.1722 N.am      5 UNK        -0.5000 
     50 C           2.1439  -13.9479  -42.5844 C.2       4 UNK         0.5000 
     51 O           2.2047  -14.9137  -43.3477 O.2       4 UNK        -0.5000 
     52 CA          3.4316  -13.2962  -42.0348 C.3       4 UNK         0.1400 
     53 CB          4.6880  -14.1283  -42.3457 C.3       4 UNK        -0.1800 
     54 N           3.6342  -11.9385  -42.5419 N.am      4 UNK        -0.5000 
     55 C           2.9239  -10.8513  -42.2094 C.2       3 UNK         0.5000 
     56 O           2.0011  -10.8685  -41.3935 O.2       3 UNK        -0.5000 
     57 CA          3.2951   -9.5218  -42.8992 C.3       3 UNK         0.1400 
     58 CB          3.7311   -8.4797  -41.8566 C.3       3 UNK        -0.1800 
     59 N           4.3683   -9.6551  -43.8928 N.am      3 UNK        -0.5000 
     60 C           4.2826  -10.0768  -45.1624 C.2       2 UNK         0.5000 
     61 O           5.2902  -10.1769  -45.8657 O.2       2 UNK        -0.5000 
     62 CA          2.9160  -10.4420  -45.7758 C.3       2 UNK         0.1400 
     63 CB          2.1984   -9.1878  -46.3131 C.3       2 UNK        -0.1800 
     64 N           3.1678  -11.3679  -46.8738 N.am      2 UNK        -0.5000 
     65 C           2.2724  -12.1551  -47.4754 C.2       1 UNK         0.5000 
     66 O           1.0887  -12.2340  -47.1422 O.2       1 UNK        -0.5000 
     67 C          -0.6802  -22.4492  -48.0602 C.2       11 UNK         0.5000 
     68 O          -0.7211  -23.4358  -48.7936 O.2       11 UNK        -0.5000 
     69 N          -1.7310  -21.6454  -47.8390 N.am      12 UNK        -0.5000 
     70 CA         -3.0604  -21.8511  -48.4142 C.3       12 UNK         0.1400 
     71 CB         -3.9731  -20.6679  -48.0647 C.3       12 UNK        -0.1800 
     72 C          -3.6979  -23.1821  -47.9810 C.2       12 UNK         0.5000 
     73 O          -4.2362  -23.8938  -48.8279 O.2       12 UNK        -0.5000 
     74 N          -3.5940  -23.5159  -46.6871 N.am      13 UNK        -0.5000 
     75 CA         -4.0500  -24.7856  -46.1204 C.3       13 UNK         0.1400 
     76 CB         -3.8809  -24.7685  -44.5939 C.3       13 UNK        -0.1800 
     77 C          -3.3388  -25.9992  -46.7457 C.2       13 UNK         0.5000 
     78 O          -4.0120  -26.9435  -47.1631 O.2       13 UNK        -0.5000 
     79 N          -2.0025  -25.9239  -46.8427 N.am      14 UNK        -0.5000 
     80 CA         -1.1476  -26.9264  -47.4814 C.3       14 UNK         0.1400 
     81 CB          0.3284  -26.5694  -47.2508 C.3       14 UNK        -0.1800 
     82 C          -1.4393  -27.0978  -48.9833 C.2       14 UNK         0.5000 
     83 O          -1.4519  -28.2280  -49.4731 O.2       14 UNK        -0.5000 
     84 N          -1.7306  -25.9899  -49.6776 N.am      15 UNK        -0.5000 
     85 CA         -2.1611  -25.9359  -51.0762 C.3       15 UNK         0.1400 
     86 CB         -1.8652  -24.5351  -51.6380 C.3       15 UNK        -0.1800 
     87 C          -3.6406  -26.3429  -51.2604 C.2       15 UNK         0.5000 
     88 O          -4.4023  -25.6250  -51.9124 O.2       15 UNK        -0.5000 
     89 N          -4.0089  -27.4942  -50.6802 N.am      16 UNK        -0.5000 
     90 CA         -5.3009  -28.1818  -50.7521 C.3       16 UNK         0.1400 
     91 CB         -5.4448  -28.8796  -52.1190 C.3       16 UNK        -0.1800 
     92 C          -6.5076  -27.2900  -50.3915 C.2       16 UNK         0.5000 
     93 O          -7.5222  -27.3160  -51.0904 O.2       16 UNK        -0.5000 
     94 N          -6.3642  -26.5210  -49.3014 N.am      17 UNK        -0.5000 
     95 CA         -7.3383  -25.5616  -48.7695 C.3       17 UNK         0.1400 
     96 CB         -8.5837  -26.2889  -48.2208 C.3       17 UNK        -0.1800 
     97 C          -7.6763  -24.4478  -49.7830 C.2       17 UNK         0.5000 
     98 O          -8.8365  -24.2704  -50.1596 O.2       17 UNK        -0.5000 
     99 N          -6.6293  -23.7214  -50.1931 N.am      18 UNK        -0.5000 
    100 CA        -6.6252  -22.5864  -51.1168 C.3       18 UNK         0.1400 
    101 CB        -7.4172  -21.3973  -50.5324 C.3       18 UNK        -0.1800 
    102 C         -7.0632  -22.9657  -52.5449 C.2       18 UNK         0.5000 
    103 O         -7.8185  -22.2244  -53.1778 O.2       18 UNK        -0.5000 
    104 N         -6.5646  -24.1067  -53.0426 N.am      19 UNK        -0.5000 
    105 CA        -6.7015  -24.5035  -54.4456 C.3       19 UNK         0.1400 
    106 CB        -6.4077  -26.0022  -54.5957 C.3       19 UNK        -0.1800 
    107 C         -5.7758  -23.6702  -55.3516 C.2       19 UNK         0.5000 
    108 O         -6.1589  -23.3383  -56.4743 O.2       19 UNK        -0.5000 
    109 N         -4.5929  -23.3171  -54.8302 N.am      20 UNK        -0.5000 
    110 CA        -3.7012  -22.3158  -55.4086 C.3       20 UNK         0.1400 
    111 CB        -2.2543  -22.6235  -54.9942 C.3       20 UNK        -0.1800 
    112 C         -4.1106  -20.9193  -54.9117 C.2       20 UNK         0.5000 
    113 O         -4.5226  -20.7770  -53.7569 O.2       20 UNK        -0.5000 
    114 N         -3.9688  -19.9141  -55.7816 N.am      21 UNK        -0.5000 
    115 CA        -4.2129  -18.5098  -55.4574 C.3       21 UNK         0.1400 
    116 CB        -4.4073  -17.7250  -56.7645 C.3       21 UNK        -0.1800 
    117 C         -3.0543  -17.9129  -54.6372 C.2       21 UNK         0.5000 
    118 O         -1.8998  -18.3041  -54.8270 O.2       21 UNK        -0.5000 
    119 N         -3.3849  -16.9477  -53.7734 N.am      22 UNK        -0.5000 
    120 CA        -2.4279  -16.2041  -52.9348 C.3       22 UNK         0.1400 
    121 C         -1.6506  -15.0784  -53.6811 C.2       22 UNK         0.5000 
    122 N         -1.9694  -14.7559  -54.9290 N.am      22 UNK        -0.7600 
    123 O         -0.7337  -14.4876  -53.1179 O.2       22 UNK        -0.5000 
    124 C124       -3.1131  -15.6504  -51.6584 C.3       23 UNK        -0.0398 
    125 S125       -3.6880  -16.9811  -50.5471 S.3       23 UNK        -0.2404 
    126 C126       -2.4032  -16.9469  -49.2562 C.3       23 UNK        -0.0205 
    127 H127        3.9358   -9.8274  -51.0029 H         1 UNK         0.0600 
    128 H128        4.6023  -11.2172  -50.1624 H         1 UNK         0.0600 
    129 H129        3.5919  -10.0440  -49.2925 H         1 UNK         0.0600 
    130 H130        1.2892  -12.9361  -50.1474 H         1 UNK         0.3000 
    131 H131        3.8644  -12.8318  -48.7537 H         1 UNK         0.0600 
    132 H132        2.8776  -14.8036  -47.5008 H         1 UNK         0.0800 
    133 H133        1.4658  -14.7127  -48.5153 H         1 UNK         0.0800 
    134 H134        2.7052  -16.0797  -51.9230 H         1 UNK         0.0800 
    135 H135        1.7039  -14.8158  -51.2742 H         1 UNK         0.0800 
    136 H136       -0.3032  -15.3693  -49.9854 H         1 UNK         0.1150 
    137 H137       -1.5012  -19.4726  -49.7287 H         1 UNK         0.1150 
    138 H138        2.3930  -18.4657  -51.2143 H         1 UNK         0.1150 
    139 H139       -0.1212  -21.2069  -50.6056 H         1 UNK         0.0800 
    140 H140        1.1180  -20.7484  -51.7370 H         1 UNK         0.0800 
    141 H141        0.7447  -20.0334  -47.9545 H         1 UNK         0.0800 
    142 H142        2.2188  -20.6601  -47.2983 H         1 UNK         0.0800 
    143 H143        1.2722  -23.0002  -47.3835 H         1 UNK         0.0600 
    144 H144        0.6295  -21.0020  -45.5102 H         1 UNK         0.3000 
    145 H145       -1.2056  -23.0155  -43.1845 H         1 UNK         0.0600 
    146 H146        0.5370  -22.0597  -41.7040 H         1 UNK         0.0600 
    147 H147        1.2163  -23.3389  -42.6989 H         1 UNK         0.0600 
    148 H148        1.5390  -21.6565  -43.0963 H         1 UNK         0.0600 
    149 H149       -0.5521  -20.2544  -43.1400 H         1 UNK         0.3000 
    150 H150       -3.4596  -19.0876  -44.9234 H         1 UNK         0.0600 
    151 H151       -4.0930  -19.4290  -42.5317 H         1 UNK         0.0600 
    152 H152       -3.6283  -17.7630  -42.8416 H         1 UNK         0.0600 
    153 H153       -2.5126  -18.8506  -42.0191 H         1 UNK         0.0600 
    154 H154       -1.2957  -17.6277  -43.8395 H         1 UNK         0.3000 
    155 H155        0.8449  -17.7320  -46.7407 H         1 UNK         0.0600 
    156 H156       -0.6682  -15.8462  -47.0822 H         1 UNK         0.0600 
    157 H157        0.7051  -15.2707  -46.1517 H         1 UNK         0.0600 
    158 H158       -0.8346  -15.5757  -45.3560 H         1 UNK         0.0600 
    159 H159        1.2615  -16.6004  -44.1659 H         1 UNK         0.3000 
    160 H160        2.6661  -19.4809  -42.5763 H         1 UNK         0.0600 
    161 H161        3.9173  -16.8786  -43.6003 H         1 UNK         0.0600 
    162 H162        4.5509  -18.5016  -43.8105 H         1 UNK         0.0600 
    163 H163        4.4825  -17.7962  -42.2032 H         1 UNK         0.0600 
    164 H164        2.1023  -16.7381  -41.8216 H         1 UNK         0.3000 
    165 H165       -1.0931  -17.4311  -40.3841 H         1 UNK         0.0600 
    166 H166        0.0087  -16.5180  -38.3595 H         1 UNK         0.0600 
    167 H167        0.5296  -18.1724  -38.6347 H         1 UNK         0.0600 
    168 H168        1.6022  -16.8391  -39.0444 H         1 UNK         0.0600 
    169 H169        0.5486  -15.0863  -40.4475 H         1 UNK         0.3000 
    170 H170       -0.4204  -13.8696  -43.6250 H         1 UNK         0.0600 
    171 H171       -2.4080  -13.2528  -42.2384 H         1 UNK         0.0600 
    172 H172       -1.3564  -12.8940  -40.8731 H         1 UNK         0.0600 
    173 H173       -1.2636  -11.9239  -42.3430 H         1 UNK         0.0600 
    174 H174        1.0380  -12.5750  -41.6015 H         1 UNK         0.3000 
    175 H175        3.3308  -13.2449  -40.9487 H         1 UNK         0.0600 
    176 H176        5.5792  -13.6754  -41.9108 H         1 UNK         0.0600 
    177 H177        4.6032  -15.1324  -41.9292 H         1 UNK         0.0600 
    178 H178        4.8525  -14.2282  -43.4195 H         1 UNK         0.0600 
    179 H179        4.3831  -11.8241  -43.2088 H         1 UNK         0.3000 
    180 H180        2.3914   -9.1467  -43.3796 H         1 UNK         0.0600 
    181 H181        4.6244   -8.7979  -41.3178 H         1 UNK         0.0600 
    182 H182        2.9465   -8.3079  -41.1184 H         1 UNK         0.0600 
    183 H183        3.9461   -7.5191  -42.3255 H         1 UNK         0.0600 
    184 H184        5.2875   -9.4182  -43.5488 H         1 UNK         0.3000 
    185 H185        2.2932  -10.9436  -45.0342 H         1 UNK         0.0600 
    186 H186        2.0426   -8.4451  -45.5311 H         1 UNK         0.0600 
    187 H187        2.7748   -8.7074  -47.1047 H         1 UNK         0.0600 
    188 H188        1.2177   -9.4348  -46.7199 H         1 UNK         0.0600 
    189 H189        4.1368  -11.3695  -47.1717 H         1 UNK         0.3000 
    190 H190       -1.6102  -20.8273  -47.2464 H         1 UNK         0.3000 
    191 H191       -2.9487  -21.8793  -49.5000 H         1 UNK         0.0600 
    192 H192       -4.0680  -20.5330  -46.9874 H         1 UNK         0.0600 
    193 H193       -4.9751  -20.8150  -48.4674 H         1 UNK         0.0600 
    194 H194       -3.5909  -19.7400  -48.4859 H         1 UNK         0.0600 
    195 H195       -3.1789  -22.8497  -46.0406 H         1 UNK         0.3000 
    196 H196       -5.1154  -24.8781  -46.3354 H         1 UNK         0.0600 
    197 H197       -4.2392  -25.6986  -44.1511 H         1 UNK         0.0600 
    198 H198       -4.4490  -23.9539  -44.1444 H         1 UNK         0.0600 
    199 H199       -2.8378  -24.6469  -44.3029 H         1 UNK         0.0600 
    200 H200       -1.5290  -25.1141  -46.4503 H         1 UNK         0.3000 
    201 H201       -1.3448  -27.8844  -46.9963 H         1 UNK         0.0600 
    202 H202        0.5626  -26.5319  -46.1868 H         1 UNK         0.0600 
    203 H203        0.5804  -25.6002  -47.6821 H         1 UNK         0.0600 
    204 H204        0.9863  -27.3124  -47.7031 H         1 UNK         0.0600 
    205 H205       -1.6560  -25.0938  -49.2043 H         1 UNK         0.3000 
    206 H206       -1.5639  -26.6498  -51.6468 H         1 UNK         0.0600 
    207 H207       -0.8129  -24.2748  -51.5224 H         1 UNK         0.0600 
    208 H208       -2.0946  -24.4938  -52.7022 H         1 UNK         0.0600 
    209 H209       -2.4577  -23.7679  -51.1385 H         1 UNK         0.0600 
    210 H210       -3.2873  -27.9786  -50.1557 H         1 UNK         0.3000 
    211 H211       -5.2720  -28.9619  -49.9901 H         1 UNK         0.0600 
    212 H212       -5.4539  -28.1622  -52.9376 H         1 UNK         0.0600 
    213 H213       -6.3686  -29.4565  -52.1743 H         1 UNK         0.0600 
    214 H214       -4.6217  -29.5724  -52.2940 H         1 UNK         0.0600 
    215 H215       -5.4793  -26.5651  -48.8087 H         1 UNK         0.3000 
    216 H216       -6.8552  -25.0687  -47.9258 H         1 UNK         0.0600 
    217 H217       -9.2622  -25.5852  -47.7374 H         1 UNK         0.0600 
    218 H218       -8.3069  -27.0358  -47.4768 H         1 UNK         0.0600 
    219 H219       -9.1445  -26.7923  -49.0087 H         1 UNK         0.0600 
    220 H220       -5.7152  -23.9590  -49.8081 H         1 UNK         0.3000 
    221 H221       -5.5830  -22.2732  -51.1974 H         1 UNK         0.0600 
    222 H222       -8.4883  -21.5989  -50.5021 H         1 UNK         0.0600 
    223 H223       -7.0934  -21.1634  -49.5190 H         1 UNK         0.0600 
    224 H224       -7.2706  -20.5002  -51.1351 H         1 UNK         0.0600 
    225 H225       -5.9373  -24.6688  -52.4709 H         1 UNK         0.3000 
    226 H226       -7.7328  -24.3292  -54.7598 H         1 UNK         0.0600 
    227 H227       -7.0496  -26.5955  -53.9443 H         1 UNK         0.0600 
    228 H228       -6.5864  -26.3323  -55.6196 H         1 UNK         0.0600 
    229 H229       -5.3703  -26.2348  -54.3543 H         1 UNK         0.0600 
    230 H230       -4.3910  -23.6024  -53.8828 H         1 UNK         0.3000 
    231 H231       -3.7664  -22.3514  -56.4983 H         1 UNK         0.0600 
    232 H232       -1.9722  -23.6428  -55.2585 H         1 UNK         0.0600 
    233 H233       -2.1074  -22.4969  -53.9212 H         1 UNK         0.0600 
    234 H234       -1.5574  -21.9514  -55.4965 H         1 UNK         0.0600 
    235 H235       -3.5795  -20.1017  -56.6940 H         1 UNK         0.3000 
    236 H236       -5.1331  -18.4404  -54.8727 H         1 UNK         0.0600 
    237 H237       -4.6339  -16.6774  -56.5628 H         1 UNK         0.0600 
    238 H238       -3.5133  -17.7536  -57.3890 H         1 UNK         0.0600 
    239 H239       -5.2364  -18.1278  -57.3468 H         1 UNK         0.0600 
    240 H240       -4.3540  -16.6818  -53.6773 H         1 UNK         0.3000 
    241 H241       -1.6588  -16.9087  -52.6121 H         1 UNK         0.0600 
    242 H242       -1.4537  -14.0278  -55.3981 H         1 UNK         0.3800 
    243 H243       -2.7156  -15.2310  -55.4095 H         1 UNK         0.3800 
    244 H244       -2.4429  -14.9942  -51.1016 H         1 UNK         0.0800 
    245 H245       -3.9702  -15.0316  -51.9281 H         1 UNK         0.0800 
    246 H246       -2.6984  -17.6054  -48.4398 H         1 UNK         0.0800 
    247 H247       -2.3512  -15.9452  -48.8276 H         1 UNK         0.0800 
@<TRIPOS>BOND
     1    1    2 1    
     2    1  127 1    
     3    1  128 1    
     4    1  129 1    
     5    2    3 2    
     6    2    4 am   BACKBONE|DICT|INTERRES
     7    4    5 1    
     8    4  130 1    
     9    5    6 1    
    10    5   65 1    
    11    5  131 1    
    12    6    7 1    
    13    6  132 1    
    14    6  133 1    
    15    7    8 1    
    16    8    9 1    
    17    8  134 1    
    18    8  135 1    
    19    9   10 ar   
    20    9   14 ar   
    21   10   11 ar   
    22   10  136 1    
    23   11   12 ar   
    24   11  126 1    
    25   12   13 ar   
    26   12  137 1    
    27   13   14 ar   
    28   13   15 1    
    29   14  138 1    
    30   15   16 1    
    31   15  139 1    
    32   15  140 1    
    33   16   17 1    
    34   17   18 1    
    35   17  141 1    
    36   17  142 1    
    37   18   19 1    
    38   18   67 1    
    39   18  143 1    
    40   19   20 am   BACKBONE|DICT|INTERRES
    41   19  144 1    
    42   20   21 2    
    43   20   22 1    
    44   22   23 1    
    45   22   24 1    
    46   22  145 1    
    47   23  146 1    
    48   23  147 1    
    49   23  148 1    
    50   24   25 am   BACKBONE|DICT|INTERRES
    51   24  149 1    
    52   25   26 2    
    53   25   27 1    
    54   27   28 1    
    55   27   29 1    
    56   27  150 1    
    57   28  151 1    
    58   28  152 1    
    59   28  153 1    
    60   29   30 am   BACKBONE|DICT|INTERRES
    61   29  154 1    
    62   30   31 2    
    63   30   32 1    
    64   32   33 1    
    65   32   34 1    
    66   32  155 1    
    67   33  156 1    
    68   33  157 1    
    69   33  158 1    
    70   34   35 am   BACKBONE|DICT|INTERRES
    71   34  159 1    
    72   35   36 2    
    73   35   37 1    
    74   37   38 1    
    75   37   39 1    
    76   37  160 1    
    77   38  161 1    
    78   38  162 1    
    79   38  163 1    
    80   39   40 am   BACKBONE|DICT|INTERRES
    81   39  164 1    
    82   40   41 2    
    83   40   42 1    
    84   42   43 1    
    85   42   44 1    
    86   42  165 1    
    87   43  166 1    
    88   43  167 1    
    89   43  168 1    
    90   44   45 am   BACKBONE|DICT|INTERRES
    91   44  169 1    
    92   45   46 2    
    93   45   47 1    
    94   47   48 1    
    95   47   49 1    
    96   47  170 1    
    97   48  171 1    
    98   48  172 1    
    99   48  173 1    
   100   49   50 am   BACKBONE|DICT|INTERRES
   101   49  174 1    
   102   50   51 2    
   103   50   52 1    
   104   52   53 1    
   105   52   54 1    
   106   52  175 1    
   107   53  176 1    
   108   53  177 1    
   109   53  178 1    
   110   54   55 am   BACKBONE|DICT|INTERRES
   111   54  179 1    
   112   55   56 2    
   113   55   57 1    
   114   57   58 1    
   115   57   59 1    
   116   57  180 1    
   117   58  181 1    
   118   58  182 1    
   119   58  183 1    
   120   59   60 am   BACKBONE|DICT|INTERRES
   121   59  184 1    
   122   60   61 2    
   123   60   62 1    
   124   62   63 1    
   125   62   64 1    
   126   62  185 1    
   127   63  186 1    
   128   63  187 1    
   129   63  188 1    
   130   64   65 am   BACKBONE|DICT|INTERRES
   131   64  189 1    
   132   65   66 2    
   133   67   68 2    
   134   67   69 am   BACKBONE|DICT|INTERRES
   135   69   70 1    
   136   69  190 1    
   137   70   71 1    
   138   70   72 1    
   139   70  191 1    
   140   71  192 1    
   141   71  193 1    
   142   71  194 1    
   143   72   73 2    
   144   72   74 am   BACKBONE|DICT|INTERRES
   145   74   75 1    
   146   74  195 1    
   147   75   76 1    
   148   75   77 1    
   149   75  196 1    
   150   76  197 1    
   151   76  198 1    
   152   76  199 1    
   153   77   78 2    
   154   77   79 am   BACKBONE|DICT|INTERRES
   155   79   80 1    
   156   79  200 1    
   157   80   81 1    
   158   80   82 1    
   159   80  201 1    
   160   81  202 1    
   161   81  203 1    
   162   81  204 1    
   163   82   83 2    
   164   82   84 am   BACKBONE|DICT|INTERRES
   165   84   85 1    
   166   84  205 1    
   167   85   86 1    
   168   85   87 1    
   169   85  206 1    
   170   86  207 1    
   171   86  208 1    
   172   86  209 1    
   173   87   88 2    
   174   87   89 am   BACKBONE|DICT|INTERRES
   175   89   90 1    
   176   89  210 1    
   177   90   91 1    
   178   90   92 1    
   179   90  211 1    
   180   91  212 1    
   181   91  213 1    
   182   91  214 1    
   183   92   93 2    
   184   92   94 am   BACKBONE|DICT|INTERRES
   185   94   95 1    
   186   94  215 1    
   187   95   96 1    
   188   95   97 1    
   189   95  216 1    
   190   96  217 1    
   191   96  218 1    
   192   96  219 1    
   193   97   98 2    
   194   97   99 am   BACKBONE|DICT|INTERRES
   195   99  100 1    
   196   99  220 1    
   197  100  101 1    
   198  100  102 1    
   199  100  221 1    
   200  101  222 1    
   201  101  223 1    
   202  101  224 1    
   203  102  103 2    
   204  102  104 am   BACKBONE|DICT|INTERRES
   205  104  105 1    
   206  104  225 1    
   207  105  106 1    
   208  105  107 1    
   209  105  226 1    
   210  106  227 1    
   211  106  228 1    
   212  106  229 1    
   213  107  108 2    
   214  107  109 am   BACKBONE|DICT|INTERRES
   215  109  110 1    
   216  109  230 1    
   217  110  111 1    
   218  110  112 1    
   219  110  231 1    
   220  111  232 1    
   221  111  233 1    
   222  111  234 1    
   223  112  113 2    
   224  112  114 am   BACKBONE|DICT|INTERRES
   225  114  115 1    
   226  114  235 1    
   227  115  116 1    
   228  115  117 1    
   229  115  236 1    
   230  116  237 1    
   231  116  238 1    
   232  116  239 1    
   233  117  118 2    
   234  117  119 am   BACKBONE|DICT|INTERRES
   235  119  120 1    
   236  119  240 1    
   237  120  121 1    
   238  120  124 1    
   239  120  241 1    
   240  121  122 am   BACKBONE|DICT|INTERRES
   241  121  123 2    
   242  122  242 1    
   243  122  243 1    
   244  124  125 1    
   245  124  244 1    
   246  124  245 1    
   247  125  126 1    
   248  126  246 1    
   249  126  247 1    
@<TRIPOS>SUBSTRUCTURE
     1 UNK         1 GROUP             0       ****    0 ROOT    
