@<TRIPOS>MOLECULE
3R540
247   249    1
SMALL
USER_CHARGES


@<TRIPOS>ATOM
      1 CA         -4.4881  -13.6965  -51.3734 C.3       0 UNK        -0.1800 
      2 C          -3.9724  -14.8712  -50.5551 C.2       0 UNK         0.5000 
      3 O          -4.4820  -15.9781  -50.6956 O.2       0 UNK        -0.5000 
      4 N          -2.9722  -14.6275  -49.6976 N.am      1 UNK        -0.5000 
      5 CA         -2.2805  -15.6126  -48.8511 C.3       1 UNK         0.1400 
      6 C6         -1.3463  -16.5670  -49.6558 C.3       23 UNK        -0.0398 
      7 S7          0.3109  -16.6799  -48.8967 S.3       23 UNK        -0.2404 
      8 C8          1.3686  -17.0607  -50.3271 C.3       23 UNK        -0.0205 
      9 C9          1.3844  -18.5481  -50.6466 C.ar      23 UNK        -0.0193 
     10 C10         0.5058  -19.0769  -51.5952 C.ar      23 UNK        -0.1150 
     11 C11         0.5475  -20.4349  -51.9226 C.ar      23 UNK        -0.0193 
     12 C12         1.4628  -21.2705  -51.2760 C.ar      23 UNK        -0.1150 
     13 C13         2.3489  -20.7573  -50.3235 C.ar      23 UNK        -0.0193 
     14 C14         2.3058  -19.3920  -50.0178 C.ar      23 UNK        -0.1150 
     15 C15         3.3765  -21.6797  -49.6712 C.3       23 UNK        -0.0205 
     16 S16         3.4628  -21.5225  -47.8561 S.3       23 UNK        -0.2404 
     17 C17         1.7751  -21.9934  -47.3560 C.3       23 UNK        -0.0398 
     18 CA          1.7409  -23.1778  -46.3606 C.3       11 UNK         0.1400 
     19 N           2.4261  -22.8614  -45.1084 N.am      11 UNK        -0.5000 
     20 C           2.9553  -23.7670  -44.2770 C.2       10 UNK         0.5000 
     21 O           2.9443  -24.9787  -44.5035 O.2       10 UNK        -0.5000 
     22 CA          3.5913  -23.2325  -42.9743 C.3       10 UNK         0.1400 
     23 CB          4.6535  -24.1834  -42.3842 C.3       10 UNK        -0.1800 
     24 N           4.1162  -21.8688  -43.0972 N.am      10 UNK        -0.5000 
     25 C           5.1105  -21.4307  -43.8866 C.2       9 UNK         0.5000 
     26 O           5.8026  -22.1685  -44.5889 O.2       9 UNK        -0.5000 
     27 CA          5.3756  -19.9095  -43.9061 C.3       9 UNK         0.1400 
     28 CB          5.1862  -19.3349  -45.3200 C.3       9 UNK        -0.1800 
     29 N           4.4936  -19.1811  -42.9926 N.am      9 UNK        -0.5000 
     30 C           4.7915  -18.8463  -41.7303 C.2       8 UNK         0.5000 
     31 O           5.8886  -19.0497  -41.2096 O.2       8 UNK        -0.5000 
     32 CA          3.6671  -18.1942  -40.8987 C.3       8 UNK         0.1400 
     33 CB          3.8099  -16.6652  -40.9155 C.3       8 UNK        -0.1800 
     34 N           2.3194  -18.5632  -41.3472 N.am      8 UNK        -0.5000 
     35 C           1.8081  -19.8010  -41.2616 C.2       7 UNK         0.5000 
     36 O           2.4075  -20.7476  -40.7525 O.2       7 UNK        -0.5000 
     37 CA          0.4352  -20.0524  -41.9121 C.3       7 UNK         0.1400 
     38 CB         -0.7007  -19.8268  -40.9058 C.3       7 UNK        -0.1800 
     39 N           0.2012  -19.2543  -43.1173 N.am      7 UNK        -0.5000 
     40 C           0.9196  -19.3708  -44.2443 C.2       6 UNK         0.5000 
     41 O           1.8989  -20.1084  -44.3523 O.2       6 UNK        -0.5000 
     42 CA          0.4848  -18.5283  -45.4488 C.3       6 UNK         0.1400 
     43 CB         -0.6654  -19.2151  -46.1903 C.3       6 UNK        -0.1800 
     44 N           0.0586  -17.1943  -45.0389 N.am      6 UNK        -0.5000 
     45 C           0.8506  -16.1166  -45.0326 C.2       5 UNK         0.5000 
     46 O           2.0195  -16.1148  -45.4194 O.2       5 UNK        -0.5000 
     47 CA          0.2379  -14.8220  -44.4650 C.3       5 UNK         0.1400 
     48 CB         -0.5275  -14.0618  -45.5581 C.3       5 UNK        -0.1800 
     49 N          -0.6554  -15.0471  -43.3262 N.am      5 UNK        -0.5000 
     50 C          -0.2915  -15.6121  -42.1662 C.2       4 UNK         0.5000 
     51 O           0.8420  -16.0285  -41.9296 O.2       4 UNK        -0.5000 
     52 CA         -1.3825  -15.7729  -41.0938 C.3       4 UNK         0.1400 
     53 CB         -1.4315  -14.5268  -40.1973 C.3       4 UNK        -0.1800 
     54 N          -2.7281  -16.0433  -41.6064 N.am      4 UNK        -0.5000 
     55 C          -3.0919  -17.0045  -42.4681 C.2       3 UNK         0.5000 
     56 O          -2.2957  -17.7562  -43.0368 O.2       3 UNK        -0.5000 
     57 CA         -4.6065  -17.1583  -42.7381 C.3       3 UNK         0.1400 
     58 CB         -5.4977  -16.1843  -41.9343 C.3       3 UNK        -0.1800 
     59 N          -4.9478  -17.0759  -44.1594 N.am      3 UNK        -0.5000 
     60 C          -4.6272  -16.0931  -45.0108 C.2       2 UNK         0.5000 
     61 O          -3.9447  -15.1081  -44.7137 O.2       2 UNK        -0.5000 
     62 CA         -5.2198  -16.2093  -46.4256 C.3       2 UNK         0.1400 
     63 CB         -6.5408  -15.4319  -46.5218 C.3       2 UNK        -0.1800 
     64 N          -4.2907  -15.6871  -47.4237 N.am      2 UNK        -0.5000 
     65 C          -3.2127  -16.3522  -47.8574 C.2       1 UNK         0.5000 
     66 O          -2.9516  -17.4965  -47.4927 O.2       1 UNK        -0.5000 
     67 C           0.2826  -23.5792  -46.0647 C.2       11 UNK         0.5000 
     68 O          -0.3773  -22.9397  -45.2418 O.2       11 UNK        -0.5000 
     69 N          -0.2179  -24.5906  -46.7884 N.am      12 UNK        -0.5000 
     70 CA         -1.6026  -25.0771  -46.7097 C.3       12 UNK         0.1400 
     71 CB         -1.6936  -26.4308  -47.4304 C.3       12 UNK        -0.1800 
     72 C          -2.6436  -24.0909  -47.2825 C.2       12 UNK         0.5000 
     73 O          -3.8372  -24.2387  -47.0158 O.2       12 UNK        -0.5000 
     74 N          -2.1691  -23.0909  -48.0394 N.am      13 UNK        -0.5000 
     75 CA         -2.9390  -22.0092  -48.6553 C.3       13 UNK         0.1400 
     76 CB         -1.9758  -21.1329  -49.4683 C.3       13 UNK        -0.1800 
     77 C          -3.7427  -21.1370  -47.6711 C.2       13 UNK         0.5000 
     78 O          -4.6884  -20.4806  -48.1046 O.2       13 UNK        -0.5000 
     79 N          -3.3751  -21.1646  -46.3814 N.am      14 UNK        -0.5000 
     80 CA         -3.9705  -20.3922  -45.2903 C.3       14 UNK         0.1400 
     81 CB         -3.2668  -20.7695  -43.9763 C.3       14 UNK        -0.1800 
     82 C          -5.4897  -20.5689  -45.1449 C.2       14 UNK         0.5000 
     83 O          -6.1970  -19.5773  -44.9576 O.2       14 UNK        -0.5000 
     84 N          -5.9524  -21.8214  -45.2406 N.am      15 UNK        -0.5000 
     85 CA         -7.3666  -22.1813  -45.1442 C.3       15 UNK         0.1400 
     86 CB         -7.4765  -23.6323  -44.6511 C.3       15 UNK        -0.1800 
     87 C          -8.1078  -22.0131  -46.4823 C.2       15 UNK         0.5000 
     88 O          -9.3099  -21.7458  -46.4801 O.2       15 UNK        -0.5000 
     89 N          -7.3865  -22.1919  -47.5964 N.am      16 UNK        -0.5000 
     90 CA         -7.9302  -22.1315  -48.9524 C.3       16 UNK         0.1400 
     91 CB         -7.0013  -22.9161  -49.8930 C.3       16 UNK        -0.1800 
     92 C          -8.1097  -20.6939  -49.4702 C.2       16 UNK         0.5000 
     93 O          -8.9942  -20.4628  -50.2951 O.2       16 UNK        -0.5000 
     94 N          -7.2445  -19.7765  -49.0102 N.am      17 UNK        -0.5000 
     95 CA         -7.0251  -18.4247  -49.5359 C.3       17 UNK         0.1400 
     96 CB         -8.2556  -17.5224  -49.3095 C.3       17 UNK        -0.1800 
     97 C          -6.5489  -18.4728  -51.0033 C.2       17 UNK         0.5000 
     98 O          -7.0743  -17.7591  -51.8607 O.2       17 UNK        -0.5000 
     99 N          -5.5825  -19.3631  -51.2641 N.am      18 UNK        -0.5000 
    100 CA        -4.9422  -19.5360  -52.5625 C.3       18 UNK         0.1400 
    101 CB        -4.4234  -20.9789  -52.6816 C.3       18 UNK        -0.1800 
    102 C         -3.7976  -18.5229  -52.7052 C.2       18 UNK         0.5000 
    103 O         -2.8734  -18.5396  -51.8922 O.2       18 UNK        -0.5000 
    104 N         -3.8720  -17.6694  -53.7331 N.am      19 UNK        -0.5000 
    105 CA        -2.8475  -16.6760  -54.0554 C.3       19 UNK         0.1400 
    106 CB        -3.4048  -15.7240  -55.1254 C.3       19 UNK        -0.1800 
    107 C         -1.5387  -17.3264  -54.5416 C.2       19 UNK         0.5000 
    108 O         -1.5551  -18.4624  -55.0171 O.2       19 UNK        -0.5000 
    109 N         -0.4352  -16.5690  -54.4685 N.am      20 UNK        -0.5000 
    110 CA         0.9327  -16.9866  -54.8145 C.3       20 UNK         0.1400 
    111 CB         1.8976  -15.8493  -54.4429 C.3       20 UNK        -0.1800 
    112 C          1.1545  -17.4325  -56.2791 C.2       20 UNK         0.5000 
    113 O          2.2187  -17.9656  -56.5937 O.2       20 UNK        -0.5000 
    114 N          0.1497  -17.2328  -57.1420 N.am      21 UNK        -0.5000 
    115 CA         0.0644  -17.7730  -58.4999 C.3       21 UNK         0.1400 
    116 CB        -1.0417  -17.0143  -59.2517 C.3       21 UNK        -0.1800 
    117 C         -0.1880  -19.2994  -58.5508 C.2       21 UNK         0.5000 
    118 O         -0.1434  -19.8709  -59.6415 O.2       21 UNK        -0.5000 
    119 N         -0.4658  -19.9230  -57.3959 N.am      22 UNK        -0.5000 
    120 CA        -0.6409  -21.3692  -57.1833 C.3       22 UNK         0.1400 
    121 C          0.4851  -22.2720  -57.7751 C.2       22 UNK         0.5000 
    122 N          0.1537  -23.4906  -58.1824 N.am      22 UNK        -0.7600 
    123 O          1.6553  -21.9004  -57.8379 O.2       22 UNK        -0.5000 
    124 C124       -0.8798  -21.6851  -55.6801 C.3       23 UNK        -0.0398 
    125 S125        0.4825  -21.1532  -54.5792 S.3       23 UNK        -0.2404 
    126 C126       -0.3814  -20.9977  -52.9869 C.3       23 UNK        -0.0205 
    127 H127       -3.9489  -12.7759  -51.1491 H         1 UNK         0.0600 
    128 H128       -5.5455  -13.5316  -51.1664 H         1 UNK         0.0600 
    129 H129       -4.3772  -13.9054  -52.4375 H         1 UNK         0.0600 
    130 H130       -2.6185  -13.6836  -49.6253 H         1 UNK         0.3000 
    131 H131       -1.6534  -14.9881  -48.2147 H         1 UNK         0.0600 
    132 H132       -1.7615  -17.5712  -49.7546 H         1 UNK         0.0800 
    133 H133       -1.2275  -16.2057  -50.6776 H         1 UNK         0.0800 
    134 H134        2.3834  -16.7285  -50.1040 H         1 UNK         0.0800 
    135 H135        1.0498  -16.4842  -51.1961 H         1 UNK         0.0800 
    136 H136       -0.2043  -18.4290  -52.0880 H         1 UNK         0.1150 
    137 H137        1.4980  -22.3191  -51.5361 H         1 UNK         0.1150 
    138 H138        2.9948  -18.9837  -49.2918 H         1 UNK         0.1150 
    139 H139        3.1739  -22.7227  -49.9194 H         1 UNK         0.0800 
    140 H140        4.3585  -21.4511  -50.0870 H         1 UNK         0.0800 
    141 H141        1.1901  -22.2273  -48.2467 H         1 UNK         0.0800 
    142 H142        1.3204  -21.1081  -46.9181 H         1 UNK         0.0800 
    143 H143        2.2458  -24.0253  -46.8297 H         1 UNK         0.0600 
    144 H144        2.4154  -21.8839  -44.8299 H         1 UNK         0.3000 
    145 H145        2.7752  -23.1707  -42.2532 H         1 UNK         0.0600 
    146 H146        5.0767  -23.7790  -41.4646 H         1 UNK         0.0600 
    147 H147        4.2180  -25.1528  -42.1397 H         1 UNK         0.0600 
    148 H148        5.4722  -24.3611  -43.0817 H         1 UNK         0.0600 
    149 H149        3.6203  -21.1762  -42.5515 H         1 UNK         0.3000 
    150 H150        6.4177  -19.7588  -43.6175 H         1 UNK         0.0600 
    151 H151        5.8367  -19.8339  -46.0393 H         1 UNK         0.0600 
    152 H152        5.4264  -18.2720  -45.3485 H         1 UNK         0.0600 
    153 H153        4.1605  -19.4539  -45.6699 H         1 UNK         0.0600 
    154 H154        3.5545  -19.0143  -43.3308 H         1 UNK         0.3000 
    155 H155        3.7835  -18.5346  -39.8677 H         1 UNK         0.0600 
    156 H156        4.7990  -16.3592  -40.5726 H         1 UNK         0.0600 
    157 H157        3.0792  -16.1942  -40.2578 H         1 UNK         0.0600 
    158 H158        3.6688  -16.2603  -41.9186 H         1 UNK         0.0600 
    159 H159        1.7596  -17.8201  -41.7548 H         1 UNK         0.3000 
    160 H160        0.4069  -21.1020  -42.2133 H         1 UNK         0.0600 
    161 H161       -0.7129  -18.8030  -40.5389 H         1 UNK         0.0600 
    162 H162       -0.5894  -20.4819  -40.0410 H         1 UNK         0.0600 
    163 H163       -1.6731  -20.0381  -41.3507 H         1 UNK         0.0600 
    164 H164       -0.6126  -18.6457  -43.1080 H         1 UNK         0.3000 
    165 H165        1.3356  -18.4681  -46.1314 H         1 UNK         0.0600 
    166 H166       -0.6984  -18.9066  -47.2340 H         1 UNK         0.0600 
    167 H167       -0.5896  -20.3012  -46.1731 H         1 UNK         0.0600 
    168 H168       -1.6185  -18.9541  -45.7391 H         1 UNK         0.0600 
    169 H169       -0.8746  -17.1135  -44.6552 H         1 UNK         0.3000 
    170 H170        1.0616  -14.1927  -44.1217 H         1 UNK         0.0600 
    171 H171        0.0954  -13.9065  -46.4402 H         1 UNK         0.0600 
    172 H172       -1.4169  -14.6082  -45.8719 H         1 UNK         0.0600 
    173 H173       -0.8459  -13.0803  -45.2065 H         1 UNK         0.0600 
    174 H174       -1.6227  -14.7781  -43.4464 H         1 UNK         0.3000 
    175 H175       -1.0995  -16.6173  -40.4665 H         1 UNK         0.0600 
    176 H176       -0.4485  -14.3070  -39.7781 H         1 UNK         0.0600 
    177 H177       -1.7567  -13.6454  -40.7514 H         1 UNK         0.0600 
    178 H178       -2.1145  -14.6686  -39.3595 H         1 UNK         0.0600 
    179 H179       -3.4628  -15.4665  -41.2238 H         1 UNK         0.3000 
    180 H180       -4.8633  -18.1700  -42.4224 H         1 UNK         0.0600 
    181 H181       -5.3448  -16.2970  -40.8602 H         1 UNK         0.0600 
    182 H182       -5.3081  -15.1426  -42.1964 H         1 UNK         0.0600 
    183 H183       -6.5532  -16.3810  -42.1238 H         1 UNK         0.0600 
    184 H184       -5.5000  -17.8555  -44.5078 H         1 UNK         0.3000 
    185 H185       -5.4209  -17.2608  -46.6449 H         1 UNK         0.0600 
    186 H186       -7.2822  -15.8376  -45.8322 H         1 UNK         0.0600 
    187 H187       -6.4065  -14.3773  -46.2773 H         1 UNK         0.0600 
    188 H188       -6.9624  -15.4913  -47.5248 H         1 UNK         0.0600 
    189 H189       -4.4364  -14.7385  -47.7345 H         1 UNK         0.3000 
    190 H190        0.3837  -25.0729  -47.4413 H         1 UNK         0.3000 
    191 H191       -1.8497  -25.2321  -45.6574 H         1 UNK         0.0600 
    192 H192       -1.4445  -26.3413  -48.4886 H         1 UNK         0.0600 
    193 H193       -2.7017  -26.8427  -47.3645 H         1 UNK         0.0600 
    194 H194       -1.0174  -27.1613  -46.9857 H         1 UNK         0.0600 
    195 H195       -1.1761  -23.0767  -48.2096 H         1 UNK         0.3000 
    196 H196       -3.6545  -22.4637  -49.3423 H         1 UNK         0.0600 
    197 H197       -2.4942  -20.2848  -49.9165 H         1 UNK         0.0600 
    198 H198       -1.5217  -21.7006  -50.2791 H         1 UNK         0.0600 
    199 H199       -1.1729  -20.7287  -48.8511 H         1 UNK         0.0600 
    200 H200       -2.5914  -21.7509  -46.1318 H         1 UNK         0.3000 
    201 H201       -3.7914  -19.3366  -45.4969 H         1 UNK         0.0600 
    202 H202       -3.6764  -20.2111  -43.1346 H         1 UNK         0.0600 
    203 H203       -3.3778  -21.8305  -43.7496 H         1 UNK         0.0600 
    204 H204       -2.2002  -20.5531  -44.0177 H         1 UNK         0.0600 
    205 H205       -5.2961  -22.5716  -45.4092 H         1 UNK         0.3000 
    206 H206       -7.8532  -21.5360  -44.4094 H         1 UNK         0.0600 
    207 H207       -7.0102  -23.7520  -43.6730 H         1 UNK         0.0600 
    208 H208       -8.5202  -23.9335  -44.5517 H         1 UNK         0.0600 
    209 H209       -6.9969  -24.3296  -45.3393 H         1 UNK         0.0600 
    210 H210       -6.4003  -22.3858  -47.5064 H         1 UNK         0.3000 
    211 H211       -8.9093  -22.6156  -48.9613 H         1 UNK         0.0600 
    212 H212       -7.4008  -22.9362  -50.9078 H         1 UNK         0.0600 
    213 H213       -6.8893  -23.9505  -49.5674 H         1 UNK         0.0600 
    214 H214       -6.0081  -22.4695  -49.9430 H         1 UNK         0.0600 
    215 H215       -6.5107  -20.1035  -48.3869 H         1 UNK         0.3000 
    216 H216       -6.1978  -18.0019  -48.9633 H         1 UNK         0.0600 
    217 H217       -8.0380  -16.4939  -49.5997 H         1 UNK         0.0600 
    218 H218       -8.5462  -17.5105  -48.2591 H         1 UNK         0.0600 
    219 H219       -9.1164  -17.8486  -49.8933 H         1 UNK         0.0600 
    220 H220       -5.1702  -19.8603  -50.4872 H         1 UNK         0.3000 
    221 H221       -5.6749  -19.3740  -53.3560 H         1 UNK         0.0600 
    222 H222       -5.2384  -21.6984  -52.6018 H         1 UNK         0.0600 
    223 H223       -3.9394  -21.1385  -53.6459 H         1 UNK         0.0600 
    224 H224       -3.6930  -21.2139  -51.9072 H         1 UNK         0.0600 
    225 H225       -4.6543  -17.7307  -54.3671 H         1 UNK         0.3000 
    226 H226       -2.6322  -16.1042  -53.1504 H         1 UNK         0.0600 
    227 H227       -3.6331  -16.2509  -56.0530 H         1 UNK         0.0600 
    228 H228       -4.3183  -15.2377  -54.7824 H         1 UNK         0.0600 
    229 H229       -2.6906  -14.9348  -55.3633 H         1 UNK         0.0600 
    230 H230       -0.5221  -15.6300  -54.1078 H         1 UNK         0.3000 
    231 H231        1.1732  -17.8510  -54.1925 H         1 UNK         0.0600 
    232 H232        1.8247  -15.5960  -53.3855 H         1 UNK         0.0600 
    233 H233        1.6939  -14.9469  -55.0205 H         1 UNK         0.0600 
    234 H234        2.9333  -16.1340  -54.6333 H         1 UNK         0.0600 
    235 H235       -0.6866  -16.7962  -56.7848 H         1 UNK         0.3000 
    236 H236        1.0141  -17.5847  -59.0045 H         1 UNK         0.0600 
    237 H237       -0.8412  -15.9430  -59.2737 H         1 UNK         0.0600 
    238 H238       -1.1144  -17.3500  -60.2870 H         1 UNK         0.0600 
    239 H239       -2.0176  -17.1651  -58.7884 H         1 UNK         0.0600 
    240 H240       -0.5335  -19.3608  -56.5546 H         1 UNK         0.3000 
    241 H241       -1.5569  -21.6271  -57.7177 H         1 UNK         0.0600 
    242 H242        0.8716  -24.0924  -58.5558 H         1 UNK         0.3800 
    243 H243       -0.7964  -23.8262  -58.1387 H         1 UNK         0.3800 
    244 H244       -1.7982  -21.1932  -55.3566 H         1 UNK         0.0800 
    245 H245       -1.0513  -22.7524  -55.5314 H         1 UNK         0.0800 
    246 H246       -1.2531  -20.3536  -53.1039 H         1 UNK         0.0800 
    247 H247       -0.7557  -21.9747  -52.6786 H         1 UNK         0.0800 
@<TRIPOS>BOND
     1    1    2 1    
     2    1  127 1    
     3    1  128 1    
     4    1  129 1    
     5    2    3 2    
     6    2    4 am   BACKBONE|DICT|INTERRES
     7    4    5 1    
     8    4  130 1    
     9    5    6 1    
    10    5   65 1    
    11    5  131 1    
    12    6    7 1    
    13    6  132 1    
    14    6  133 1    
    15    7    8 1    
    16    8    9 1    
    17    8  134 1    
    18    8  135 1    
    19    9   10 ar   
    20    9   14 ar   
    21   10   11 ar   
    22   10  136 1    
    23   11   12 ar   
    24   11  126 1    
    25   12   13 ar   
    26   12  137 1    
    27   13   14 ar   
    28   13   15 1    
    29   14  138 1    
    30   15   16 1    
    31   15  139 1    
    32   15  140 1    
    33   16   17 1    
    34   17   18 1    
    35   17  141 1    
    36   17  142 1    
    37   18   19 1    
    38   18   67 1    
    39   18  143 1    
    40   19   20 am   BACKBONE|DICT|INTERRES
    41   19  144 1    
    42   20   21 2    
    43   20   22 1    
    44   22   23 1    
    45   22   24 1    
    46   22  145 1    
    47   23  146 1    
    48   23  147 1    
    49   23  148 1    
    50   24   25 am   BACKBONE|DICT|INTERRES
    51   24  149 1    
    52   25   26 2    
    53   25   27 1    
    54   27   28 1    
    55   27   29 1    
    56   27  150 1    
    57   28  151 1    
    58   28  152 1    
    59   28  153 1    
    60   29   30 am   BACKBONE|DICT|INTERRES
    61   29  154 1    
    62   30   31 2    
    63   30   32 1    
    64   32   33 1    
    65   32   34 1    
    66   32  155 1    
    67   33  156 1    
    68   33  157 1    
    69   33  158 1    
    70   34   35 am   BACKBONE|DICT|INTERRES
    71   34  159 1    
    72   35   36 2    
    73   35   37 1    
    74   37   38 1    
    75   37   39 1    
    76   37  160 1    
    77   38  161 1    
    78   38  162 1    
    79   38  163 1    
    80   39   40 am   BACKBONE|DICT|INTERRES
    81   39  164 1    
    82   40   41 2    
    83   40   42 1    
    84   42   43 1    
    85   42   44 1    
    86   42  165 1    
    87   43  166 1    
    88   43  167 1    
    89   43  168 1    
    90   44   45 am   BACKBONE|DICT|INTERRES
    91   44  169 1    
    92   45   46 2    
    93   45   47 1    
    94   47   48 1    
    95   47   49 1    
    96   47  170 1    
    97   48  171 1    
    98   48  172 1    
    99   48  173 1    
   100   49   50 am   BACKBONE|DICT|INTERRES
   101   49  174 1    
   102   50   51 2    
   103   50   52 1    
   104   52   53 1    
   105   52   54 1    
   106   52  175 1    
   107   53  176 1    
   108   53  177 1    
   109   53  178 1    
   110   54   55 am   BACKBONE|DICT|INTERRES
   111   54  179 1    
   112   55   56 2    
   113   55   57 1    
   114   57   58 1    
   115   57   59 1    
   116   57  180 1    
   117   58  181 1    
   118   58  182 1    
   119   58  183 1    
   120   59   60 am   BACKBONE|DICT|INTERRES
   121   59  184 1    
   122   60   61 2    
   123   60   62 1    
   124   62   63 1    
   125   62   64 1    
   126   62  185 1    
   127   63  186 1    
   128   63  187 1    
   129   63  188 1    
   130   64   65 am   BACKBONE|DICT|INTERRES
   131   64  189 1    
   132   65   66 2    
   133   67   68 2    
   134   67   69 am   BACKBONE|DICT|INTERRES
   135   69   70 1    
   136   69  190 1    
   137   70   71 1    
   138   70   72 1    
   139   70  191 1    
   140   71  192 1    
   141   71  193 1    
   142   71  194 1    
   143   72   73 2    
   144   72   74 am   BACKBONE|DICT|INTERRES
   145   74   75 1    
   146   74  195 1    
   147   75   76 1    
   148   75   77 1    
   149   75  196 1    
   150   76  197 1    
   151   76  198 1    
   152   76  199 1    
   153   77   78 2    
   154   77   79 am   BACKBONE|DICT|INTERRES
   155   79   80 1    
   156   79  200 1    
   157   80   81 1    
   158   80   82 1    
   159   80  201 1    
   160   81  202 1    
   161   81  203 1    
   162   81  204 1    
   163   82   83 2    
   164   82   84 am   BACKBONE|DICT|INTERRES
   165   84   85 1    
   166   84  205 1    
   167   85   86 1    
   168   85   87 1    
   169   85  206 1    
   170   86  207 1    
   171   86  208 1    
   172   86  209 1    
   173   87   88 2    
   174   87   89 am   BACKBONE|DICT|INTERRES
   175   89   90 1    
   176   89  210 1    
   177   90   91 1    
   178   90   92 1    
   179   90  211 1    
   180   91  212 1    
   181   91  213 1    
   182   91  214 1    
   183   92   93 2    
   184   92   94 am   BACKBONE|DICT|INTERRES
   185   94   95 1    
   186   94  215 1    
   187   95   96 1    
   188   95   97 1    
   189   95  216 1    
   190   96  217 1    
   191   96  218 1    
   192   96  219 1    
   193   97   98 2    
   194   97   99 am   BACKBONE|DICT|INTERRES
   195   99  100 1    
   196   99  220 1    
   197  100  101 1    
   198  100  102 1    
   199  100  221 1    
   200  101  222 1    
   201  101  223 1    
   202  101  224 1    
   203  102  103 2    
   204  102  104 am   BACKBONE|DICT|INTERRES
   205  104  105 1    
   206  104  225 1    
   207  105  106 1    
   208  105  107 1    
   209  105  226 1    
   210  106  227 1    
   211  106  228 1    
   212  106  229 1    
   213  107  108 2    
   214  107  109 am   BACKBONE|DICT|INTERRES
   215  109  110 1    
   216  109  230 1    
   217  110  111 1    
   218  110  112 1    
   219  110  231 1    
   220  111  232 1    
   221  111  233 1    
   222  111  234 1    
   223  112  113 2    
   224  112  114 am   BACKBONE|DICT|INTERRES
   225  114  115 1    
   226  114  235 1    
   227  115  116 1    
   228  115  117 1    
   229  115  236 1    
   230  116  237 1    
   231  116  238 1    
   232  116  239 1    
   233  117  118 2    
   234  117  119 am   BACKBONE|DICT|INTERRES
   235  119  120 1    
   236  119  240 1    
   237  120  121 1    
   238  120  124 1    
   239  120  241 1    
   240  121  122 am   BACKBONE|DICT|INTERRES
   241  121  123 2    
   242  122  242 1    
   243  122  243 1    
   244  124  125 1    
   245  124  244 1    
   246  124  245 1    
   247  125  126 1    
   248  126  246 1    
   249  126  247 1    
@<TRIPOS>SUBSTRUCTURE
     1 UNK         1 GROUP             0       ****    0 ROOT    
