@<TRIPOS>MOLECULE
3R540
247   249    1
SMALL
USER_CHARGES


@<TRIPOS>ATOM
      1 CA         -1.9001  -13.1376  -48.7595 C.3       0 UNK        -0.1800 
      2 C          -0.8165  -12.5069  -49.6233 C.2       0 UNK         0.5000 
      3 O          -1.1016  -11.6014  -50.4065 O.2       0 UNK        -0.5000 
      4 N           0.4264  -12.9831  -49.4794 N.am      1 UNK        -0.5000 
      5 CA          1.6100  -12.4963  -50.1988 C.3       1 UNK         0.1400 
      6 C6          2.7133  -13.5864  -50.2753 C.3       23 UNK        -0.0398 
      7 S7          3.5815  -13.9882  -48.7091 S.3       23 UNK        -0.2404 
      8 C8          2.4562  -15.1234  -47.8327 C.3       23 UNK        -0.0205 
      9 C9          2.1312  -16.3842  -48.6214 C.ar      23 UNK        -0.0193 
     10 C10         0.9342  -16.4753  -49.3383 C.ar      23 UNK        -0.1150 
     11 C11         0.5772  -17.6594  -49.9857 C.ar      23 UNK        -0.0193 
     12 C12         1.4514  -18.7465  -49.9491 C.ar      23 UNK        -0.1150 
     13 C13         2.6526  -18.6737  -49.2374 C.ar      23 UNK        -0.0193 
     14 C14         2.9891  -17.4877  -48.5769 C.ar      23 UNK        -0.1150 
     15 C15         3.5664  -19.8898  -49.1612 C.3       23 UNK        -0.0205 
     16 S16         3.1264  -20.9996  -47.7810 S.3       23 UNK        -0.2404 
     17 C17         1.4557  -21.5317  -48.2813 C.3       23 UNK        -0.0398 
     18 CA          0.9053  -22.7245  -47.4704 C.3       11 UNK         0.1400 
     19 N           0.6395  -22.3836  -46.0697 N.am      11 UNK        -0.5000 
     20 C           0.2440  -23.2545  -45.1304 C.2       10 UNK         0.5000 
     21 O           0.1146  -24.4630  -45.3284 O.2       10 UNK        -0.5000 
     22 CA         -0.1214  -22.6729  -43.7525 C.3       10 UNK         0.1400 
     23 CB          1.1380  -22.3600  -42.9308 C.3       10 UNK        -0.1800 
     24 N          -0.9652  -21.4800  -43.8508 N.am      10 UNK        -0.5000 
     25 C          -2.2093  -21.4766  -44.3520 C.2       9 UNK         0.5000 
     26 O          -2.7849  -22.4878  -44.7526 O.2       9 UNK        -0.5000 
     27 CA         -2.9223  -20.1159  -44.4575 C.3       9 UNK         0.1400 
     28 CB         -3.5190  -19.7048  -43.1036 C.3       9 UNK        -0.1800 
     29 N          -2.0489  -19.0525  -44.9492 N.am      9 UNK        -0.5000 
     30 C          -1.4782  -19.0320  -46.1616 C.2       8 UNK         0.5000 
     31 O          -1.6615  -19.8887  -47.0255 O.2       8 UNK        -0.5000 
     32 CA         -0.4857  -17.8899  -46.4319 C.3       8 UNK         0.1400 
     33 CB         -1.2285  -16.5852  -46.7587 C.3       8 UNK        -0.1800 
     34 N           0.4453  -17.6717  -45.3243 N.am      8 UNK        -0.5000 
     35 C           1.2832  -18.6046  -44.8469 C.2       7 UNK         0.5000 
     36 O           1.3729  -19.7435  -45.2985 O.2       7 UNK        -0.5000 
     37 CA          2.1084  -18.2254  -43.6092 C.3       7 UNK         0.1400 
     38 CB          3.3387  -17.3954  -44.0042 C.3       7 UNK        -0.1800 
     39 N           1.2948  -17.5020  -42.6324 N.am      7 UNK        -0.5000 
     40 C           0.3010  -18.0625  -41.9259 C.2       6 UNK         0.5000 
     41 O           0.0155  -19.2591  -41.9769 O.2       6 UNK        -0.5000 
     42 CA         -0.5456  -17.1171  -41.0539 C.3       6 UNK         0.1400 
     43 CB          0.1336  -16.8738  -39.6981 C.3       6 UNK        -0.1800 
     44 N          -0.8001  -15.8329  -41.7087 N.am      6 UNK        -0.5000 
     45 C          -1.5429  -15.6809  -42.8147 C.2       5 UNK         0.5000 
     46 O          -2.1430  -16.6045  -43.3630 O.2       5 UNK        -0.5000 
     47 CA         -1.5841  -14.2719  -43.4372 C.3       5 UNK         0.1400 
     48 CB         -2.7627  -13.4649  -42.8749 C.3       5 UNK        -0.1800 
     49 N          -0.3444  -13.5173  -43.2387 N.am      5 UNK        -0.5000 
     50 C           0.8516  -13.8512  -43.7373 C.2       4 UNK         0.5000 
     51 O           1.0293  -14.8445  -44.4460 O.2       4 UNK        -0.5000 
     52 CA          2.0349  -12.9306  -43.3607 C.3       4 UNK         0.1400 
     53 CB          3.3739  -13.4294  -43.9323 C.3       4 UNK        -0.1800 
     54 N           1.8408  -11.5457  -43.7913 N.am      4 UNK        -0.5000 
     55 C           1.0017  -10.6436  -43.2620 C.2       3 UNK         0.5000 
     56 O           0.2711  -10.8827  -42.2990 O.2       3 UNK        -0.5000 
     57 CA          0.9692   -9.2408  -43.9106 C.3       3 UNK         0.1400 
     58 CB          1.6066   -8.2016  -42.9751 C.3       3 UNK        -0.1800 
     59 N           1.6406   -9.1745  -45.2143 N.am      3 UNK        -0.5000 
     60 C           1.1904   -9.7523  -46.3354 C.2       2 UNK         0.5000 
     61 O           0.1146  -10.3547  -46.3976 O.2       2 UNK        -0.5000 
     62 CA          2.1074   -9.7051  -47.5728 C.3       2 UNK         0.1400 
     63 CB          3.6115   -9.7119  -47.2156 C.3       2 UNK        -0.1800 
     64 N           1.7680  -10.8702  -48.3763 N.am      2 UNK        -0.5000 
     65 C           2.1362  -11.1588  -49.6282 C.2       1 UNK         0.5000 
     66 O           2.8466  -10.4313  -50.3237 O.2       1 UNK        -0.5000 
     67 C          -0.3530  -23.2809  -48.1646 C.2       11 UNK         0.5000 
     68 O          -0.2654  -24.3128  -48.8276 O.2       11 UNK        -0.5000 
     69 N          -1.4992  -22.6097  -47.9787 N.am      12 UNK        -0.5000 
     70 CA         -2.8002  -23.0168  -48.5089 C.3       12 UNK         0.1400 
     71 CB         -3.8441  -21.9441  -48.1723 C.3       12 UNK        -0.1800 
     72 C          -3.2441  -24.3981  -47.9987 C.2       12 UNK         0.5000 
     73 O          -3.6699  -25.2285  -48.8008 O.2       12 UNK        -0.5000 
     74 N          -3.0848  -24.6387  -46.6897 N.am      13 UNK        -0.5000 
     75 CA         -3.3576  -25.9221  -46.0434 C.3       13 UNK         0.1400 
     76 CB         -3.2402  -25.7684  -44.5195 C.3       13 UNK        -0.1800 
     77 C          -2.4467  -27.0547  -46.5516 C.2       13 UNK         0.5000 
     78 O          -2.9389  -28.1548  -46.8038 O.2       13 UNK        -0.5000 
     79 N          -1.1494  -26.7616  -46.7222 N.am      14 UNK        -0.5000 
     80 CA         -0.1529  -27.6910  -47.2588 C.3       14 UNK         0.1400 
     81 CB          1.2543  -27.1088  -47.0562 C.3       14 UNK        -0.1800 
     82 C          -0.3932  -28.0388  -48.7403 C.2       14 UNK         0.5000 
     83 O          -0.2586  -29.2023  -49.1215 O.2       14 UNK        -0.5000 
     84 N          -0.7613  -27.0311  -49.5423 N.am      15 UNK        -0.5000 
     85 CA         -1.0917  -27.1677  -50.9621 C.3       15 UNK         0.1400 
     86 CB         -1.0533  -25.7760  -51.6153 C.3       15 UNK        -0.1800 
     87 C          -2.4612  -27.8272  -51.2165 C.2       15 UNK         0.5000 
     88 O          -2.6906  -28.3146  -52.3241 O.2       15 UNK        -0.5000 
     89 N          -3.3449  -27.7995  -50.2069 N.am      16 UNK        -0.5000 
     90 CA         -4.7699  -28.1439  -50.2569 C.3       16 UNK         0.1400 
     91 CB         -4.9773  -29.6447  -50.5482 C.3       16 UNK        -0.1800 
     92 C          -5.5302  -27.2117  -51.2245 C.2       16 UNK         0.5000 
     93 O          -6.2896  -27.6722  -52.0796 O.2       16 UNK        -0.5000 
     94 N          -5.2671  -25.9093  -51.0809 N.am      17 UNK        -0.5000 
     95 CA         -5.7622  -24.8248  -51.9211 C.3       17 UNK         0.1400 
     96 CB         -4.5911  -24.3199  -52.7851 C.3       17 UNK        -0.1800 
     97 C          -6.3333  -23.6984  -51.0427 C.2       17 UNK         0.5000 
     98 O          -6.3744  -23.8226  -49.8168 O.2       17 UNK        -0.5000 
     99 N          -6.7618  -22.6091  -51.6885 N.am      18 UNK        -0.5000 
    100 CA        -7.1469  -21.3604  -51.0353 C.3       18 UNK         0.1400 
    101 CB        -8.2266  -20.6737  -51.8867 C.3       18 UNK        -0.1800 
    102 C         -5.9233  -20.4391  -50.9050 C.2       18 UNK         0.5000 
    103 O         -5.0296  -20.4830  -51.7547 O.2       18 UNK        -0.5000 
    104 N         -5.9357  -19.5554  -49.8991 N.am      19 UNK        -0.5000 
    105 CA        -4.9059  -18.5290  -49.6840 C.3       19 UNK         0.1400 
    106 CB        -5.0641  -17.9380  -48.2745 C.3       19 UNK        -0.1800 
    107 C         -4.8959  -17.4199  -50.7582 C.2       19 UNK         0.5000 
    108 O         -3.9211  -16.6771  -50.8490 O.2       19 UNK        -0.5000 
    109 N         -5.9606  -17.3376  -51.5669 N.am      20 UNK        -0.5000 
    110 CA        -6.0233  -16.5050  -52.7677 C.3       20 UNK         0.1400 
    111 CB        -7.4988  -16.2615  -53.1216 C.3       20 UNK        -0.1800 
    112 C         -5.2823  -17.1344  -53.9668 C.2       20 UNK         0.5000 
    113 O         -4.8820  -16.4027  -54.8729 O.2       20 UNK        -0.5000 
    114 N         -5.1337  -18.4673  -53.9669 N.am      21 UNK        -0.5000 
    115 CA        -4.4979  -19.2383  -55.0360 C.3       21 UNK         0.1400 
    116 CB        -5.3146  -20.5177  -55.2818 C.3       21 UNK        -0.1800 
    117 C         -3.0398  -19.5917  -54.6988 C.2       21 UNK         0.5000 
    118 O         -2.1965  -19.5805  -55.5956 O.2       21 UNK        -0.5000 
    119 N         -2.7772  -19.9058  -53.4225 N.am      22 UNK        -0.5000 
    120 CA        -1.4714  -20.3024  -52.8614 C.3       22 UNK         0.1400 
    121 C         -0.9803  -21.7238  -53.2744 C.2       22 UNK         0.5000 
    122 N         -1.7916  -22.5475  -53.9258 N.am      22 UNK        -0.7600 
    123 O          0.1469  -22.1025  -52.9690 O.2       22 UNK        -0.5000 
    124 C124       -0.3532  -19.2287  -53.0344 C.3       23 UNK        -0.0398 
    125 S125       -0.7981  -17.5651  -52.4248 S.3       23 UNK        -0.2404 
    126 C126       -0.7998  -17.7905  -50.6183 C.3       23 UNK        -0.0205 
    127 H127       -1.4787  -13.7753  -47.9827 H         1 UNK         0.0600 
    128 H128       -2.5669  -13.7423  -49.3746 H         1 UNK         0.0600 
    129 H129       -2.4911  -12.3620  -48.2721 H         1 UNK         0.0600 
    130 H130        0.6017  -13.7189  -48.8140 H         1 UNK         0.3000 
    131 H131        1.3031  -12.2886  -51.2263 H         1 UNK         0.0600 
    132 H132        2.3083  -14.4989  -50.7123 H         1 UNK         0.0800 
    133 H133        3.4788  -13.2607  -50.9814 H         1 UNK         0.0800 
    134 H134        1.5459  -14.5979  -47.5468 H         1 UNK         0.0800 
    135 H135        2.9257  -15.4073  -46.8895 H         1 UNK         0.0800 
    136 H136        0.2458  -15.6450  -49.3516 H         1 UNK         0.1150 
    137 H137        1.1747  -19.6717  -50.4306 H         1 UNK         0.1150 
    138 H138        3.9069  -17.4306  -48.0087 H         1 UNK         0.1150 
    139 H139        3.5334  -20.4442  -50.1004 H         1 UNK         0.0800 
    140 H140        4.6012  -19.5676  -49.0364 H         1 UNK         0.0800 
    141 H141        1.4986  -21.7833  -49.3430 H         1 UNK         0.0800 
    142 H142        0.7786  -20.6820  -48.1834 H         1 UNK         0.0800 
    143 H143        1.6556  -23.5179  -47.4773 H         1 UNK         0.0600 
    144 H144        0.7722  -21.4073  -45.8106 H         1 UNK         0.3000 
    145 H145       -0.6898  -23.4347  -43.2148 H         1 UNK         0.0600 
    146 H146        0.8792  -22.0109  -41.9310 H         1 UNK         0.0600 
    147 H147        1.7579  -23.2498  -42.8150 H         1 UNK         0.0600 
    148 H148        1.7512  -21.5934  -43.4036 H         1 UNK         0.0600 
    149 H149       -0.5666  -20.6101  -43.5163 H         1 UNK         0.3000 
    150 H150       -3.7426  -20.2252  -45.1696 H         1 UNK         0.0600 
    151 H151       -4.1910  -20.4747  -42.7224 H         1 UNK         0.0600 
    152 H152       -4.0951  -18.7834  -43.1912 H         1 UNK         0.0600 
    153 H153       -2.7438  -19.5429  -42.3540 H         1 UNK         0.0600 
    154 H154       -1.8787  -18.2746  -44.3179 H         1 UNK         0.3000 
    155 H155        0.1139  -18.1803  -47.2939 H         1 UNK         0.0600 
    156 H156       -1.9483  -16.3210  -45.9852 H         1 UNK         0.0600 
    157 H157       -1.7803  -16.6789  -47.6944 H         1 UNK         0.0600 
    158 H158       -0.5362  -15.7514  -46.8657 H         1 UNK         0.0600 
    159 H159        0.4641  -16.7455  -44.9113 H         1 UNK         0.3000 
    160 H160        2.4607  -19.1469  -43.1408 H         1 UNK         0.0600 
    161 H161        3.0631  -16.4981  -44.5566 H         1 UNK         0.0600 
    162 H162        4.0028  -17.9756  -44.6461 H         1 UNK         0.0600 
    163 H163        3.9133  -17.0932  -43.1287 H         1 UNK         0.0600 
    164 H164        1.4305  -16.5039  -42.5777 H         1 UNK         0.3000 
    165 H165       -1.5070  -17.6028  -40.8729 H         1 UNK         0.0600 
    166 H166       -0.4941  -16.2656  -39.0465 H         1 UNK         0.0600 
    167 H167        0.3197  -17.8161  -39.1812 H         1 UNK         0.0600 
    168 H168        1.0923  -16.3661  -39.8110 H         1 UNK         0.0600 
    169 H169       -0.3497  -15.0194  -41.3165 H         1 UNK         0.3000 
    170 H170       -1.7331  -14.3891  -44.5121 H         1 UNK         0.0600 
    171 H171       -3.7057  -13.9911  -43.0296 H         1 UNK         0.0600 
    172 H172       -2.6555  -13.2884  -41.8039 H         1 UNK         0.0600 
    173 H173       -2.8470  -12.4960  -43.3677 H         1 UNK         0.0600 
    174 H174       -0.4037  -12.6586  -42.6988 H         1 UNK         0.3000 
    175 H175        2.1148  -12.9405  -42.2719 H         1 UNK         0.0600 
    176 H176        3.3536  -13.4858  -45.0217 H         1 UNK         0.0600 
    177 H177        4.1954  -12.7723  -43.6463 H         1 UNK         0.0600 
    178 H178        3.6140  -14.4222  -43.5525 H         1 UNK         0.0600 
    179 H179        2.3843  -11.2549  -44.5891 H         1 UNK         0.3000 
    180 H180       -0.0805   -8.9748  -44.0521 H         1 UNK         0.0600 
    181 H181        2.6629   -8.4108  -42.8015 H         1 UNK         0.0600 
    182 H182        1.1102   -8.1917  -42.0037 H         1 UNK         0.0600 
    183 H183        1.5259   -7.1960  -43.3884 H         1 UNK         0.0600 
    184 H184        2.5328   -8.7016  -45.2354 H         1 UNK         0.3000 
    185 H185        1.8665   -8.8032  -48.1380 H         1 UNK         0.0600 
    186 H186        4.2348   -9.7348  -48.1092 H         1 UNK         0.0600 
    187 H187        3.8965   -8.8157  -46.6640 H         1 UNK         0.0600 
    188 H188        3.8765  -10.5789  -46.6089 H         1 UNK         0.0600 
    189 H189        1.1059  -11.4854  -47.9207 H         1 UNK         0.3000 
    190 H190       -1.4854  -21.7434  -47.4461 H         1 UNK         0.3000 
    191 H191       -2.7124  -23.0768  -49.5957 H         1 UNK         0.0600 
    192 H192       -3.9479  -21.8019  -47.0973 H         1 UNK         0.0600 
    193 H193       -4.8257  -22.2083  -48.5606 H         1 UNK         0.0600 
    194 H194       -3.5689  -20.9867  -48.6098 H         1 UNK         0.0600 
    195 H195       -2.7644  -23.8855  -46.0869 H         1 UNK         0.3000 
    196 H196       -4.3882  -26.1969  -46.2772 H         1 UNK         0.0600 
    197 H197       -3.4495  -26.7116  -44.0135 H         1 UNK         0.0600 
    198 H198       -3.9506  -25.0324  -44.1428 H         1 UNK         0.0600 
    199 H199       -2.2408  -25.4494  -44.2223 H         1 UNK         0.0600 
    200 H200       -0.8142  -25.8422  -46.4501 H         1 UNK         0.3000 
    201 H201       -0.2189  -28.6187  -46.6866 H         1 UNK         0.0600 
    202 H202        1.4607  -26.9374  -45.9996 H         1 UNK         0.0600 
    203 H203        1.3771  -26.1593  -47.5778 H         1 UNK         0.0600 
    204 H204        2.0179  -27.7914  -47.4308 H         1 UNK         0.0600 
    205 H205       -0.7790  -26.0864  -49.1642 H         1 UNK         0.3000 
    206 H206       -0.3307  -27.7905  -51.4366 H         1 UNK         0.0600 
    207 H207       -0.0690  -25.3182  -51.5150 H         1 UNK         0.0600 
    208 H208       -1.2775  -25.8340  -52.6810 H         1 UNK         0.0600 
    209 H209       -1.7820  -25.1017  -51.1633 H         1 UNK         0.0600 
    210 H210       -3.0537  -27.3216  -49.3634 H         1 UNK         0.3000 
    211 H211       -5.1664  -27.9438  -49.2603 H         1 UNK         0.0600 
    212 H212       -4.6589  -29.9151  -51.5551 H         1 UNK         0.0600 
    213 H213       -6.0298  -29.9150  -50.4568 H         1 UNK         0.0600 
    214 H214       -4.4208  -30.2620  -49.8429 H         1 UNK         0.0600 
    215 H215       -4.6964  -25.6170  -50.2887 H         1 UNK         0.3000 
    216 H216       -6.5653  -25.1794  -52.5699 H         1 UNK         0.0600 
    217 H217       -4.9196  -23.5774  -53.5123 H         1 UNK         0.0600 
    218 H218       -4.1344  -25.1362  -53.3455 H         1 UNK         0.0600 
    219 H219       -3.8128  -23.8614  -52.1733 H         1 UNK         0.0600 
    220 H220       -6.6645  -22.5689  -52.6920 H         1 UNK         0.3000 
    221 H221       -7.5545  -21.5615  -50.0423 H         1 UNK         0.0600 
    222 H222       -7.8596  -20.4226  -52.8832 H         1 UNK         0.0600 
    223 H223       -9.0995  -21.3160  -52.0054 H         1 UNK         0.0600 
    224 H224       -8.5686  -19.7495  -51.4193 H         1 UNK         0.0600 
    225 H225       -6.7075  -19.5593  -49.2474 H         1 UNK         0.3000 
    226 H226       -3.9281  -19.0114  -49.7365 H         1 UNK         0.0600 
    227 H227       -4.9569  -18.7090  -47.5109 H         1 UNK         0.0600 
    228 H228       -4.3013  -17.1836  -48.0777 H         1 UNK         0.0600 
    229 H229       -6.0373  -17.4638  -48.1436 H         1 UNK         0.0600 
    230 H230       -6.7416  -17.9523  -51.3969 H         1 UNK         0.3000 
    231 H231       -5.5587  -15.5391  -52.5575 H         1 UNK         0.0600 
    232 H232       -8.0238  -15.7662  -52.3046 H         1 UNK         0.0600 
    233 H233       -8.0204  -17.1942  -53.3407 H         1 UNK         0.0600 
    234 H234       -7.5891  -15.6209  -53.9999 H         1 UNK         0.0600 
    235 H235       -5.4294  -18.9929  -53.1553 H         1 UNK         0.3000 
    236 H236       -4.4952  -18.6617  -55.9635 H         1 UNK         0.0600 
    237 H237       -4.8773  -21.1117  -56.0854 H         1 UNK         0.0600 
    238 H238       -5.3595  -21.1486  -54.3938 H         1 UNK         0.0600 
    239 H239       -6.3375  -20.2800  -55.5740 H         1 UNK         0.0600 
    240 H240       -3.5578  -19.9626  -52.7744 H         1 UNK         0.3000 
    241 H241       -1.6589  -20.4073  -51.7938 H         1 UNK         0.0600 
    242 H242       -1.4605  -23.4632  -54.1825 H         1 UNK         0.3800 
    243 H243       -2.7172  -22.2530  -54.1865 H         1 UNK         0.3800 
    244 H244       -0.0899  -19.1321  -54.0881 H         1 UNK         0.0800 
    245 H245        0.5670  -19.5393  -52.5427 H         1 UNK         0.0800 
    246 H246       -1.2442  -18.7469  -50.3449 H         1 UNK         0.0800 
    247 H247       -1.4593  -17.0352  -50.1913 H         1 UNK         0.0800 
@<TRIPOS>BOND
     1    1    2 1    
     2    1  127 1    
     3    1  128 1    
     4    1  129 1    
     5    2    3 2    
     6    2    4 am   BACKBONE|DICT|INTERRES
     7    4    5 1    
     8    4  130 1    
     9    5    6 1    
    10    5   65 1    
    11    5  131 1    
    12    6    7 1    
    13    6  132 1    
    14    6  133 1    
    15    7    8 1    
    16    8    9 1    
    17    8  134 1    
    18    8  135 1    
    19    9   10 ar   
    20    9   14 ar   
    21   10   11 ar   
    22   10  136 1    
    23   11   12 ar   
    24   11  126 1    
    25   12   13 ar   
    26   12  137 1    
    27   13   14 ar   
    28   13   15 1    
    29   14  138 1    
    30   15   16 1    
    31   15  139 1    
    32   15  140 1    
    33   16   17 1    
    34   17   18 1    
    35   17  141 1    
    36   17  142 1    
    37   18   19 1    
    38   18   67 1    
    39   18  143 1    
    40   19   20 am   BACKBONE|DICT|INTERRES
    41   19  144 1    
    42   20   21 2    
    43   20   22 1    
    44   22   23 1    
    45   22   24 1    
    46   22  145 1    
    47   23  146 1    
    48   23  147 1    
    49   23  148 1    
    50   24   25 am   BACKBONE|DICT|INTERRES
    51   24  149 1    
    52   25   26 2    
    53   25   27 1    
    54   27   28 1    
    55   27   29 1    
    56   27  150 1    
    57   28  151 1    
    58   28  152 1    
    59   28  153 1    
    60   29   30 am   BACKBONE|DICT|INTERRES
    61   29  154 1    
    62   30   31 2    
    63   30   32 1    
    64   32   33 1    
    65   32   34 1    
    66   32  155 1    
    67   33  156 1    
    68   33  157 1    
    69   33  158 1    
    70   34   35 am   BACKBONE|DICT|INTERRES
    71   34  159 1    
    72   35   36 2    
    73   35   37 1    
    74   37   38 1    
    75   37   39 1    
    76   37  160 1    
    77   38  161 1    
    78   38  162 1    
    79   38  163 1    
    80   39   40 am   BACKBONE|DICT|INTERRES
    81   39  164 1    
    82   40   41 2    
    83   40   42 1    
    84   42   43 1    
    85   42   44 1    
    86   42  165 1    
    87   43  166 1    
    88   43  167 1    
    89   43  168 1    
    90   44   45 am   BACKBONE|DICT|INTERRES
    91   44  169 1    
    92   45   46 2    
    93   45   47 1    
    94   47   48 1    
    95   47   49 1    
    96   47  170 1    
    97   48  171 1    
    98   48  172 1    
    99   48  173 1    
   100   49   50 am   BACKBONE|DICT|INTERRES
   101   49  174 1    
   102   50   51 2    
   103   50   52 1    
   104   52   53 1    
   105   52   54 1    
   106   52  175 1    
   107   53  176 1    
   108   53  177 1    
   109   53  178 1    
   110   54   55 am   BACKBONE|DICT|INTERRES
   111   54  179 1    
   112   55   56 2    
   113   55   57 1    
   114   57   58 1    
   115   57   59 1    
   116   57  180 1    
   117   58  181 1    
   118   58  182 1    
   119   58  183 1    
   120   59   60 am   BACKBONE|DICT|INTERRES
   121   59  184 1    
   122   60   61 2    
   123   60   62 1    
   124   62   63 1    
   125   62   64 1    
   126   62  185 1    
   127   63  186 1    
   128   63  187 1    
   129   63  188 1    
   130   64   65 am   BACKBONE|DICT|INTERRES
   131   64  189 1    
   132   65   66 2    
   133   67   68 2    
   134   67   69 am   BACKBONE|DICT|INTERRES
   135   69   70 1    
   136   69  190 1    
   137   70   71 1    
   138   70   72 1    
   139   70  191 1    
   140   71  192 1    
   141   71  193 1    
   142   71  194 1    
   143   72   73 2    
   144   72   74 am   BACKBONE|DICT|INTERRES
   145   74   75 1    
   146   74  195 1    
   147   75   76 1    
   148   75   77 1    
   149   75  196 1    
   150   76  197 1    
   151   76  198 1    
   152   76  199 1    
   153   77   78 2    
   154   77   79 am   BACKBONE|DICT|INTERRES
   155   79   80 1    
   156   79  200 1    
   157   80   81 1    
   158   80   82 1    
   159   80  201 1    
   160   81  202 1    
   161   81  203 1    
   162   81  204 1    
   163   82   83 2    
   164   82   84 am   BACKBONE|DICT|INTERRES
   165   84   85 1    
   166   84  205 1    
   167   85   86 1    
   168   85   87 1    
   169   85  206 1    
   170   86  207 1    
   171   86  208 1    
   172   86  209 1    
   173   87   88 2    
   174   87   89 am   BACKBONE|DICT|INTERRES
   175   89   90 1    
   176   89  210 1    
   177   90   91 1    
   178   90   92 1    
   179   90  211 1    
   180   91  212 1    
   181   91  213 1    
   182   91  214 1    
   183   92   93 2    
   184   92   94 am   BACKBONE|DICT|INTERRES
   185   94   95 1    
   186   94  215 1    
   187   95   96 1    
   188   95   97 1    
   189   95  216 1    
   190   96  217 1    
   191   96  218 1    
   192   96  219 1    
   193   97   98 2    
   194   97   99 am   BACKBONE|DICT|INTERRES
   195   99  100 1    
   196   99  220 1    
   197  100  101 1    
   198  100  102 1    
   199  100  221 1    
   200  101  222 1    
   201  101  223 1    
   202  101  224 1    
   203  102  103 2    
   204  102  104 am   BACKBONE|DICT|INTERRES
   205  104  105 1    
   206  104  225 1    
   207  105  106 1    
   208  105  107 1    
   209  105  226 1    
   210  106  227 1    
   211  106  228 1    
   212  106  229 1    
   213  107  108 2    
   214  107  109 am   BACKBONE|DICT|INTERRES
   215  109  110 1    
   216  109  230 1    
   217  110  111 1    
   218  110  112 1    
   219  110  231 1    
   220  111  232 1    
   221  111  233 1    
   222  111  234 1    
   223  112  113 2    
   224  112  114 am   BACKBONE|DICT|INTERRES
   225  114  115 1    
   226  114  235 1    
   227  115  116 1    
   228  115  117 1    
   229  115  236 1    
   230  116  237 1    
   231  116  238 1    
   232  116  239 1    
   233  117  118 2    
   234  117  119 am   BACKBONE|DICT|INTERRES
   235  119  120 1    
   236  119  240 1    
   237  120  121 1    
   238  120  124 1    
   239  120  241 1    
   240  121  122 am   BACKBONE|DICT|INTERRES
   241  121  123 2    
   242  122  242 1    
   243  122  243 1    
   244  124  125 1    
   245  124  244 1    
   246  124  245 1    
   247  125  126 1    
   248  126  246 1    
   249  126  247 1    
@<TRIPOS>SUBSTRUCTURE
     1 UNK         1 GROUP             0       ****    0 ROOT    
