@<TRIPOS>MOLECULE
3R540
247   249    1
SMALL
USER_CHARGES


@<TRIPOS>ATOM
      1 CA          1.2591  -13.5983  -50.3418 C.3       0 UNK        -0.1800 
      2 C           0.6497  -13.3525  -48.9708 C.2       0 UNK         0.5000 
      3 O           1.3254  -12.8369  -48.0816 O.2       0 UNK        -0.5000 
      4 N          -0.6379  -13.6789  -48.7991 N.am      1 UNK        -0.5000 
      5 CA         -1.3933  -13.5327  -47.5456 C.3       1 UNK         0.1400 
      6 C6         -2.6368  -14.4553  -47.4819 C.3       23 UNK        -0.0398 
      7 S7         -3.7588  -14.3300  -48.9178 S.3       23 UNK        -0.2404 
      8 C8         -3.6810  -16.0218  -49.5933 C.3       23 UNK        -0.0205 
      9 C9         -2.3300  -16.3135  -50.2270 C.ar      23 UNK        -0.0193 
     10 C10        -2.0423  -15.8133  -51.4981 C.ar      23 UNK        -0.1150 
     11 C11        -0.7965  -16.0365  -52.0874 C.ar      23 UNK        -0.0193 
     12 C12         0.1676  -16.7761  -51.3932 C.ar      23 UNK        -0.1150 
     13 C13        -0.1066  -17.2814  -50.1163 C.ar      23 UNK        -0.0193 
     14 C14        -1.3615  -17.0551  -49.5435 C.ar      23 UNK        -0.1150 
     15 C15         0.9741  -18.0123  -49.3299 C.3       23 UNK        -0.0205 
     16 S16         0.9509  -19.8111  -49.6056 S.3       23 UNK        -0.2404 
     17 C17        -0.3381  -20.3595  -48.4374 C.3       23 UNK        -0.0398 
     18 CA         -0.3964  -21.9047  -48.3510 C.3       11 UNK         0.1400 
     19 N           0.7719  -22.4666  -47.6697 N.am      11 UNK        -0.5000 
     20 C           1.0333  -23.7682  -47.4706 C.2       10 UNK         0.5000 
     21 O           0.3108  -24.6917  -47.8463 O.2       10 UNK        -0.5000 
     22 CA          2.3164  -24.0915  -46.6789 C.3       10 UNK         0.1400 
     23 CB          3.5084  -24.2398  -47.6361 C.3       10 UNK        -0.1800 
     24 N           2.6482  -23.1033  -45.6458 N.am      10 UNK        -0.5000 
     25 C           1.8409  -22.7268  -44.6440 C.2       9 UNK         0.5000 
     26 O           0.7011  -23.1765  -44.4870 O.2       9 UNK        -0.5000 
     27 CA          2.3644  -21.6438  -43.6822 C.3       9 UNK         0.1400 
     28 CB          3.4622  -20.7405  -44.2818 C.3       9 UNK        -0.1800 
     29 N           1.2146  -20.8412  -43.3049 N.am      9 UNK        -0.5000 
     30 C           1.0064  -20.1609  -42.1816 C.2       8 UNK         0.5000 
     31 O           1.8559  -20.0177  -41.3002 O.2       8 UNK        -0.5000 
     32 CA         -0.4135  -19.5674  -42.0280 C.3       8 UNK         0.1400 
     33 CB         -0.6339  -18.9374  -40.6419 C.3       8 UNK        -0.1800 
     34 N          -0.7865  -18.5961  -43.0676 N.am      8 UNK        -0.5000 
     35 C          -1.0039  -18.8568  -44.3684 C.2       7 UNK         0.5000 
     36 O          -0.8248  -19.9632  -44.8816 O.2       7 UNK        -0.5000 
     37 CA         -1.5598  -17.7311  -45.2630 C.3       7 UNK         0.1400 
     38 CB         -2.8789  -18.1797  -45.9181 C.3       7 UNK        -0.1800 
     39 N          -1.7990  -16.4726  -44.5560 N.am      7 UNK        -0.5000 
     40 C          -0.8796  -15.5240  -44.3401 C.2       6 UNK         0.5000 
     41 O           0.2947  -15.6250  -44.6962 O.2       6 UNK        -0.5000 
     42 CA         -1.3494  -14.2307  -43.6379 C.3       6 UNK         0.1400 
     43 CB         -2.8464  -14.2177  -43.2525 C.3       6 UNK        -0.1800 
     44 N          -0.5255  -13.8923  -42.4790 N.am      6 UNK        -0.5000 
     45 C          -0.2884  -14.6604  -41.4058 C.2       5 UNK         0.5000 
     46 O          -0.7636  -15.7880  -41.2694 O.2       5 UNK        -0.5000 
     47 CA          0.5760  -14.0675  -40.2701 C.3       5 UNK         0.1400 
     48 CB          1.6922  -15.0357  -39.8254 C.3       5 UNK        -0.1800 
     49 N           1.0949  -12.7178  -40.5423 N.am      5 UNK        -0.5000 
     50 C           2.0434  -12.3592  -41.4185 C.2       4 UNK         0.5000 
     51 O           2.7142  -13.1493  -42.0856 O.2       4 UNK        -0.5000 
     52 CA          2.2545  -10.8418  -41.5923 C.3       4 UNK         0.1400 
     53 CB          3.4670  -10.3682  -40.7764 C.3       4 UNK        -0.1800 
     54 N           2.4407  -10.4596  -42.9942 N.am      4 UNK        -0.5000 
     55 C           1.5707  -10.6965  -43.9862 C.2       3 UNK         0.5000 
     56 O           0.4719  -11.2339  -43.8177 O.2       3 UNK        -0.5000 
     57 CA          2.0370  -10.2829  -45.3970 C.3       3 UNK         0.1400 
     58 CB          3.1685  -11.2048  -45.8812 C.3       3 UNK        -0.1800 
     59 N           0.9538  -10.3211  -46.3800 N.am      3 UNK        -0.5000 
     60 C          -0.0414   -9.4247  -46.4676 C.2       2 UNK         0.5000 
     61 O          -0.1087   -8.4140  -45.7663 O.2       2 UNK        -0.5000 
     62 CA         -1.1440   -9.6859  -47.5190 C.3       2 UNK         0.1400 
     63 CB         -0.9042   -8.8331  -48.7744 C.3       2 UNK        -0.1800 
     64 N          -1.2236  -11.0925  -47.9135 N.am      2 UNK        -0.5000 
     65 C          -1.7056  -12.0723  -47.1376 C.2       1 UNK         0.5000 
     66 O          -2.3355  -11.8574  -46.1019 O.2       1 UNK        -0.5000 
     67 C          -1.7235  -22.4079  -47.7471 C.2       11 UNK         0.5000 
     68 O          -2.5139  -23.0268  -48.4619 O.2       11 UNK        -0.5000 
     69 N          -1.9337  -22.1671  -46.4459 N.am      12 UNK        -0.5000 
     70 CA         -3.1030  -22.6551  -45.7156 C.3       12 UNK         0.1400 
     71 CB         -3.2509  -21.8978  -44.3879 C.3       12 UNK        -0.1800 
     72 C          -3.0515  -24.1692  -45.4571 C.2       12 UNK         0.5000 
     73 O          -4.0841  -24.8293  -45.5821 O.2       12 UNK        -0.5000 
     74 N          -1.8652  -24.6865  -45.0973 N.am      13 UNK        -0.5000 
     75 CA         -1.6559  -26.0748  -44.6733 C.3       13 UNK         0.1400 
     76 CB         -0.2034  -26.2734  -44.2204 C.3       13 UNK        -0.1800 
     77 C          -2.0384  -27.1237  -45.7313 C.2       13 UNK         0.5000 
     78 O          -2.6072  -28.1571  -45.3760 O.2       13 UNK        -0.5000 
     79 N          -1.7820  -26.8284  -47.0124 N.am      14 UNK        -0.5000 
     80 CA         -2.1868  -27.6532  -48.1530 C.3       14 UNK         0.1400 
     81 CB         -1.2171  -27.4022  -49.3177 C.3       14 UNK        -0.1800 
     82 C          -3.6624  -27.4113  -48.5429 C.2       14 UNK         0.5000 
     83 O          -3.9565  -27.1279  -49.7054 O.2       14 UNK        -0.5000 
     84 N          -4.5632  -27.5009  -47.5524 N.am      15 UNK        -0.5000 
     85 CA         -6.0260  -27.3846  -47.6409 C.3       15 UNK         0.1400 
     86 CB         -6.6057  -28.6486  -48.3086 C.3       15 UNK        -0.1800 
     87 C          -6.5244  -26.0846  -48.3133 C.2       15 UNK         0.5000 
     88 O          -7.5656  -26.0944  -48.9717 O.2       15 UNK        -0.5000 
     89 N          -5.7465  -25.0016  -48.1680 N.am      16 UNK        -0.5000 
     90 CA         -5.8938  -23.6914  -48.8157 C.3       16 UNK         0.1400 
     91 CB         -7.1946  -22.9949  -48.3695 C.3       16 UNK        -0.1800 
     92 C          -5.7415  -23.7021  -50.3559 C.2       16 UNK         0.5000 
     93 O          -5.9171  -22.6559  -50.9824 O.2       16 UNK        -0.5000 
     94 N          -5.3832  -24.8455  -50.9589 N.am      17 UNK        -0.5000 
     95 CA         -5.1768  -24.9795  -52.4022 C.3       17 UNK         0.1400 
     96 CB         -5.1622  -26.4650  -52.7910 C.3       17 UNK        -0.1800 
     97 C          -3.8844  -24.2817  -52.8516 C.2       17 UNK         0.5000 
     98 O          -3.8631  -23.6459  -53.9058 O.2       17 UNK        -0.5000 
     99 N          -2.8445  -24.3589  -52.0106 N.am      18 UNK        -0.5000 
    100 CA        -1.5851  -23.6488  -52.2139 C.3       18 UNK         0.1400 
    101 CB        -0.4949  -24.2514  -51.3211 C.3       18 UNK        -0.1800 
    102 C         -1.7150  -22.1286  -52.0078 C.2       18 UNK         0.5000 
    103 O         -0.9360  -21.3912  -52.6041 O.2       18 UNK        -0.5000 
    104 N         -2.6993  -21.6755  -51.2160 N.am      19 UNK        -0.5000 
    105 CA        -3.0488  -20.2591  -51.0744 C.3       19 UNK         0.1400 
    106 CB        -3.9588  -20.0500  -49.8511 C.3       19 UNK        -0.1800 
    107 C         -3.7236  -19.7116  -52.3421 C.2       19 UNK         0.5000 
    108 O         -3.4238  -18.5935  -52.7533 O.2       19 UNK        -0.5000 
    109 N         -4.5987  -20.5194  -52.9578 N.am      20 UNK        -0.5000 
    110 CA        -5.2518  -20.2001  -54.2281 C.3       20 UNK         0.1400 
    111 CB        -6.3893  -21.2004  -54.4852 C.3       20 UNK        -0.1800 
    112 C         -4.2602  -20.1707  -55.4078 C.2       20 UNK         0.5000 
    113 O         -4.3690  -19.3014  -56.2732 O.2       20 UNK        -0.5000 
    114 N         -3.3047  -21.1100  -55.4106 N.am      21 UNK        -0.5000 
    115 CA        -2.2412  -21.2101  -56.4119 C.3       21 UNK         0.1400 
    116 CB        -1.7045  -22.6498  -56.4112 C.3       21 UNK        -0.1800 
    117 C         -1.0831  -20.2138  -56.1935 C.2       21 UNK         0.5000 
    118 O         -0.3286  -19.9637  -57.1346 O.2       21 UNK        -0.5000 
    119 N         -0.9441  -19.6941  -54.9669 N.am      22 UNK        -0.5000 
    120 CA         0.1990  -18.9099  -54.4667 C.3       22 UNK         0.1400 
    121 C          1.5253  -19.7274  -54.4528 C.2       22 UNK         0.5000 
    122 N          1.5028  -20.9387  -53.9149 N.am      22 UNK        -0.7600 
    123 O          2.5697  -19.2794  -54.9201 O.2       22 UNK        -0.5000 
    124 C124        0.3479  -17.5157  -55.1318 C.3       23 UNK        -0.0398 
    125 S125       -1.0858  -16.4303  -54.8297 S.3       23 UNK        -0.2404 
    126 C126       -0.4882  -15.4125  -53.4417 C.3       23 UNK        -0.0205 
    127 H127        1.9238  -12.7781  -50.6130 H         1 UNK         0.0600 
    128 H128        0.4911  -13.6746  -51.1107 H         1 UNK         0.0600 
    129 H129        1.8389  -14.5210  -50.3350 H         1 UNK         0.0600 
    130 H130       -1.1549  -14.0902  -49.5648 H         1 UNK         0.3000 
    131 H131       -0.7225  -13.8835  -46.7600 H         1 UNK         0.0600 
    132 H132       -3.2194  -14.2753  -46.5775 H         1 UNK         0.0800 
    133 H133       -2.2922  -15.4828  -47.3886 H         1 UNK         0.0800 
    134 H134       -4.4631  -16.1391  -50.3451 H         1 UNK         0.0800 
    135 H135       -3.9079  -16.7413  -48.8064 H         1 UNK         0.0800 
    136 H136       -2.7880  -15.2351  -52.0256 H         1 UNK         0.1150 
    137 H137        1.1411  -16.9356  -51.8350 H         1 UNK         0.1150 
    138 H138       -1.5741  -17.4370  -48.5561 H         1 UNK         0.1150 
    139 H139        1.9537  -17.6329  -49.6242 H         1 UNK         0.0800 
    140 H140        0.8811  -17.7970  -48.2643 H         1 UNK         0.0800 
    141 H141       -1.2862  -19.9443  -48.7718 H         1 UNK         0.0800 
    142 H142       -0.1435  -19.9251  -47.4564 H         1 UNK         0.0800 
    143 H143       -0.3639  -22.2783  -49.3720 H         1 UNK         0.0600 
    144 H144        1.4394  -21.7977  -47.3172 H         1 UNK         0.3000 
    145 H145        2.1654  -25.0496  -46.1810 H         1 UNK         0.0600 
    146 H146        4.4037  -24.5638  -47.1053 H         1 UNK         0.0600 
    147 H147        3.3010  -24.9854  -48.4051 H         1 UNK         0.0600 
    148 H148        3.7377  -23.3013  -48.1425 H         1 UNK         0.0600 
    149 H149        3.5622  -22.6795  -45.7099 H         1 UNK         0.3000 
    150 H150        2.7543  -22.1513  -42.7980 H         1 UNK         0.0600 
    151 H151        4.3696  -21.3048  -44.4986 H         1 UNK         0.0600 
    152 H152        3.7420  -19.9500  -43.5852 H         1 UNK         0.0600 
    153 H153        3.1313  -20.2633  -45.2052 H         1 UNK         0.0600 
    154 H154        0.4423  -20.8738  -43.9677 H         1 UNK         0.3000 
    155 H155       -1.1085  -20.4055  -42.1098 H         1 UNK         0.0600 
    156 H156        0.0700  -18.1266  -40.4535 H         1 UNK         0.0600 
    157 H157       -0.4968  -19.6766  -39.8518 H         1 UNK         0.0600 
    158 H158       -1.6433  -18.5385  -40.5410 H         1 UNK         0.0600 
    159 H159       -0.9255  -17.6473  -42.7443 H         1 UNK         0.3000 
    160 H160       -0.8292  -17.5616  -46.0566 H         1 UNK         0.0600 
    161 H161       -3.6337  -18.4241  -45.1699 H         1 UNK         0.0600 
    162 H162       -2.7334  -19.0660  -46.5373 H         1 UNK         0.0600 
    163 H163       -3.2942  -17.4053  -46.5602 H         1 UNK         0.0600 
    164 H164       -2.7330  -16.3290  -44.1991 H         1 UNK         0.3000 
    165 H165       -1.1871  -13.4268  -44.3540 H         1 UNK         0.0600 
    166 H166       -3.0943  -14.9988  -42.5328 H         1 UNK         0.0600 
    167 H167       -3.1203  -13.2618  -42.8057 H         1 UNK         0.0600 
    168 H168       -3.4850  -14.3487  -44.1264 H         1 UNK         0.0600 
    169 H169       -0.0622  -12.9940  -42.5381 H         1 UNK         0.3000 
    170 H170       -0.1006  -13.9503  -39.4224 H         1 UNK         0.0600 
    171 H171        1.2697  -15.9649  -39.4415 H         1 UNK         0.0600 
    172 H172        2.3549  -15.3017  -40.6490 H         1 UNK         0.0600 
    173 H173        2.2983  -14.6031  -39.0295 H         1 UNK         0.0600 
    174 H174        0.6087  -11.9790  -40.0522 H         1 UNK         0.3000 
    175 H175        1.3678  -10.3186  -41.2281 H         1 UNK         0.0600 
    176 H176        4.3904  -10.8358  -41.1209 H         1 UNK         0.0600 
    177 H177        3.5917   -9.2872  -40.8433 H         1 UNK         0.0600 
    178 H178        3.3484  -10.6157  -39.7207 H         1 UNK         0.0600 
    179 H179        3.3315  -10.0437  -43.2228 H         1 UNK         0.3000 
    180 H180        2.4185   -9.2610  -45.3449 H         1 UNK         0.0600 
    181 H181        3.4873  -10.9444  -46.8907 H         1 UNK         0.0600 
    182 H182        2.8570  -12.2503  -45.8880 H         1 UNK         0.0600 
    183 H183        4.0450  -11.1302  -45.2368 H         1 UNK         0.0600 
    184 H184        0.9323  -11.1392  -46.9789 H         1 UNK         0.3000 
    185 H185       -2.0992   -9.3900  -47.0801 H         1 UNK         0.0600 
    186 H186       -1.7058   -8.9666  -49.5012 H         1 UNK         0.0600 
    187 H187       -0.8670   -7.7720  -48.5244 H         1 UNK         0.0600 
    188 H188        0.0378   -9.0890  -49.2611 H         1 UNK         0.0600 
    189 H189       -0.7242  -11.3573  -48.7496 H         1 UNK         0.3000 
    190 H190       -1.2622  -21.6242  -45.9131 H         1 UNK         0.3000 
    191 H191       -3.9932  -22.4501  -46.3139 H         1 UNK         0.0600 
    192 H192       -4.1016  -22.2710  -43.8162 H         1 UNK         0.0600 
    193 H193       -3.4208  -20.8357  -44.5577 H         1 UNK         0.0600 
    194 H194       -2.3631  -22.0035  -43.7631 H         1 UNK         0.0600 
    195 H195       -1.0633  -24.0683  -45.0211 H         1 UNK         0.3000 
    196 H196       -2.2996  -26.2430  -43.8075 H         1 UNK         0.0600 
    197 H197        0.4948  -26.0959  -45.0367 H         1 UNK         0.0600 
    198 H198        0.0525  -25.5998  -43.4025 H         1 UNK         0.0600 
    199 H199       -0.0398  -27.2914  -43.8645 H         1 UNK         0.0600 
    200 H200       -1.3077  -25.9577  -47.2288 H         1 UNK         0.3000 
    201 H201       -2.0990  -28.7068  -47.8801 H         1 UNK         0.0600 
    202 H202       -1.2809  -26.3725  -49.6602 H         1 UNK         0.0600 
    203 H203       -1.4426  -28.0485  -50.1668 H         1 UNK         0.0600 
    204 H204       -0.1850  -27.5946  -49.0243 H         1 UNK         0.0600 
    205 H205       -4.1980  -27.7053  -46.6285 H         1 UNK         0.3000 
    206 H206       -6.3924  -27.3517  -46.6140 H         1 UNK         0.0600 
    207 H207       -6.2632  -29.5528  -47.8054 H         1 UNK         0.0600 
    208 H208       -7.6956  -28.6520  -48.2690 H         1 UNK         0.0600 
    209 H209       -6.3144  -28.7178  -49.3574 H         1 UNK         0.0600 
    210 H210       -4.9337  -25.0993  -47.5699 H         1 UNK         0.3000 
    211 H211       -5.0700  -23.0844  -48.4442 H         1 UNK         0.0600 
    212 H212       -7.2243  -21.9623  -48.7196 H         1 UNK         0.0600 
    213 H213       -7.2752  -22.9692  -47.2828 H         1 UNK         0.0600 
    214 H214       -8.0801  -23.4952  -48.7618 H         1 UNK         0.0600 
    215 H215       -5.1877  -25.6652  -50.3934 H         1 UNK         0.3000 
    216 H216       -6.0138  -24.5025  -52.9167 H         1 UNK         0.0600 
    217 H217       -4.3180  -26.9929  -52.3464 H         1 UNK         0.0600 
    218 H218       -5.0869  -26.5818  -53.8728 H         1 UNK         0.0600 
    219 H219       -6.0764  -26.9655  -52.4714 H         1 UNK         0.0600 
    220 H220       -2.9464  -24.8926  -51.1586 H         1 UNK         0.3000 
    221 H221       -1.2747  -23.8018  -53.2492 H         1 UNK         0.0600 
    222 H222       -0.2693  -25.2758  -51.6172 H         1 UNK         0.0600 
    223 H223       -0.8003  -24.2659  -50.2771 H         1 UNK         0.0600 
    224 H224        0.4339  -23.6832  -51.3886 H         1 UNK         0.0600 
    225 H225       -3.2812  -22.3438  -50.7317 H         1 UNK         0.3000 
    226 H226       -2.1281  -19.6921  -50.9221 H         1 UNK         0.0600 
    227 H227       -4.9398  -20.5021  -49.9890 H         1 UNK         0.0600 
    228 H228       -3.5309  -20.4667  -48.9421 H         1 UNK         0.0600 
    229 H229       -4.1210  -18.9874  -49.6736 H         1 UNK         0.0600 
    230 H230       -4.8260  -21.4102  -52.5341 H         1 UNK         0.3000 
    231 H231       -5.6920  -19.2046  -54.1393 H         1 UNK         0.0600 
    232 H232       -6.0182  -22.2201  -54.5880 H         1 UNK         0.0600 
    233 H233       -6.9246  -20.9529  -55.4026 H         1 UNK         0.0600 
    234 H234       -7.1147  -21.1898  -53.6714 H         1 UNK         0.0600 
    235 H235       -3.3394  -21.8383  -54.7050 H         1 UNK         0.3000 
    236 H236       -2.6686  -21.0088  -57.3964 H         1 UNK         0.0600 
    237 H237       -2.5018  -23.3704  -56.5947 H         1 UNK         0.0600 
    238 H238       -0.9543  -22.7882  -57.1907 H         1 UNK         0.0600 
    239 H239       -1.2371  -22.9013  -55.4590 H         1 UNK         0.0600 
    240 H240       -1.5944  -19.9923  -54.2533 H         1 UNK         0.3000 
    241 H241       -0.0182  -18.7334  -53.4132 H         1 UNK         0.0600 
    242 H242        2.3403  -21.4968  -53.8856 H         1 UNK         0.3800 
    243 H243        0.6475  -21.2622  -53.4670 H         1 UNK         0.3800 
    244 H244        0.4829  -17.6171  -56.2089 H         1 UNK         0.0800 
    245 H245        1.2465  -17.0137  -54.7711 H         1 UNK         0.0800 
    246 H246        0.5796  -15.2128  -53.5393 H         1 UNK         0.0800 
    247 H247       -0.9733  -14.4372  -53.5024 H         1 UNK         0.0800 
@<TRIPOS>BOND
     1    1    2 1    
     2    1  127 1    
     3    1  128 1    
     4    1  129 1    
     5    2    3 2    
     6    2    4 am   BACKBONE|DICT|INTERRES
     7    4    5 1    
     8    4  130 1    
     9    5    6 1    
    10    5   65 1    
    11    5  131 1    
    12    6    7 1    
    13    6  132 1    
    14    6  133 1    
    15    7    8 1    
    16    8    9 1    
    17    8  134 1    
    18    8  135 1    
    19    9   10 ar   
    20    9   14 ar   
    21   10   11 ar   
    22   10  136 1    
    23   11   12 ar   
    24   11  126 1    
    25   12   13 ar   
    26   12  137 1    
    27   13   14 ar   
    28   13   15 1    
    29   14  138 1    
    30   15   16 1    
    31   15  139 1    
    32   15  140 1    
    33   16   17 1    
    34   17   18 1    
    35   17  141 1    
    36   17  142 1    
    37   18   19 1    
    38   18   67 1    
    39   18  143 1    
    40   19   20 am   BACKBONE|DICT|INTERRES
    41   19  144 1    
    42   20   21 2    
    43   20   22 1    
    44   22   23 1    
    45   22   24 1    
    46   22  145 1    
    47   23  146 1    
    48   23  147 1    
    49   23  148 1    
    50   24   25 am   BACKBONE|DICT|INTERRES
    51   24  149 1    
    52   25   26 2    
    53   25   27 1    
    54   27   28 1    
    55   27   29 1    
    56   27  150 1    
    57   28  151 1    
    58   28  152 1    
    59   28  153 1    
    60   29   30 am   BACKBONE|DICT|INTERRES
    61   29  154 1    
    62   30   31 2    
    63   30   32 1    
    64   32   33 1    
    65   32   34 1    
    66   32  155 1    
    67   33  156 1    
    68   33  157 1    
    69   33  158 1    
    70   34   35 am   BACKBONE|DICT|INTERRES
    71   34  159 1    
    72   35   36 2    
    73   35   37 1    
    74   37   38 1    
    75   37   39 1    
    76   37  160 1    
    77   38  161 1    
    78   38  162 1    
    79   38  163 1    
    80   39   40 am   BACKBONE|DICT|INTERRES
    81   39  164 1    
    82   40   41 2    
    83   40   42 1    
    84   42   43 1    
    85   42   44 1    
    86   42  165 1    
    87   43  166 1    
    88   43  167 1    
    89   43  168 1    
    90   44   45 am   BACKBONE|DICT|INTERRES
    91   44  169 1    
    92   45   46 2    
    93   45   47 1    
    94   47   48 1    
    95   47   49 1    
    96   47  170 1    
    97   48  171 1    
    98   48  172 1    
    99   48  173 1    
   100   49   50 am   BACKBONE|DICT|INTERRES
   101   49  174 1    
   102   50   51 2    
   103   50   52 1    
   104   52   53 1    
   105   52   54 1    
   106   52  175 1    
   107   53  176 1    
   108   53  177 1    
   109   53  178 1    
   110   54   55 am   BACKBONE|DICT|INTERRES
   111   54  179 1    
   112   55   56 2    
   113   55   57 1    
   114   57   58 1    
   115   57   59 1    
   116   57  180 1    
   117   58  181 1    
   118   58  182 1    
   119   58  183 1    
   120   59   60 am   BACKBONE|DICT|INTERRES
   121   59  184 1    
   122   60   61 2    
   123   60   62 1    
   124   62   63 1    
   125   62   64 1    
   126   62  185 1    
   127   63  186 1    
   128   63  187 1    
   129   63  188 1    
   130   64   65 am   BACKBONE|DICT|INTERRES
   131   64  189 1    
   132   65   66 2    
   133   67   68 2    
   134   67   69 am   BACKBONE|DICT|INTERRES
   135   69   70 1    
   136   69  190 1    
   137   70   71 1    
   138   70   72 1    
   139   70  191 1    
   140   71  192 1    
   141   71  193 1    
   142   71  194 1    
   143   72   73 2    
   144   72   74 am   BACKBONE|DICT|INTERRES
   145   74   75 1    
   146   74  195 1    
   147   75   76 1    
   148   75   77 1    
   149   75  196 1    
   150   76  197 1    
   151   76  198 1    
   152   76  199 1    
   153   77   78 2    
   154   77   79 am   BACKBONE|DICT|INTERRES
   155   79   80 1    
   156   79  200 1    
   157   80   81 1    
   158   80   82 1    
   159   80  201 1    
   160   81  202 1    
   161   81  203 1    
   162   81  204 1    
   163   82   83 2    
   164   82   84 am   BACKBONE|DICT|INTERRES
   165   84   85 1    
   166   84  205 1    
   167   85   86 1    
   168   85   87 1    
   169   85  206 1    
   170   86  207 1    
   171   86  208 1    
   172   86  209 1    
   173   87   88 2    
   174   87   89 am   BACKBONE|DICT|INTERRES
   175   89   90 1    
   176   89  210 1    
   177   90   91 1    
   178   90   92 1    
   179   90  211 1    
   180   91  212 1    
   181   91  213 1    
   182   91  214 1    
   183   92   93 2    
   184   92   94 am   BACKBONE|DICT|INTERRES
   185   94   95 1    
   186   94  215 1    
   187   95   96 1    
   188   95   97 1    
   189   95  216 1    
   190   96  217 1    
   191   96  218 1    
   192   96  219 1    
   193   97   98 2    
   194   97   99 am   BACKBONE|DICT|INTERRES
   195   99  100 1    
   196   99  220 1    
   197  100  101 1    
   198  100  102 1    
   199  100  221 1    
   200  101  222 1    
   201  101  223 1    
   202  101  224 1    
   203  102  103 2    
   204  102  104 am   BACKBONE|DICT|INTERRES
   205  104  105 1    
   206  104  225 1    
   207  105  106 1    
   208  105  107 1    
   209  105  226 1    
   210  106  227 1    
   211  106  228 1    
   212  106  229 1    
   213  107  108 2    
   214  107  109 am   BACKBONE|DICT|INTERRES
   215  109  110 1    
   216  109  230 1    
   217  110  111 1    
   218  110  112 1    
   219  110  231 1    
   220  111  232 1    
   221  111  233 1    
   222  111  234 1    
   223  112  113 2    
   224  112  114 am   BACKBONE|DICT|INTERRES
   225  114  115 1    
   226  114  235 1    
   227  115  116 1    
   228  115  117 1    
   229  115  236 1    
   230  116  237 1    
   231  116  238 1    
   232  116  239 1    
   233  117  118 2    
   234  117  119 am   BACKBONE|DICT|INTERRES
   235  119  120 1    
   236  119  240 1    
   237  120  121 1    
   238  120  124 1    
   239  120  241 1    
   240  121  122 am   BACKBONE|DICT|INTERRES
   241  121  123 2    
   242  122  242 1    
   243  122  243 1    
   244  124  125 1    
   245  124  244 1    
   246  124  245 1    
   247  125  126 1    
   248  126  246 1    
   249  126  247 1    
@<TRIPOS>SUBSTRUCTURE
     1 UNK         1 GROUP             0       ****    0 ROOT    
