@<TRIPOS>MOLECULE
3R540
247   249    1
SMALL
USER_CHARGES


@<TRIPOS>ATOM
      1 CA          3.7250  -15.2997  -47.4106 C.3       0 UNK        -0.1800 
      2 C           2.6245  -14.8427  -48.3560 C.2       0 UNK         0.5000 
      3 O           2.5779  -13.6643  -48.7120 O.2       0 UNK        -0.5000 
      4 N           1.7309  -15.7640  -48.7405 N.am      1 UNK        -0.5000 
      5 CA          0.5855  -15.6212  -49.6556 C.3       1 UNK         0.1400 
      6 C6          0.9700  -15.2377  -51.1099 C.3       23 UNK        -0.0398 
      7 S7          1.9338  -16.5214  -51.9713 S.3       23 UNK        -0.2404 
      8 C8          0.6214  -17.4339  -52.8500 C.3       23 UNK        -0.0205 
      9 C9         -0.0402  -18.4542  -51.9385 C.ar      23 UNK        -0.0193 
     10 C10        -1.2237  -18.1518  -51.2588 C.ar      23 UNK        -0.1150 
     11 C11        -1.7856  -19.0703  -50.3679 C.ar      23 UNK        -0.0193 
     12 C12        -1.1832  -20.3196  -50.1999 C.ar      23 UNK        -0.1150 
     13 C13        -0.0013  -20.6336  -50.8775 C.ar      23 UNK        -0.0193 
     14 C14         0.5639  -19.6973  -51.7440 C.ar      23 UNK        -0.1150 
     15 C15         0.6838  -21.9721  -50.6631 C.3       23 UNK        -0.0205 
     16 S16         2.0760  -21.8636  -49.4890 S.3       23 UNK        -0.2404 
     17 C17         1.2643  -21.3860  -47.9219 C.3       23 UNK        -0.0398 
     18 CA          0.8898  -22.5921  -47.0298 C.3       11 UNK         0.1400 
     19 N           0.6821  -22.1880  -45.6364 N.am      11 UNK        -0.5000 
     20 C           0.5356  -23.0434  -44.6150 C.2       10 UNK         0.5000 
     21 O           0.5851  -24.2656  -44.7361 O.2       10 UNK        -0.5000 
     22 CA          0.2297  -22.4405  -43.2349 C.3       10 UNK         0.1400 
     23 CB          1.5032  -21.8691  -42.5944 C.3       10 UNK        -0.1800 
     24 N          -0.8117  -21.4147  -43.2904 N.am      10 UNK        -0.5000 
     25 C          -2.0737  -21.6394  -43.6847 C.2       9 UNK         0.5000 
     26 O          -2.5017  -22.7472  -44.0072 O.2       9 UNK        -0.5000 
     27 CA         -3.0070  -20.4201  -43.7758 C.3       9 UNK         0.1400 
     28 CB         -3.5571  -20.0541  -42.3895 C.3       9 UNK        -0.1800 
     29 N          -2.3693  -19.2496  -44.3796 N.am      9 UNK        -0.5000 
     30 C          -1.8735  -19.2044  -45.6248 C.2       8 UNK         0.5000 
     31 O          -1.8957  -20.1543  -46.4073 O.2       8 UNK        -0.5000 
     32 CA         -1.1798  -17.8948  -46.0432 C.3       8 UNK         0.1400 
     33 CB         -2.1999  -16.7639  -46.2521 C.3       8 UNK        -0.1800 
     34 N          -0.1789  -17.4733  -45.0643 N.am      8 UNK        -0.5000 
     35 C           0.8954  -18.1951  -44.7120 C.2       7 UNK         0.5000 
     36 O           1.2064  -19.2681  -45.2310 O.2       7 UNK        -0.5000 
     37 CA          1.7312  -17.6467  -43.5440 C.3       7 UNK         0.1400 
     38 CB          2.7006  -16.5576  -44.0266 C.3       7 UNK        -0.1800 
     39 N           0.8876  -17.1214  -42.4688 N.am      7 UNK        -0.5000 
     40 C           0.1138  -17.8811  -41.6791 C.2       6 UNK         0.5000 
     41 O           0.0492  -19.1063  -41.7596 O.2       6 UNK        -0.5000 
     42 CA         -0.7681  -17.1462  -40.6545 C.3       6 UNK         0.1400 
     43 CB          0.0393  -16.7948  -39.3962 C.3       6 UNK        -0.1800 
     44 N          -1.3669  -15.9304  -41.2033 N.am      6 UNK        -0.5000 
     45 C          -2.2674  -15.9078  -42.1964 C.2       5 UNK         0.5000 
     46 O          -2.7264  -16.9175  -42.7276 O.2       5 UNK        -0.5000 
     47 CA         -2.6832  -14.5208  -42.7172 C.3       5 UNK         0.1400 
     48 CB         -3.8825  -13.9811  -41.9245 C.3       5 UNK        -0.1800 
     49 N          -1.5874  -13.5492  -42.6687 N.am      5 UNK        -0.5000 
     50 C          -0.4725  -13.6388  -43.4037 C.2       4 UNK         0.5000 
     51 O          -0.2489  -14.5490  -44.2077 O.2       4 UNK        -0.5000 
     52 CA          0.5847  -12.5537  -43.1816 C.3       4 UNK         0.1400 
     53 CB          1.7063  -13.0515  -42.2545 C.3       4 UNK        -0.1800 
     54 N           1.1247  -12.2016  -44.4846 N.am      4 UNK        -0.5000 
     55 C           1.6251  -11.0099  -44.8266 C.2       3 UNK         0.5000 
     56 O           1.8162  -10.0905  -44.0295 O.2       3 UNK        -0.5000 
     57 CA          1.9358  -10.7993  -46.3216 C.3       3 UNK         0.1400 
     58 CB          3.4085  -11.1248  -46.6137 C.3       3 UNK        -0.1800 
     59 N           1.0825  -11.6001  -47.2063 N.am      3 UNK        -0.5000 
     60 C          -0.2448  -11.4314  -47.3471 C.2       2 UNK         0.5000 
     61 O          -0.8744  -10.5470  -46.7658 O.2       2 UNK        -0.5000 
     62 CA         -1.0114  -12.4022  -48.2658 C.3       2 UNK         0.1400 
     63 CB         -1.6815  -11.6645  -49.4395 C.3       2 UNK        -0.1800 
     64 N          -0.1524  -13.4619  -48.7804 N.am      2 UNK        -0.5000 
     65 C          -0.5296  -14.6877  -49.1418 C.2       1 UNK         0.5000 
     66 O          -1.6951  -15.0855  -49.1143 O.2       1 UNK        -0.5000 
     67 C          -0.3232  -23.3666  -47.5888 C.2       11 UNK         0.5000 
     68 O          -0.1414  -24.4002  -48.2377 O.2       11 UNK        -0.5000 
     69 N          -1.5378  -22.8722  -47.3087 N.am      12 UNK        -0.5000 
     70 CA         -2.8004  -23.4973  -47.7038 C.3       12 UNK         0.1400 
     71 CB         -3.9677  -22.5549  -47.3774 C.3       12 UNK        -0.1800 
     72 C          -3.0094  -24.8856  -47.0701 C.2       12 UNK         0.5000 
     73 O          -3.4955  -25.7926  -47.7449 O.2       12 UNK        -0.5000 
     74 N          -2.6109  -25.0383  -45.8008 N.am      13 UNK        -0.5000 
     75 CA         -2.6110  -26.3147  -45.0891 C.3       13 UNK         0.1400 
     76 CB         -2.4379  -26.0607  -43.5837 C.3       13 UNK        -0.1800 
     77 C          -1.5275  -27.2790  -45.6073 C.2       13 UNK         0.5000 
     78 O          -1.7967  -28.4732  -45.7441 O.2       13 UNK        -0.5000 
     79 N          -0.3243  -26.7509  -45.8713 N.am      14 UNK        -0.5000 
     80 CA          0.8433  -27.5200  -46.2972 C.3       14 UNK         0.1400 
     81 CB          2.1115  -26.6649  -46.1502 C.3       14 UNK        -0.1800 
     82 C           0.7398  -28.0710  -47.7283 C.2       14 UNK         0.5000 
     83 O           1.1321  -29.2182  -47.9501 O.2       14 UNK        -0.5000 
     84 N           0.2502  -27.2567  -48.6736 N.am      15 UNK        -0.5000 
     85 CA          0.2426  -27.6080  -50.0953 C.3       15 UNK         0.1400 
     86 CB          1.6089  -27.2731  -50.7221 C.3       15 UNK        -0.1800 
     87 C          -0.8857  -26.9471  -50.8977 C.2       15 UNK         0.5000 
     88 O          -1.4432  -27.6071  -51.7760 O.2       15 UNK        -0.5000 
     89 N          -1.1818  -25.6671  -50.6228 N.am      16 UNK        -0.5000 
     90 CA         -2.0467  -24.7960  -51.4302 C.3       16 UNK         0.1400 
     91 CB         -3.5281  -25.2305  -51.3404 C.3       16 UNK        -0.1800 
     92 C          -1.5088  -24.6622  -52.8733 C.2       16 UNK         0.5000 
     93 O          -0.3839  -24.1878  -53.0436 O.2       16 UNK        -0.5000 
     94 N          -2.3043  -25.0765  -53.8719 N.am      17 UNK        -0.5000 
     95 CA         -2.0738  -25.0267  -55.3235 C.3       17 UNK         0.1400 
     96 CB         -0.8046  -25.7984  -55.7358 C.3       17 UNK        -0.1800 
     97 C          -2.0877  -23.5926  -55.8852 C.2       17 UNK         0.5000 
     98 O          -2.9050  -23.2868  -56.7547 O.2       17 UNK        -0.5000 
     99 N          -1.2211  -22.7319  -55.3439 N.am      18 UNK        -0.5000 
    100 CA        -1.3052  -21.2795  -55.4617 C.3       18 UNK         0.1400 
    101 CB         0.0926  -20.6892  -55.2256 C.3       18 UNK        -0.1800 
    102 C         -2.3193  -20.7342  -54.4376 C.2       18 UNK         0.5000 
    103 O         -2.6434  -21.4236  -53.4661 O.2       18 UNK        -0.5000 
    104 N         -2.8027  -19.5092  -54.6657 N.am      19 UNK        -0.5000 
    105 CA        -3.7585  -18.8405  -53.7904 C.3       19 UNK         0.1400 
    106 CB        -5.1936  -19.2628  -54.1539 C.3       19 UNK        -0.1800 
    107 C         -3.5906  -17.3189  -53.8697 C.2       19 UNK         0.5000 
    108 O         -3.0708  -16.8046  -54.8631 O.2       19 UNK        -0.5000 
    109 N         -4.0610  -16.6393  -52.8201 N.am      20 UNK        -0.5000 
    110 CA        -4.1295  -15.1884  -52.6839 C.3       20 UNK         0.1400 
    111 CB        -2.7339  -14.5721  -52.4653 C.3       20 UNK        -0.1800 
    112 C         -5.1337  -14.8950  -51.5600 C.2       20 UNK         0.5000 
    113 O         -6.3358  -15.0178  -51.7995 O.2       20 UNK        -0.5000 
    114 N         -4.6549  -14.5816  -50.3443 N.am      21 UNK        -0.5000 
    115 CA        -5.4973  -14.2917  -49.1731 C.3       21 UNK         0.1400 
    116 CB        -4.6228  -13.7767  -48.0208 C.3       21 UNK        -0.1800 
    117 C         -6.3513  -15.4881  -48.7062 C.2       21 UNK         0.5000 
    118 O         -7.4117  -15.2864  -48.1138 O.2       21 UNK        -0.5000 
    119 N         -5.8851  -16.7042  -49.0112 N.am      22 UNK        -0.5000 
    120 CA        -6.6192  -17.9658  -48.8450 C.3       22 UNK         0.1400 
    121 C         -7.7436  -18.2162  -49.8976 C.2       22 UNK         0.5000 
    122 N         -7.9081  -17.3899  -50.9255 N.am      22 UNK        -0.7600 
    123 O         -8.4975  -19.1767  -49.7686 O.2       22 UNK        -0.5000 
    124 C124       -5.6485  -19.1692  -48.7241 C.3       23 UNK        -0.0398 
    125 S125       -4.5410  -19.3905  -50.1642 S.3       23 UNK        -0.2404 
    126 C126       -2.9914  -18.6911  -49.5241 C.3       23 UNK        -0.0205 
    127 H127        3.6386  -14.7807  -46.4562 H         1 UNK         0.0600 
    128 H128        3.6789  -16.3726  -47.2232 H         1 UNK         0.0600 
    129 H129        4.7020  -15.0713  -47.8362 H         1 UNK         0.0600 
    130 H130        1.8465  -16.7011  -48.3824 H         1 UNK         0.3000 
    131 H131        0.1423  -16.6140  -49.6713 H         1 UNK         0.0600 
    132 H132        0.0855  -15.0229  -51.7092 H         1 UNK         0.0800 
    133 H133        1.5538  -14.3163  -51.1205 H         1 UNK         0.0800 
    134 H134       -0.1170  -16.7473  -53.2670 H         1 UNK         0.0800 
    135 H135        1.0687  -17.9469  -53.7022 H         1 UNK         0.0800 
    136 H136       -1.6787  -17.1820  -51.3838 H         1 UNK         0.1150 
    137 H137       -1.6185  -21.0315  -49.5132 H         1 UNK         0.1150 
    138 H138        1.4892  -19.9294  -52.2523 H         1 UNK         0.1150 
    139 H139       -0.0326  -22.7181  -50.3274 H         1 UNK         0.0800 
    140 H140        1.0640  -22.3371  -51.6182 H         1 UNK         0.0800 
    141 H141        0.4083  -20.7351  -48.0948 H         1 UNK         0.0800 
    142 H142        1.9878  -20.7638  -47.3935 H         1 UNK         0.0800 
    143 H143        1.7376  -23.2805  -47.0278 H         1 UNK         0.0600 
    144 H144        0.6411  -21.1900  -45.4520 H         1 UNK         0.3000 
    145 H145       -0.1355  -23.2475  -42.5963 H         1 UNK         0.0600 
    146 H146        1.3162  -21.5427  -41.5714 H         1 UNK         0.0600 
    147 H147        2.2925  -22.6208  -42.5553 H         1 UNK         0.0600 
    148 H148        1.8885  -21.0160  -43.1532 H         1 UNK         0.0600 
    149 H149       -0.5466  -20.4824  -42.9857 H         1 UNK         0.3000 
    150 H150       -3.8502  -20.6974  -44.4114 H         1 UNK         0.0600 
    151 H151       -4.0462  -20.9104  -41.9236 H         1 UNK         0.0600 
    152 H152       -4.2957  -19.2553  -42.4576 H         1 UNK         0.0600 
    153 H153       -2.7653  -19.7208  -41.7180 H         1 UNK         0.0600 
    154 H154       -2.3305  -18.4126  -43.8031 H         1 UNK         0.3000 
    155 H155       -0.6661  -18.0713  -46.9907 H         1 UNK         0.0600 
    156 H156       -1.7040  -15.8290  -46.5119 H         1 UNK         0.0600 
    157 H157       -2.7958  -16.5803  -45.3591 H         1 UNK         0.0600 
    158 H158       -2.8924  -17.0012  -47.0592 H         1 UNK         0.0600 
    159 H159       -0.3344  -16.5810  -44.6077 H         1 UNK         0.3000 
    160 H160        2.3226  -18.4708  -43.1394 H         1 UNK         0.0600 
    161 H161        2.1753  -15.7114  -44.4700 H         1 UNK         0.0600 
    162 H162        3.3803  -16.9539  -44.7815 H         1 UNK         0.0600 
    163 H163        3.3131  -16.1825  -43.2067 H         1 UNK         0.0600 
    164 H164        0.8474  -16.1187  -42.3695 H         1 UNK         0.3000 
    165 H165       -1.5764  -17.8211  -40.3651 H         1 UNK         0.0600 
    166 H166        0.8486  -16.0973  -39.6159 H         1 UNK         0.0600 
    167 H167       -0.5958  -16.3432  -38.6338 H         1 UNK         0.0600 
    168 H168        0.4858  -17.6884  -38.9577 H         1 UNK         0.0600 
    169 H169       -1.0500  -15.0518  -40.8217 H         1 UNK         0.3000 
    170 H170       -2.9872  -14.6359  -43.7597 H         1 UNK         0.0600 
    171 H171       -4.7200  -14.6791  -41.9617 H         1 UNK         0.0600 
    172 H172       -3.6344  -13.8215  -40.8745 H         1 UNK         0.0600 
    173 H173       -4.2326  -13.0339  -42.3353 H         1 UNK         0.0600 
    174 H174       -1.6999  -12.7732  -42.0320 H         1 UNK         0.3000 
    175 H175        0.1052  -11.6788  -42.7371 H         1 UNK         0.0600 
    176 H176        2.4424  -12.2682  -42.0729 H         1 UNK         0.0600 
    177 H177        1.3092  -13.3544  -41.2850 H         1 UNK         0.0600 
    178 H178        2.2307  -13.9071  -42.6798 H         1 UNK         0.0600 
    179 H179        0.9720  -12.8988  -45.2014 H         1 UNK         0.3000 
    180 H180        1.7655   -9.7452  -46.5506 H         1 UNK         0.0600 
    181 H181        3.6391  -12.1698  -46.4035 H         1 UNK         0.0600 
    182 H182        4.0728  -10.5125  -46.0024 H         1 UNK         0.0600 
    183 H183        3.6565  -10.9310  -47.6574 H         1 UNK         0.0600 
    184 H184        1.5605  -12.3314  -47.7191 H         1 UNK         0.3000 
    185 H185       -1.7852  -12.8569  -47.6448 H         1 UNK         0.0600 
    186 H186       -2.2861  -12.3428  -50.0411 H         1 UNK         0.0600 
    187 H187       -2.3432  -10.8746  -49.0821 H         1 UNK         0.0600 
    188 H188       -0.9419  -11.2044  -50.0954 H         1 UNK         0.0600 
    189 H189        0.8407  -13.2584  -48.8548 H         1 UNK         0.3000 
    190 H190       -1.6087  -21.9946  -46.7989 H         1 UNK         0.3000 
    191 H191       -2.7749  -23.6299  -48.7852 H         1 UNK         0.0600 
    192 H192       -3.8551  -21.5992  -47.8893 H         1 UNK         0.0600 
    193 H193       -4.9181  -22.9845  -47.6958 H         1 UNK         0.0600 
    194 H194       -4.0371  -22.3555  -46.3080 H         1 UNK         0.0600 
    195 H195       -2.2877  -24.2254  -45.2844 H         1 UNK         0.3000 
    196 H196       -3.5821  -26.7908  -45.2406 H         1 UNK         0.0600 
    197 H197       -2.4460  -26.9974  -43.0251 H         1 UNK         0.0600 
    198 H198       -3.2463  -25.4418  -43.1941 H         1 UNK         0.0600 
    199 H199       -1.4967  -25.5548  -43.3656 H         1 UNK         0.0600 
    200 H200       -0.1657  -25.7674  -45.6709 H         1 UNK         0.3000 
    201 H201        0.9412  -28.3745  -45.6241 H         1 UNK         0.0600 
    202 H202        2.2708  -26.3715  -45.1126 H         1 UNK         0.0600 
    203 H203        2.0559  -25.7574  -46.7522 H         1 UNK         0.0600 
    204 H204        2.9965  -27.2171  -46.4689 H         1 UNK         0.0600 
    205 H205       -0.0469  -26.3193  -48.4175 H         1 UNK         0.3000 
    206 H206        0.0819  -28.6842  -50.1921 H         1 UNK         0.0600 
    207 H207        1.8498  -26.2149  -50.6115 H         1 UNK         0.0600 
    208 H208        2.4105  -27.8493  -50.2599 H         1 UNK         0.0600 
    209 H209        1.6191  -27.5030  -51.7884 H         1 UNK         0.0600 
    210 H210       -0.6697  -25.2010  -49.8799 H         1 UNK         0.3000 
    211 H211       -1.9788  -23.7979  -50.9979 H         1 UNK         0.0600 
    212 H212       -3.7002  -26.2224  -51.7586 H         1 UNK         0.0600 
    213 H213       -4.1741  -24.5281  -51.8687 H         1 UNK         0.0600 
    214 H214       -3.8675  -25.2521  -50.3063 H         1 UNK         0.0600 
    215 H215       -3.2066  -25.4441  -53.6053 H         1 UNK         0.3000 
    216 H216       -2.9228  -25.5460  -55.7710 H         1 UNK         0.0600 
    217 H217       -0.8299  -26.8227  -55.3638 H         1 UNK         0.0600 
    218 H218        0.1056  -25.3297  -55.3616 H         1 UNK         0.0600 
    219 H219       -0.7190  -25.8480  -56.8218 H         1 UNK         0.0600 
    220 H220       -0.6681  -23.0832  -54.5669 H         1 UNK         0.3000 
    221 H221       -1.6390  -21.0088  -56.4656 H         1 UNK         0.0600 
    222 H222        0.4882  -20.9797  -54.2525 H         1 UNK         0.0600 
    223 H223        0.7958  -21.0310  -55.9851 H         1 UNK         0.0600 
    224 H224        0.0737  -19.5999  -55.2668 H         1 UNK         0.0600 
    225 H225       -2.4714  -18.9528  -55.4433 H         1 UNK         0.3000 
    226 H226       -3.5479  -19.1350  -52.7634 H         1 UNK         0.0600 
    227 H227       -5.3289  -20.3386  -54.0410 H         1 UNK         0.0600 
    228 H228       -5.9235  -18.7782  -53.5039 H         1 UNK         0.0600 
    229 H229       -5.4402  -18.9992  -55.1829 H         1 UNK         0.0600 
    230 H230       -4.5161  -17.1592  -52.0830 H         1 UNK         0.3000 
    231 H231       -4.5485  -14.7720  -53.6023 H         1 UNK         0.0600 
    232 H232       -2.8009  -13.4958  -52.3025 H         1 UNK         0.0600 
    233 H233       -2.0927  -14.7248  -53.3332 H         1 UNK         0.0600 
    234 H234       -2.2339  -15.0083  -51.6063 H         1 UNK         0.0600 
    235 H235       -3.6536  -14.5510  -50.1937 H         1 UNK         0.3000 
    236 H236       -6.1887  -13.4942  -49.4532 H         1 UNK         0.0600 
    237 H237       -5.2280  -13.5433  -47.1439 H         1 UNK         0.0600 
    238 H238       -3.8792  -14.5135  -47.7166 H         1 UNK         0.0600 
    239 H239       -4.1037  -12.8623  -48.3037 H         1 UNK         0.0600 
    240 H240       -5.0054  -16.7656  -49.4972 H         1 UNK         0.3000 
    241 H241       -7.1451  -17.9007  -47.8905 H         1 UNK         0.0600 
    242 H242       -7.3259  -16.5703  -51.0551 H         1 UNK         0.3800 
    243 H243       -8.6494  -17.5739  -51.5824 H         1 UNK         0.3800 
    244 H244       -5.0498  -19.0601  -47.8190 H         1 UNK         0.0800 
    245 H245       -6.2066  -20.0961  -48.5817 H         1 UNK         0.0800 
    246 H246       -3.0779  -17.6063  -49.4528 H         1 UNK         0.0800 
    247 H247       -2.8298  -19.0532  -48.5112 H         1 UNK         0.0800 
@<TRIPOS>BOND
     1    1    2 1    
     2    1  127 1    
     3    1  128 1    
     4    1  129 1    
     5    2    3 2    
     6    2    4 am   BACKBONE|DICT|INTERRES
     7    4    5 1    
     8    4  130 1    
     9    5    6 1    
    10    5   65 1    
    11    5  131 1    
    12    6    7 1    
    13    6  132 1    
    14    6  133 1    
    15    7    8 1    
    16    8    9 1    
    17    8  134 1    
    18    8  135 1    
    19    9   10 ar   
    20    9   14 ar   
    21   10   11 ar   
    22   10  136 1    
    23   11   12 ar   
    24   11  126 1    
    25   12   13 ar   
    26   12  137 1    
    27   13   14 ar   
    28   13   15 1    
    29   14  138 1    
    30   15   16 1    
    31   15  139 1    
    32   15  140 1    
    33   16   17 1    
    34   17   18 1    
    35   17  141 1    
    36   17  142 1    
    37   18   19 1    
    38   18   67 1    
    39   18  143 1    
    40   19   20 am   BACKBONE|DICT|INTERRES
    41   19  144 1    
    42   20   21 2    
    43   20   22 1    
    44   22   23 1    
    45   22   24 1    
    46   22  145 1    
    47   23  146 1    
    48   23  147 1    
    49   23  148 1    
    50   24   25 am   BACKBONE|DICT|INTERRES
    51   24  149 1    
    52   25   26 2    
    53   25   27 1    
    54   27   28 1    
    55   27   29 1    
    56   27  150 1    
    57   28  151 1    
    58   28  152 1    
    59   28  153 1    
    60   29   30 am   BACKBONE|DICT|INTERRES
    61   29  154 1    
    62   30   31 2    
    63   30   32 1    
    64   32   33 1    
    65   32   34 1    
    66   32  155 1    
    67   33  156 1    
    68   33  157 1    
    69   33  158 1    
    70   34   35 am   BACKBONE|DICT|INTERRES
    71   34  159 1    
    72   35   36 2    
    73   35   37 1    
    74   37   38 1    
    75   37   39 1    
    76   37  160 1    
    77   38  161 1    
    78   38  162 1    
    79   38  163 1    
    80   39   40 am   BACKBONE|DICT|INTERRES
    81   39  164 1    
    82   40   41 2    
    83   40   42 1    
    84   42   43 1    
    85   42   44 1    
    86   42  165 1    
    87   43  166 1    
    88   43  167 1    
    89   43  168 1    
    90   44   45 am   BACKBONE|DICT|INTERRES
    91   44  169 1    
    92   45   46 2    
    93   45   47 1    
    94   47   48 1    
    95   47   49 1    
    96   47  170 1    
    97   48  171 1    
    98   48  172 1    
    99   48  173 1    
   100   49   50 am   BACKBONE|DICT|INTERRES
   101   49  174 1    
   102   50   51 2    
   103   50   52 1    
   104   52   53 1    
   105   52   54 1    
   106   52  175 1    
   107   53  176 1    
   108   53  177 1    
   109   53  178 1    
   110   54   55 am   BACKBONE|DICT|INTERRES
   111   54  179 1    
   112   55   56 2    
   113   55   57 1    
   114   57   58 1    
   115   57   59 1    
   116   57  180 1    
   117   58  181 1    
   118   58  182 1    
   119   58  183 1    
   120   59   60 am   BACKBONE|DICT|INTERRES
   121   59  184 1    
   122   60   61 2    
   123   60   62 1    
   124   62   63 1    
   125   62   64 1    
   126   62  185 1    
   127   63  186 1    
   128   63  187 1    
   129   63  188 1    
   130   64   65 am   BACKBONE|DICT|INTERRES
   131   64  189 1    
   132   65   66 2    
   133   67   68 2    
   134   67   69 am   BACKBONE|DICT|INTERRES
   135   69   70 1    
   136   69  190 1    
   137   70   71 1    
   138   70   72 1    
   139   70  191 1    
   140   71  192 1    
   141   71  193 1    
   142   71  194 1    
   143   72   73 2    
   144   72   74 am   BACKBONE|DICT|INTERRES
   145   74   75 1    
   146   74  195 1    
   147   75   76 1    
   148   75   77 1    
   149   75  196 1    
   150   76  197 1    
   151   76  198 1    
   152   76  199 1    
   153   77   78 2    
   154   77   79 am   BACKBONE|DICT|INTERRES
   155   79   80 1    
   156   79  200 1    
   157   80   81 1    
   158   80   82 1    
   159   80  201 1    
   160   81  202 1    
   161   81  203 1    
   162   81  204 1    
   163   82   83 2    
   164   82   84 am   BACKBONE|DICT|INTERRES
   165   84   85 1    
   166   84  205 1    
   167   85   86 1    
   168   85   87 1    
   169   85  206 1    
   170   86  207 1    
   171   86  208 1    
   172   86  209 1    
   173   87   88 2    
   174   87   89 am   BACKBONE|DICT|INTERRES
   175   89   90 1    
   176   89  210 1    
   177   90   91 1    
   178   90   92 1    
   179   90  211 1    
   180   91  212 1    
   181   91  213 1    
   182   91  214 1    
   183   92   93 2    
   184   92   94 am   BACKBONE|DICT|INTERRES
   185   94   95 1    
   186   94  215 1    
   187   95   96 1    
   188   95   97 1    
   189   95  216 1    
   190   96  217 1    
   191   96  218 1    
   192   96  219 1    
   193   97   98 2    
   194   97   99 am   BACKBONE|DICT|INTERRES
   195   99  100 1    
   196   99  220 1    
   197  100  101 1    
   198  100  102 1    
   199  100  221 1    
   200  101  222 1    
   201  101  223 1    
   202  101  224 1    
   203  102  103 2    
   204  102  104 am   BACKBONE|DICT|INTERRES
   205  104  105 1    
   206  104  225 1    
   207  105  106 1    
   208  105  107 1    
   209  105  226 1    
   210  106  227 1    
   211  106  228 1    
   212  106  229 1    
   213  107  108 2    
   214  107  109 am   BACKBONE|DICT|INTERRES
   215  109  110 1    
   216  109  230 1    
   217  110  111 1    
   218  110  112 1    
   219  110  231 1    
   220  111  232 1    
   221  111  233 1    
   222  111  234 1    
   223  112  113 2    
   224  112  114 am   BACKBONE|DICT|INTERRES
   225  114  115 1    
   226  114  235 1    
   227  115  116 1    
   228  115  117 1    
   229  115  236 1    
   230  116  237 1    
   231  116  238 1    
   232  116  239 1    
   233  117  118 2    
   234  117  119 am   BACKBONE|DICT|INTERRES
   235  119  120 1    
   236  119  240 1    
   237  120  121 1    
   238  120  124 1    
   239  120  241 1    
   240  121  122 am   BACKBONE|DICT|INTERRES
   241  121  123 2    
   242  122  242 1    
   243  122  243 1    
   244  124  125 1    
   245  124  244 1    
   246  124  245 1    
   247  125  126 1    
   248  126  246 1    
   249  126  247 1    
@<TRIPOS>SUBSTRUCTURE
     1 UNK         1 GROUP             0       ****    0 ROOT    
