@<TRIPOS>MOLECULE
3R540
247   249    1
SMALL
USER_CHARGES


@<TRIPOS>ATOM
      1 CA          4.0083   -9.3369  -48.1913 C.3       0 UNK        -0.1800 
      2 C           3.8449  -10.7808  -47.7400 C.2       0 UNK         0.5000 
      3 O           3.2324  -11.0315  -46.7030 O.2       0 UNK        -0.5000 
      4 N           4.3863  -11.7324  -48.5110 N.am      1 UNK        -0.5000 
      5 CA          4.3602  -13.1748  -48.2389 C.3       1 UNK         0.1400 
      6 C6          2.9306  -13.7774  -48.3799 C.3       23 UNK        -0.0398 
      7 S7          2.9779  -15.4916  -48.9958 S.3       23 UNK        -0.2404 
      8 C8          1.2156  -15.9458  -48.9475 C.3       23 UNK        -0.0205 
      9 C9          0.9227  -17.1336  -49.8566 C.ar      23 UNK        -0.0193 
     10 C10         0.0588  -16.9952  -50.9489 C.ar      23 UNK        -0.1150 
     11 C11        -0.1857  -18.0761  -51.8024 C.ar      23 UNK        -0.0193 
     12 C12         0.4281  -19.3055  -51.5494 C.ar      23 UNK        -0.1150 
     13 C13         1.3018  -19.4565  -50.4699 C.ar      23 UNK        -0.0193 
     14 C14         1.5380  -18.3678  -49.6241 C.ar      23 UNK        -0.1150 
     15 C15         2.0274  -20.7812  -50.2626 C.3       23 UNK        -0.0205 
     16 S16         1.8884  -21.4203  -48.5652 S.3       23 UNK        -0.2404 
     17 C17         0.0820  -21.5577  -48.3945 C.3       23 UNK        -0.0398 
     18 CA         -0.3131  -22.6197  -47.3477 C.3       11 UNK         0.1400 
     19 N           0.1890  -22.2869  -46.0141 N.am      11 UNK        -0.5000 
     20 C           0.2627  -23.1228  -44.9727 C.2       10 UNK         0.5000 
     21 O          -0.1323  -24.2877  -45.0210 O.2       10 UNK        -0.5000 
     22 CA          0.8057  -22.5485  -43.6463 C.3       10 UNK         0.1400 
     23 CB          1.7419  -23.5339  -42.9191 C.3       10 UNK        -0.1800 
     24 N           1.4135  -21.2180  -43.7850 N.am      10 UNK        -0.5000 
     25 C           2.5491  -20.8756  -44.4151 C.2       9 UNK         0.5000 
     26 O           3.3349  -21.6846  -44.9073 O.2       9 UNK        -0.5000 
     27 CA          2.8395  -19.3659  -44.5555 C.3       9 UNK         0.1400 
     28 CB          2.6373  -18.9146  -46.0111 C.3       9 UNK        -0.1800 
     29 N           1.9902  -18.5378  -43.6989 N.am      9 UNK        -0.5000 
     30 C           2.1858  -18.3363  -42.3890 C.2       8 UNK         0.5000 
     31 O           3.1465  -18.7802  -41.7606 O.2       8 UNK        -0.5000 
     32 CA          1.1029  -17.5216  -41.6581 C.3       8 UNK         0.1400 
     33 CB          1.4342  -16.0227  -41.7038 C.3       8 UNK        -0.1800 
     34 N          -0.2331  -17.7410  -42.2186 N.am      8 UNK        -0.5000 
     35 C          -0.9262  -18.8839  -42.1022 C.2       7 UNK         0.5000 
     36 O          -0.5277  -19.8654  -41.4764 O.2       7 UNK        -0.5000 
     37 CA         -2.2623  -18.9656  -42.8616 C.3       7 UNK         0.1400 
     38 CB         -3.4100  -18.4042  -42.0102 C.3       7 UNK        -0.1800 
     39 N          -2.2199  -18.2603  -44.1429 N.am      7 UNK        -0.5000 
     40 C          -1.4870  -18.6400  -45.1988 C.2       6 UNK         0.5000 
     41 O          -0.8353  -19.6832  -45.2328 O.2       6 UNK        -0.5000 
     42 CA         -1.4605  -17.6961  -46.4136 C.3       6 UNK         0.1400 
     43 CB         -2.4035  -18.2117  -47.5049 C.3       6 UNK        -0.1800 
     44 N          -1.8228  -16.3187  -46.0743 N.am      6 UNK        -0.5000 
     45 C          -1.0305  -15.4685  -45.4117 C.2       5 UNK         0.5000 
     46 O           0.1282  -15.7240  -45.0728 O.2       5 UNK        -0.5000 
     47 CA         -1.6693  -14.1383  -45.0026 C.3       5 UNK         0.1400 
     48 CB         -2.2743  -14.2480  -43.5906 C.3       5 UNK        -0.1800 
     49 N          -0.6568  -13.0920  -45.0319 N.am      5 UNK        -0.5000 
     50 C          -0.9071  -11.7823  -45.1436 C.2       4 UNK         0.5000 
     51 O          -2.0453  -11.3190  -45.2405 O.2       4 UNK        -0.5000 
     52 CA          0.3111  -10.8340  -45.1771 C.3       4 UNK         0.1400 
     53 CB         -0.0190   -9.4175  -44.6610 C.3       4 UNK        -0.1800 
     54 N           1.5129  -11.3591  -44.5149 N.am      4 UNK        -0.5000 
     55 C           1.6590  -11.6651  -43.2174 C.2       3 UNK         0.5000 
     56 O           0.7433  -11.6075  -42.3952 O.2       3 UNK        -0.5000 
     57 CA          3.0589  -12.1357  -42.7835 C.3       3 UNK         0.1400 
     58 CB          3.1024  -12.5828  -41.3051 C.3       3 UNK        -0.1800 
     59 N           3.5261  -13.2016  -43.6725 N.am      3 UNK        -0.5000 
     60 C           4.7894  -13.6392  -43.7599 C.2       2 UNK         0.5000 
     61 O           5.7240  -13.1866  -43.0977 O.2       2 UNK        -0.5000 
     62 CA          5.0556  -14.7655  -44.7762 C.3       2 UNK         0.1400 
     63 CB          4.4387  -16.0904  -44.3064 C.3       2 UNK        -0.1800 
     64 N           4.5492  -14.4373  -46.1092 N.am      2 UNK        -0.5000 
     65 C           5.0869  -13.5056  -46.9091 C.2       1 UNK         0.5000 
     66 O           6.1318  -12.9084  -46.6365 O.2       1 UNK        -0.5000 
     67 C          -1.8369  -22.8261  -47.3454 C.2       11 UNK         0.5000 
     68 O          -2.3411  -23.5965  -48.1626 O.2       11 UNK        -0.5000 
     69 N          -2.5429  -22.1526  -46.4261 N.am      12 UNK        -0.5000 
     70 CA         -3.9732  -22.3498  -46.1904 C.3       12 UNK         0.1400 
     71 CB         -4.5116  -21.2013  -45.3250 C.3       12 UNK        -0.1800 
     72 C          -4.2637  -23.7153  -45.5394 C.2       12 UNK         0.5000 
     73 O          -5.2303  -24.3751  -45.9192 O.2       12 UNK        -0.5000 
     74 N          -3.3983  -24.1296  -44.6020 N.am      13 UNK        -0.5000 
     75 CA         -3.4682  -25.4213  -43.9146 C.3       13 UNK         0.1400 
     76 CB         -2.5788  -25.3838  -42.6620 C.3       13 UNK        -0.1800 
     77 C          -3.0755  -26.5921  -44.8339 C.2       13 UNK         0.5000 
     78 O          -3.7070  -27.6476  -44.7810 O.2       13 UNK        -0.5000 
     79 N          -2.0657  -26.3690  -45.6868 N.am      14 UNK        -0.5000 
     80 CA         -1.6070  -27.3070  -46.7151 C.3       14 UNK         0.1400 
     81 CB         -0.2157  -26.8648  -47.1954 C.3       14 UNK        -0.1800 
     82 C          -2.5686  -27.4316  -47.9165 C.2       14 UNK         0.5000 
     83 O          -2.3880  -28.3326  -48.7355 O.2       14 UNK        -0.5000 
     84 N          -3.5433  -26.5145  -48.0145 N.am      15 UNK        -0.5000 
     85 CA         -4.5502  -26.3602  -49.0716 C.3       15 UNK         0.1400 
     86 CB         -5.4109  -27.6297  -49.2319 C.3       15 UNK        -0.1800 
     87 C          -3.9821  -25.8602  -50.4161 C.2       15 UNK         0.5000 
     88 O          -4.7189  -25.7916  -51.4009 O.2       15 UNK        -0.5000 
     89 N          -2.7120  -25.4369  -50.4334 N.am      16 UNK        -0.5000 
     90 CA         -2.0593  -24.7896  -51.5713 C.3       16 UNK         0.1400 
     91 CB         -0.5647  -24.6086  -51.2656 C.3       16 UNK        -0.1800 
     92 C          -2.7191  -23.4424  -51.9132 C.2       16 UNK         0.5000 
     93 O          -2.9561  -23.1588  -53.0858 O.2       16 UNK        -0.5000 
     94 N          -3.0776  -22.6803  -50.8718 N.am      17 UNK        -0.5000 
     95 CA         -3.8088  -21.4160  -50.9762 C.3       17 UNK         0.1400 
     96 CB         -3.3559  -20.4842  -49.8463 C.3       17 UNK        -0.1800 
     97 C          -5.3410  -21.5968  -50.9832 C.2       17 UNK         0.5000 
     98 O          -6.0638  -20.6007  -50.9543 O.2       17 UNK        -0.5000 
     99 N          -5.8160  -22.8494  -51.0166 N.am      18 UNK        -0.5000 
    100 CA        -7.1982  -23.1888  -51.3539 C.3       18 UNK         0.1400 
    101 CB        -7.6865  -24.3515  -50.4753 C.3       18 UNK        -0.1800 
    102 C         -7.2936  -23.5384  -52.8498 C.2       18 UNK         0.5000 
    103 O         -8.2654  -23.1523  -53.4999 O.2       18 UNK        -0.5000 
    104 N         -6.2770  -24.2431  -53.3728 N.am      19 UNK        -0.5000 
    105 CA        -6.1138  -24.5538  -54.7921 C.3       19 UNK         0.1400 
    106 CB        -5.0080  -25.6083  -54.9590 C.3       19 UNK        -0.1800 
    107 C         -5.8188  -23.2970  -55.6328 C.2       19 UNK         0.5000 
    108 O         -6.5079  -23.0552  -56.6251 O.2       19 UNK        -0.5000 
    109 N         -4.8186  -22.5104  -55.2129 N.am      20 UNK        -0.5000 
    110 CA        -4.5118  -21.1965  -55.7776 C.3       20 UNK         0.1400 
    111 CB        -3.0585  -20.8293  -55.4389 C.3       20 UNK        -0.1800 
    112 C         -5.4776  -20.1309  -55.2295 C.2       20 UNK         0.5000 
    113 O         -5.9464  -20.2548  -54.0973 O.2       20 UNK        -0.5000 
    114 N         -5.7466  -19.0936  -56.0325 N.am      21 UNK        -0.5000 
    115 CA        -6.6074  -17.9711  -55.6481 C.3       21 UNK         0.1400 
    116 CB        -7.0677  -17.2279  -56.9121 C.3       21 UNK        -0.1800 
    117 C         -5.9157  -17.0017  -54.6705 C.2       21 UNK         0.5000 
    118 O         -6.5667  -16.4919  -53.7581 O.2       21 UNK        -0.5000 
    119 N         -4.6136  -16.7695  -54.8900 N.am      22 UNK        -0.5000 
    120 CA        -3.7234  -15.9098  -54.0845 C.3       22 UNK         0.1400 
    121 C         -4.0896  -14.3925  -54.0769 C.2       22 UNK         0.5000 
    122 N         -4.8835  -13.8998  -55.0199 N.am      22 UNK        -0.7600 
    123 O         -3.6222  -13.6380  -53.2280 O.2       22 UNK        -0.5000 
    124 C124       -3.4547  -16.4693  -52.6562 C.3       23 UNK        -0.0398 
    125 S125       -2.8211  -18.1802  -52.6787 S.3       23 UNK        -0.2404 
    126 C126       -1.0588  -17.9107  -53.0366 C.3       23 UNK        -0.0205 
    127 H127        3.0307   -8.8762  -48.3326 H         1 UNK         0.0600 
    128 H128        4.5486   -8.7678  -47.4349 H         1 UNK         0.0600 
    129 H129        4.5582   -9.2648  -49.1299 H         1 UNK         0.0600 
    130 H130        4.9069  -11.4591  -49.3326 H         1 UNK         0.3000 
    131 H131        4.9861  -13.6055  -49.0221 H         1 UNK         0.0600 
    132 H132        2.3633  -13.2041  -49.1147 H         1 UNK         0.0800 
    133 H133        2.3557  -13.7097  -47.4547 H         1 UNK         0.0800 
    134 H134        0.6104  -15.0862  -49.2395 H         1 UNK         0.0800 
    135 H135        0.9386  -16.1882  -47.9216 H         1 UNK         0.0800 
    136 H136       -0.4076  -16.0412  -51.1495 H         1 UNK         0.1150 
    137 H137        0.2483  -20.1374  -52.2160 H         1 UNK         0.1150 
    138 H138        2.2251  -18.4727  -48.7972 H         1 UNK         0.1150 
    139 H139        1.6569  -21.5409  -50.9528 H         1 UNK         0.0800 
    140 H140        3.0830  -20.6407  -50.4980 H         1 UNK         0.0800 
    141 H141       -0.3091  -20.5764  -48.1234 H         1 UNK         0.0800 
    142 H142       -0.3404  -21.8031  -49.3706 H         1 UNK         0.0800 
    143 H143        0.1366  -23.5686  -47.6451 H         1 UNK         0.0600 
    144 H144        0.4515  -21.3218  -45.8630 H         1 UNK         0.3000 
    145 H145       -0.0682  -22.4036  -43.0099 H         1 UNK         0.0600 
    146 H146        2.1152  -23.1086  -41.9875 H         1 UNK         0.0600 
    147 H147        1.2162  -24.4555  -42.6666 H         1 UNK         0.0600 
    148 H148        2.5999  -23.8097  -43.5323 H         1 UNK         0.0600 
    149 H149        0.8475  -20.4596  -43.4302 H         1 UNK         0.3000 
    150 H150        3.8844  -19.2016  -44.2845 H         1 UNK         0.0600 
    151 H151        2.8054  -17.8445  -46.1303 H         1 UNK         0.0600 
    152 H152        1.6293  -19.1325  -46.3643 H         1 UNK         0.0600 
    153 H153        3.3344  -19.4268  -46.6751 H         1 UNK         0.0600 
    154 H154        1.1833  -18.1151  -44.1344 H         1 UNK         0.3000 
    155 H155        1.0949  -17.8389  -40.6131 H         1 UNK         0.0600 
    156 H156        0.7175  -15.4416  -41.1234 H         1 UNK         0.0600 
    157 H157        1.4319  -15.6353  -42.7226 H         1 UNK         0.0600 
    158 H158        2.4233  -15.8334  -41.2848 H         1 UNK         0.0600 
    159 H159       -0.6201  -16.9907  -42.7710 H         1 UNK         0.3000 
    160 H160       -2.4635  -20.0205  -43.0561 H         1 UNK         0.0600 
    161 H161       -3.2751  -17.3427  -41.7988 H         1 UNK         0.0600 
    162 H162       -3.4767  -18.9241  -41.0536 H         1 UNK         0.0600 
    163 H163       -4.3694  -18.5278  -42.5131 H         1 UNK         0.0600 
    164 H164       -2.7547  -17.4080  -44.2105 H         1 UNK         0.3000 
    165 H165       -0.4432  -17.7114  -46.8079 H         1 UNK         0.0600 
    166 H166       -3.4506  -18.1355  -47.2099 H         1 UNK         0.0600 
    167 H167       -2.2708  -17.6603  -48.4363 H         1 UNK         0.0600 
    168 H168       -2.2005  -19.2598  -47.7149 H         1 UNK         0.0600 
    169 H169       -2.7575  -16.0275  -46.3237 H         1 UNK         0.3000 
    170 H170       -2.4568  -13.8955  -45.7194 H         1 UNK         0.0600 
    171 H171       -3.0235  -15.0388  -43.5411 H         1 UNK         0.0600 
    172 H172       -1.5102  -14.4674  -42.8434 H         1 UNK         0.0600 
    173 H173       -2.7667  -13.3207  -43.2976 H         1 UNK         0.0600 
    174 H174        0.2971  -13.4203  -44.9810 H         1 UNK         0.3000 
    175 H175        0.5715  -10.7376  -46.2318 H         1 UNK         0.0600 
    176 H176        0.8516   -8.7643  -44.7218 H         1 UNK         0.0600 
    177 H177       -0.8087   -8.9563  -45.2551 H         1 UNK         0.0600 
    178 H178       -0.3566   -9.4326  -43.6244 H         1 UNK         0.0600 
    179 H179        2.3260  -11.4061  -45.1270 H         1 UNK         0.3000 
    180 H180        3.7246  -11.2782  -42.9005 H         1 UNK         0.0600 
    181 H181        4.1050  -12.8751  -40.9952 H         1 UNK         0.0600 
    182 H182        2.7915  -11.7722  -40.6449 H         1 UNK         0.0600 
    183 H183        2.4363  -13.4246  -41.1219 H         1 UNK         0.0600 
    184 H184        2.8254  -13.6189  -44.2667 H         1 UNK         0.3000 
    185 H185        6.1369  -14.9059  -44.8413 H         1 UNK         0.0600 
    186 H186        4.7590  -16.9139  -44.9440 H         1 UNK         0.0600 
    187 H187        4.7476  -16.3314  -43.2883 H         1 UNK         0.0600 
    188 H188        3.3492  -16.0565  -44.3211 H         1 UNK         0.0600 
    189 H189        3.7228  -14.9282  -46.4175 H         1 UNK         0.3000 
    190 H190       -2.0519  -21.5101  -45.8175 H         1 UNK         0.3000 
    191 H191       -4.4910  -22.3231  -47.1515 H         1 UNK         0.0600 
    192 H192       -5.5894  -21.2928  -45.1855 H         1 UNK         0.0600 
    193 H193       -4.0544  -21.1924  -44.3359 H         1 UNK         0.0600 
    194 H194       -4.3259  -20.2337  -45.7913 H         1 UNK         0.0600 
    195 H195       -2.6099  -23.5426  -44.3782 H         1 UNK         0.3000 
    196 H196       -4.4993  -25.5820  -43.5924 H         1 UNK         0.0600 
    197 H197       -2.6442  -26.3229  -42.1112 H         1 UNK         0.0600 
    198 H198       -2.8866  -24.5881  -41.9834 H         1 UNK         0.0600 
    199 H199       -1.5296  -25.2247  -42.9116 H         1 UNK         0.0600 
    200 H200       -1.5377  -25.5058  -45.5959 H         1 UNK         0.3000 
    201 H201       -1.5160  -28.2965  -46.2627 H         1 UNK         0.0600 
    202 H202        0.4863  -26.7938  -46.3642 H         1 UNK         0.0600 
    203 H203       -0.2527  -25.8930  -47.6873 H         1 UNK         0.0600 
    204 H204        0.1982  -27.5778  -47.9095 H         1 UNK         0.0600 
    205 H205       -3.5748  -25.8063  -47.2940 H         1 UNK         0.3000 
    206 H206       -5.2113  -25.5655  -48.7228 H         1 UNK         0.0600 
    207 H207       -5.8098  -27.9589  -48.2725 H         1 UNK         0.0600 
    208 H208       -6.2612  -27.4460  -49.8892 H         1 UNK         0.0600 
    209 H209       -4.8446  -28.4552  -49.6631 H         1 UNK         0.0600 
    210 H210       -2.2067  -25.4401  -49.5586 H         1 UNK         0.3000 
    211 H211       -2.1592  -25.4431  -52.4404 H         1 UNK         0.0600 
    212 H212       -0.4038  -24.0099  -50.3692 H         1 UNK         0.0600 
    213 H213       -0.0538  -24.1106  -52.0908 H         1 UNK         0.0600 
    214 H214       -0.0762  -25.5714  -51.1145 H         1 UNK         0.0600 
    215 H215       -2.8791  -23.0187  -49.9345 H         1 UNK         0.3000 
    216 H216       -3.5521  -20.9365  -51.9221 H         1 UNK         0.0600 
    217 H217       -3.8349  -19.5077  -49.9271 H         1 UNK         0.0600 
    218 H218       -2.2805  -20.3140  -49.8905 H         1 UNK         0.0600 
    219 H219       -3.6038  -20.8902  -48.8671 H         1 UNK         0.0600 
    220 H220       -5.1512  -23.6089  -51.0327 H         1 UNK         0.3000 
    221 H221       -7.8538  -22.3359  -51.1657 H         1 UNK         0.0600 
    222 H222       -7.1602  -25.2799  -50.6910 H         1 UNK         0.0600 
    223 H223       -7.5573  -24.1286  -49.4161 H         1 UNK         0.0600 
    224 H224       -8.7480  -24.5381  -50.6415 H         1 UNK         0.0600 
    225 H225       -5.5635  -24.6091  -52.7527 H         1 UNK         0.3000 
    226 H226       -7.0493  -24.9863  -55.1529 H         1 UNK         0.0600 
    227 H227       -4.8725  -25.8690  -56.0093 H         1 UNK         0.0600 
    228 H228       -4.0485  -25.2538  -54.5812 H         1 UNK         0.0600 
    229 H229       -5.2564  -26.5256  -54.4248 H         1 UNK         0.0600 
    230 H230       -4.2921  -22.7736  -54.3841 H         1 UNK         0.3000 
    231 H231       -4.6128  -21.2431  -56.8640 H         1 UNK         0.0600 
    232 H232       -2.7834  -19.8684  -55.8750 H         1 UNK         0.0600 
    233 H233       -2.3628  -21.5747  -55.8243 H         1 UNK         0.0600 
    234 H234       -2.9035  -20.7547  -54.3623 H         1 UNK         0.0600 
    235 H235       -5.3352  -19.0590  -56.9541 H         1 UNK         0.3000 
    236 H236       -7.4952  -18.3676  -55.1503 H         1 UNK         0.0600 
    237 H237       -6.2252  -16.8235  -57.4744 H         1 UNK         0.0600 
    238 H238       -7.6275  -17.8882  -57.5748 H         1 UNK         0.0600 
    239 H239       -7.7233  -16.3942  -56.6571 H         1 UNK         0.0600 
    240 H240       -4.1753  -17.2383  -55.6683 H         1 UNK         0.3000 
    241 H241       -2.7705  -15.9336  -54.6131 H         1 UNK         0.0600 
    242 H242       -5.1072  -12.9169  -55.0163 H         1 UNK         0.3800 
    243 H243       -5.2684  -14.4992  -55.7320 H         1 UNK         0.3800 
    244 H244       -4.3712  -16.4525  -52.0652 H         1 UNK         0.0800 
    245 H245       -2.7378  -15.8473  -52.1183 H         1 UNK         0.0800 
    246 H246       -0.7539  -18.6248  -53.8031 H         1 UNK         0.0800 
    247 H247       -0.8992  -16.9243  -53.4732 H         1 UNK         0.0800 
@<TRIPOS>BOND
     1    1    2 1    
     2    1  127 1    
     3    1  128 1    
     4    1  129 1    
     5    2    3 2    
     6    2    4 am   BACKBONE|DICT|INTERRES
     7    4    5 1    
     8    4  130 1    
     9    5    6 1    
    10    5   65 1    
    11    5  131 1    
    12    6    7 1    
    13    6  132 1    
    14    6  133 1    
    15    7    8 1    
    16    8    9 1    
    17    8  134 1    
    18    8  135 1    
    19    9   10 ar   
    20    9   14 ar   
    21   10   11 ar   
    22   10  136 1    
    23   11   12 ar   
    24   11  126 1    
    25   12   13 ar   
    26   12  137 1    
    27   13   14 ar   
    28   13   15 1    
    29   14  138 1    
    30   15   16 1    
    31   15  139 1    
    32   15  140 1    
    33   16   17 1    
    34   17   18 1    
    35   17  141 1    
    36   17  142 1    
    37   18   19 1    
    38   18   67 1    
    39   18  143 1    
    40   19   20 am   BACKBONE|DICT|INTERRES
    41   19  144 1    
    42   20   21 2    
    43   20   22 1    
    44   22   23 1    
    45   22   24 1    
    46   22  145 1    
    47   23  146 1    
    48   23  147 1    
    49   23  148 1    
    50   24   25 am   BACKBONE|DICT|INTERRES
    51   24  149 1    
    52   25   26 2    
    53   25   27 1    
    54   27   28 1    
    55   27   29 1    
    56   27  150 1    
    57   28  151 1    
    58   28  152 1    
    59   28  153 1    
    60   29   30 am   BACKBONE|DICT|INTERRES
    61   29  154 1    
    62   30   31 2    
    63   30   32 1    
    64   32   33 1    
    65   32   34 1    
    66   32  155 1    
    67   33  156 1    
    68   33  157 1    
    69   33  158 1    
    70   34   35 am   BACKBONE|DICT|INTERRES
    71   34  159 1    
    72   35   36 2    
    73   35   37 1    
    74   37   38 1    
    75   37   39 1    
    76   37  160 1    
    77   38  161 1    
    78   38  162 1    
    79   38  163 1    
    80   39   40 am   BACKBONE|DICT|INTERRES
    81   39  164 1    
    82   40   41 2    
    83   40   42 1    
    84   42   43 1    
    85   42   44 1    
    86   42  165 1    
    87   43  166 1    
    88   43  167 1    
    89   43  168 1    
    90   44   45 am   BACKBONE|DICT|INTERRES
    91   44  169 1    
    92   45   46 2    
    93   45   47 1    
    94   47   48 1    
    95   47   49 1    
    96   47  170 1    
    97   48  171 1    
    98   48  172 1    
    99   48  173 1    
   100   49   50 am   BACKBONE|DICT|INTERRES
   101   49  174 1    
   102   50   51 2    
   103   50   52 1    
   104   52   53 1    
   105   52   54 1    
   106   52  175 1    
   107   53  176 1    
   108   53  177 1    
   109   53  178 1    
   110   54   55 am   BACKBONE|DICT|INTERRES
   111   54  179 1    
   112   55   56 2    
   113   55   57 1    
   114   57   58 1    
   115   57   59 1    
   116   57  180 1    
   117   58  181 1    
   118   58  182 1    
   119   58  183 1    
   120   59   60 am   BACKBONE|DICT|INTERRES
   121   59  184 1    
   122   60   61 2    
   123   60   62 1    
   124   62   63 1    
   125   62   64 1    
   126   62  185 1    
   127   63  186 1    
   128   63  187 1    
   129   63  188 1    
   130   64   65 am   BACKBONE|DICT|INTERRES
   131   64  189 1    
   132   65   66 2    
   133   67   68 2    
   134   67   69 am   BACKBONE|DICT|INTERRES
   135   69   70 1    
   136   69  190 1    
   137   70   71 1    
   138   70   72 1    
   139   70  191 1    
   140   71  192 1    
   141   71  193 1    
   142   71  194 1    
   143   72   73 2    
   144   72   74 am   BACKBONE|DICT|INTERRES
   145   74   75 1    
   146   74  195 1    
   147   75   76 1    
   148   75   77 1    
   149   75  196 1    
   150   76  197 1    
   151   76  198 1    
   152   76  199 1    
   153   77   78 2    
   154   77   79 am   BACKBONE|DICT|INTERRES
   155   79   80 1    
   156   79  200 1    
   157   80   81 1    
   158   80   82 1    
   159   80  201 1    
   160   81  202 1    
   161   81  203 1    
   162   81  204 1    
   163   82   83 2    
   164   82   84 am   BACKBONE|DICT|INTERRES
   165   84   85 1    
   166   84  205 1    
   167   85   86 1    
   168   85   87 1    
   169   85  206 1    
   170   86  207 1    
   171   86  208 1    
   172   86  209 1    
   173   87   88 2    
   174   87   89 am   BACKBONE|DICT|INTERRES
   175   89   90 1    
   176   89  210 1    
   177   90   91 1    
   178   90   92 1    
   179   90  211 1    
   180   91  212 1    
   181   91  213 1    
   182   91  214 1    
   183   92   93 2    
   184   92   94 am   BACKBONE|DICT|INTERRES
   185   94   95 1    
   186   94  215 1    
   187   95   96 1    
   188   95   97 1    
   189   95  216 1    
   190   96  217 1    
   191   96  218 1    
   192   96  219 1    
   193   97   98 2    
   194   97   99 am   BACKBONE|DICT|INTERRES
   195   99  100 1    
   196   99  220 1    
   197  100  101 1    
   198  100  102 1    
   199  100  221 1    
   200  101  222 1    
   201  101  223 1    
   202  101  224 1    
   203  102  103 2    
   204  102  104 am   BACKBONE|DICT|INTERRES
   205  104  105 1    
   206  104  225 1    
   207  105  106 1    
   208  105  107 1    
   209  105  226 1    
   210  106  227 1    
   211  106  228 1    
   212  106  229 1    
   213  107  108 2    
   214  107  109 am   BACKBONE|DICT|INTERRES
   215  109  110 1    
   216  109  230 1    
   217  110  111 1    
   218  110  112 1    
   219  110  231 1    
   220  111  232 1    
   221  111  233 1    
   222  111  234 1    
   223  112  113 2    
   224  112  114 am   BACKBONE|DICT|INTERRES
   225  114  115 1    
   226  114  235 1    
   227  115  116 1    
   228  115  117 1    
   229  115  236 1    
   230  116  237 1    
   231  116  238 1    
   232  116  239 1    
   233  117  118 2    
   234  117  119 am   BACKBONE|DICT|INTERRES
   235  119  120 1    
   236  119  240 1    
   237  120  121 1    
   238  120  124 1    
   239  120  241 1    
   240  121  122 am   BACKBONE|DICT|INTERRES
   241  121  123 2    
   242  122  242 1    
   243  122  243 1    
   244  124  125 1    
   245  124  244 1    
   246  124  245 1    
   247  125  126 1    
   248  126  246 1    
   249  126  247 1    
@<TRIPOS>SUBSTRUCTURE
     1 UNK         1 GROUP             0       ****    0 ROOT    
