@<TRIPOS>MOLECULE
3R540
247   249    1
SMALL
USER_CHARGES


@<TRIPOS>ATOM
      1 CA          2.8105  -17.3058  -50.5482 C.3       0 UNK        -0.1800 
      2 C           2.4450  -17.2195  -49.0740 C.2       0 UNK         0.5000 
      3 O           3.1655  -17.7586  -48.2353 O.2       0 UNK        -0.5000 
      4 N           1.3331  -16.5441  -48.7583 N.am      1 UNK        -0.5000 
      5 CA          0.8817  -16.2382  -47.3968 C.3       1 UNK         0.1400 
      6 C6         -0.5364  -15.6161  -47.3958 C.3       23 UNK        -0.0398 
      7 S7         -1.8344  -16.8862  -47.5458 S.3       23 UNK        -0.2404 
      8 C8         -2.5120  -16.5882  -49.2059 C.3       23 UNK        -0.0205 
      9 C9         -1.6140  -17.1233  -50.3109 C.ar      23 UNK        -0.0193 
     10 C10        -1.0817  -16.2569  -51.2677 C.ar      23 UNK        -0.1150 
     11 C11        -0.3179  -16.7519  -52.3287 C.ar      23 UNK        -0.0193 
     12 C12        -0.0766  -18.1262  -52.4216 C.ar      23 UNK        -0.1150 
     13 C13        -0.5925  -19.0026  -51.4621 C.ar      23 UNK        -0.0193 
     14 C14        -1.3559  -18.4934  -50.4077 C.ar      23 UNK        -0.1150 
     15 C15        -0.3727  -20.5023  -51.5960 C.3       23 UNK        -0.0205 
     16 S16         1.3092  -21.0302  -51.1506 S.3       23 UNK        -0.2404 
     17 C17         1.3325  -20.7864  -49.3443 C.3       23 UNK        -0.0398 
     18 CA          0.8424  -22.0321  -48.5499 C.3       11 UNK         0.1400 
     19 N           1.7690  -22.3865  -47.4693 N.am      11 UNK        -0.5000 
     20 C           1.6759  -23.4711  -46.6842 C.2       10 UNK         0.5000 
     21 O           0.8164  -24.3406  -46.8150 O.2       10 UNK        -0.5000 
     22 CA          2.6850  -23.5681  -45.5229 C.3       10 UNK         0.1400 
     23 CB          3.9478  -24.3206  -45.9670 C.3       10 UNK        -0.1800 
     24 N           3.0623  -22.2549  -44.9921 N.am      10 UNK        -0.5000 
     25 C           2.2147  -21.4079  -44.3932 C.2       9 UNK         0.5000 
     26 O           1.0276  -21.6641  -44.1775 O.2       9 UNK        -0.5000 
     27 CA          2.7645  -20.0027  -44.1055 C.3       9 UNK         0.1400 
     28 CB          2.4443  -19.0874  -45.2926 C.3       9 UNK        -0.1800 
     29 N           2.2004  -19.4241  -42.8889 N.am      9 UNK        -0.5000 
     30 C           2.5837  -19.7650  -41.6503 C.2       8 UNK         0.5000 
     31 O           3.4841  -20.5736  -41.4182 O.2       8 UNK        -0.5000 
     32 CA          1.8637  -19.0886  -40.4649 C.3       8 UNK         0.1400 
     33 CB          2.7333  -17.9654  -39.8790 C.3       8 UNK        -0.1800 
     34 N           0.5494  -18.5459  -40.8112 N.am      8 UNK        -0.5000 
     35 C          -0.5240  -19.2958  -41.0992 C.2       7 UNK         0.5000 
     36 O          -0.5299  -20.5246  -41.0210 O.2       7 UNK        -0.5000 
     37 CA         -1.8125  -18.5754  -41.5467 C.3       7 UNK         0.1400 
     38 CB         -2.8531  -18.5959  -40.4161 C.3       7 UNK        -0.1800 
     39 N          -1.6476  -17.1914  -41.9969 N.am      7 UNK        -0.5000 
     40 C          -0.8706  -16.7483  -42.9951 C.2       6 UNK         0.5000 
     41 O          -0.0975  -17.4458  -43.6538 O.2       6 UNK        -0.5000 
     42 CA         -0.9355  -15.2366  -43.2641 C.3       6 UNK         0.1400 
     43 CB         -2.2713  -14.8763  -43.9342 C.3       6 UNK        -0.1800 
     44 N          -0.7252  -14.3597  -42.1062 N.am      6 UNK        -0.5000 
     45 C           0.0819  -14.5315  -41.0448 C.2       5 UNK         0.5000 
     46 O           0.6686  -15.5811  -40.7794 O.2       5 UNK        -0.5000 
     47 CA          0.2791  -13.3009  -40.1383 C.3       5 UNK         0.1400 
     48 CB          1.5834  -13.3803  -39.3240 C.3       5 UNK        -0.1800 
     49 N           0.3054  -12.0792  -40.9428 N.am      5 UNK        -0.5000 
     50 C          -0.6764  -11.1717  -41.0189 C.2       4 UNK         0.5000 
     51 O          -1.7239  -11.2479  -40.3765 O.2       4 UNK        -0.5000 
     52 CA         -0.4717   -9.9859  -41.9846 C.3       4 UNK         0.1400 
     53 CB         -0.0982   -8.7169  -41.2027 C.3       4 UNK        -0.1800 
     54 N           0.5473  -10.2232  -43.0103 N.am      4 UNK        -0.5000 
     55 C           0.4307  -11.0805  -44.0335 C.2       3 UNK         0.5000 
     56 O          -0.5735  -11.7651  -44.2335 O.2       3 UNK        -0.5000 
     57 CA          1.6361  -11.2142  -44.9903 C.3       3 UNK         0.1400 
     58 CB          2.8151  -10.2699  -44.6625 C.3       3 UNK        -0.1800 
     59 N           2.1142  -12.5965  -45.0854 N.am      3 UNK        -0.5000 
     60 C           2.5015  -13.3985  -44.0844 C.2       2 UNK         0.5000 
     61 O           2.4852  -13.0593  -42.8992 O.2       2 UNK        -0.5000 
     62 CA          2.9904  -14.8111  -44.4850 C.3       2 UNK         0.1400 
     63 CB          3.2926  -15.7033  -43.2667 C.3       2 UNK        -0.1800 
     64 N           2.0624  -15.5298  -45.3659 N.am      2 UNK        -0.5000 
     65 C           1.8802  -15.3079  -46.6745 C.2       1 UNK         0.5000 
     66 O           2.4319  -14.3952  -47.2947 O.2       1 UNK        -0.5000 
     67 C          -0.5903  -21.8216  -48.0146 C.2       11 UNK         0.5000 
     68 O          -1.5486  -22.3326  -48.5956 O.2       11 UNK        -0.5000 
     69 N          -0.6967  -21.0984  -46.8907 N.am      12 UNK        -0.5000 
     70 CA         -1.9496  -20.8209  -46.1932 C.3       12 UNK         0.1400 
     71 CB         -1.7220  -19.7133  -45.1595 C.3       12 UNK        -0.1800 
     72 C          -2.5173  -22.0757  -45.5144 C.2       12 UNK         0.5000 
     73 O          -3.7140  -22.3377  -45.6360 O.2       12 UNK        -0.5000 
     74 N          -1.6420  -22.8503  -44.8550 N.am      13 UNK        -0.5000 
     75 CA         -1.9700  -24.1204  -44.1985 C.3       13 UNK         0.1400 
     76 CB         -0.7338  -24.6403  -43.4515 C.3       13 UNK        -0.1800 
     77 C          -2.5077  -25.1903  -45.1706 C.2       13 UNK         0.5000 
     78 O          -3.3472  -26.0015  -44.7805 O.2       13 UNK        -0.5000 
     79 N          -2.0585  -25.1332  -46.4310 N.am      14 UNK        -0.5000 
     80 CA         -2.5389  -25.9378  -47.5541 C.3       14 UNK         0.1400 
     81 CB         -1.4129  -26.0360  -48.5981 C.3       14 UNK        -0.1800 
     82 C          -3.8485  -25.4069  -48.1831 C.2       14 UNK         0.5000 
     83 O          -4.1872  -25.8248  -49.2903 O.2       14 UNK        -0.5000 
     84 N          -4.5549  -24.4924  -47.4998 N.am      15 UNK        -0.5000 
     85 CA         -5.8109  -23.8495  -47.9041 C.3       15 UNK         0.1400 
     86 CB         -6.9541  -24.8809  -48.0122 C.3       15 UNK        -0.1800 
     87 C          -5.6314  -23.0061  -49.1793 C.2       15 UNK         0.5000 
     88 O          -6.3571  -23.1879  -50.1587 O.2       15 UNK        -0.5000 
     89 N          -4.6148  -22.1327  -49.1501 N.am      16 UNK        -0.5000 
     90 CA         -4.1284  -21.3140  -50.2656 C.3       16 UNK         0.1400 
     91 CB         -5.1579  -20.2367  -50.6627 C.3       16 UNK        -0.1800 
     92 C          -3.6593  -22.1832  -51.4499 C.2       16 UNK         0.5000 
     93 O          -3.9907  -21.8936  -52.5996 O.2       16 UNK        -0.5000 
     94 N          -2.9207  -23.2544  -51.1207 N.am      17 UNK        -0.5000 
     95 CA         -2.4509  -24.3251  -52.0074 C.3       17 UNK         0.1400 
     96 CB         -1.3040  -23.8181  -52.9033 C.3       17 UNK        -0.1800 
     97 C          -3.6037  -24.9854  -52.7947 C.2       17 UNK         0.5000 
     98 O          -3.5342  -25.1053  -54.0182 O.2       17 UNK        -0.5000 
     99 N          -4.6558  -25.3737  -52.0598 N.am      18 UNK        -0.5000 
    100 CA        -5.9383  -25.8943  -52.5412 C.3       18 UNK         0.1400 
    101 CB        -5.7605  -27.2857  -53.1842 C.3       18 UNK        -0.1800 
    102 C         -6.6732  -24.8858  -53.4505 C.2       18 UNK         0.5000 
    103 O         -7.1035  -25.2382  -54.5507 O.2       18 UNK        -0.5000 
    104 N         -6.7946  -23.6446  -52.9565 N.am      19 UNK        -0.5000 
    105 CA        -7.4282  -22.4854  -53.5928 C.3       19 UNK         0.1400 
    106 CB        -8.9568  -22.6808  -53.6662 C.3       19 UNK        -0.1800 
    107 C         -6.7970  -22.1123  -54.9520 C.2       19 UNK         0.5000 
    108 O         -7.5130  -21.8835  -55.9293 O.2       19 UNK        -0.5000 
    109 N         -5.4594  -22.0553  -54.9902 N.am      20 UNK        -0.5000 
    110 CA        -4.6779  -21.6964  -56.1747 C.3       20 UNK         0.1400 
    111 CB        -3.2267  -22.1633  -55.9894 C.3       20 UNK        -0.1800 
    112 C         -4.6976  -20.1885  -56.4781 C.2       20 UNK         0.5000 
    113 O         -4.4725  -19.8104  -57.6284 O.2       20 UNK        -0.5000 
    114 N         -4.9238  -19.3582  -55.4460 N.am      21 UNK        -0.5000 
    115 CA        -4.9575  -17.8882  -55.4869 C.3       21 UNK         0.1400 
    116 CB        -6.2325  -17.4041  -56.2078 C.3       21 UNK        -0.1800 
    117 C         -3.6627  -17.2815  -56.0741 C.2       21 UNK         0.5000 
    118 O         -3.7162  -16.4078  -56.9414 O.2       21 UNK        -0.5000 
    119 N         -2.5247  -17.8109  -55.6077 N.am      22 UNK        -0.5000 
    120 CA        -1.1545  -17.5406  -56.0804 C.3       22 UNK         0.1400 
    121 C         -0.7957  -18.1829  -57.4561 C.2       22 UNK         0.5000 
    122 N         -1.6719  -18.9402  -58.1059 N.am      22 UNK        -0.7600 
    123 O          0.3228  -18.0186  -57.9357 O.2       22 UNK        -0.5000 
    124 C124       -0.7295  -16.0433  -56.0299 C.3       23 UNK        -0.0398 
    125 S125       -1.0900  -15.1834  -54.4606 S.3       23 UNK        -0.2404 
    126 C126        0.2342  -15.7899  -53.3684 C.3       23 UNK        -0.0205 
    127 H127        2.2875  -16.5519  -51.1356 H         1 UNK         0.0600 
    128 H128        2.5584  -18.2888  -50.9433 H         1 UNK         0.0600 
    129 H129        3.8809  -17.1490  -50.6807 H         1 UNK         0.0600 
    130 H130        0.7741  -16.1502  -49.5007 H         1 UNK         0.3000 
    131 H131        0.8506  -17.1785  -46.8446 H         1 UNK         0.0600 
    132 H132       -0.7345  -15.0891  -46.4614 H         1 UNK         0.0800 
    133 H133       -0.6386  -14.8665  -48.1822 H         1 UNK         0.0800 
    134 H134       -3.4798  -17.0863  -49.2778 H         1 UNK         0.0800 
    135 H135       -2.7100  -15.5229  -49.3344 H         1 UNK         0.0800 
    136 H136       -1.2830  -15.1964  -51.2066 H         1 UNK         0.1150 
    137 H137        0.5122  -18.5181  -53.2387 H         1 UNK         0.1150 
    138 H138       -1.7611  -19.1589  -49.6605 H         1 UNK         0.1150 
    139 H139       -1.0803  -21.0515  -50.9793 H         1 UNK         0.0800 
    140 H140       -0.5736  -20.7999  -52.6261 H         1 UNK         0.0800 
    141 H141        0.7893  -19.8760  -49.0844 H         1 UNK         0.0800 
    142 H142        2.3710  -20.5627  -49.0957 H         1 UNK         0.0800 
    143 H143        0.8088  -22.8961  -49.2174 H         1 UNK         0.0600 
    144 H144        2.5226  -21.7406  -47.2902 H         1 UNK         0.3000 
    145 H145        2.2160  -24.1348  -44.7169 H         1 UNK         0.0600 
    146 H146        3.6970  -25.3122  -46.3464 H         1 UNK         0.0600 
    147 H147        4.4771  -23.7901  -46.7595 H         1 UNK         0.0600 
    148 H148        4.6382  -24.4582  -45.1346 H         1 UNK         0.0600 
    149 H149        4.0200  -21.9699  -45.1396 H         1 UNK         0.3000 
    150 H150        3.8498  -20.0608  -43.9976 H         1 UNK         0.0600 
    151 H151        2.9250  -18.1181  -45.1814 H         1 UNK         0.0600 
    152 H152        1.3709  -18.9306  -45.3976 H         1 UNK         0.0600 
    153 H153        2.8071  -19.5141  -46.2280 H         1 UNK         0.0600 
    154 H154        1.4170  -18.7909  -43.0038 H         1 UNK         0.3000 
    155 H155        1.7244  -19.8465  -39.6912 H         1 UNK         0.0600 
    156 H156        2.9258  -17.1821  -40.6127 H         1 UNK         0.0600 
    157 H157        3.6991  -18.3496  -39.5488 H         1 UNK         0.0600 
    158 H158        2.2539  -17.5033  -39.0158 H         1 UNK         0.0600 
    159 H159        0.4819  -17.5342  -40.8862 H         1 UNK         0.3000 
    160 H160       -2.2182  -19.1435  -42.3836 H         1 UNK         0.0600 
    161 H161       -3.0398  -19.6141  -40.0716 H         1 UNK         0.0600 
    162 H162       -3.8081  -18.1893  -40.7495 H         1 UNK         0.0600 
    163 H163       -2.5205  -18.0140  -39.5555 H         1 UNK         0.0600 
    164 H164       -2.1932  -16.5034  -41.4995 H         1 UNK         0.3000 
    165 H165       -0.1418  -15.0001  -43.9699 H         1 UNK         0.0600 
    166 H166       -2.2554  -13.8613  -44.3302 H         1 UNK         0.0600 
    167 H167       -2.4897  -15.5436  -44.7690 H         1 UNK         0.0600 
    168 H168       -3.1050  -14.9475  -43.2348 H         1 UNK         0.0600 
    169 H169       -1.1290  -13.4391  -42.2043 H         1 UNK         0.3000 
    170 H170       -0.5563  -13.2837  -39.4360 H         1 UNK         0.0600 
    171 H171        1.7119  -12.4966  -38.6989 H         1 UNK         0.0600 
    172 H172        1.5829  -14.2474  -38.6623 H         1 UNK         0.0600 
    173 H173        2.4559  -13.4618  -39.9739 H         1 UNK         0.0600 
    174 H174        1.1032  -11.9881  -41.5621 H         1 UNK         0.3000 
    175 H175       -1.4243   -9.8087  -42.4882 H         1 UNK         0.0600 
    176 H176        0.8570   -8.8284  -40.6879 H         1 UNK         0.0600 
    177 H177       -0.0261   -7.8527  -41.8632 H         1 UNK         0.0600 
    178 H178       -0.8520   -8.4852  -40.4490 H         1 UNK         0.0600 
    179 H179        1.4124   -9.7121  -42.9105 H         1 UNK         0.3000 
    180 H180        1.2652  -10.9478  -45.9809 H         1 UNK         0.0600 
    181 H181        3.6102  -10.3740  -45.4009 H         1 UNK         0.0600 
    182 H182        3.2495  -10.4770  -43.6837 H         1 UNK         0.0600 
    183 H183        2.5035   -9.2247  -44.6795 H         1 UNK         0.0600 
    184 H184        2.1562  -12.9879  -46.0223 H         1 UNK         0.3000 
    185 H185        3.9296  -14.6679  -45.0231 H         1 UNK         0.0600 
    186 H186        2.3818  -15.9695  -42.7320 H         1 UNK         0.0600 
    187 H187        3.7855  -16.6281  -43.5646 H         1 UNK         0.0600 
    188 H188        3.9571  -15.2045  -42.5601 H         1 UNK         0.0600 
    189 H189        1.5423  -16.2781  -44.9263 H         1 UNK         0.3000 
    190 H190        0.1448  -20.7727  -46.4403 H         1 UNK         0.3000 
    191 H191       -2.6759  -20.4626  -46.9259 H         1 UNK         0.0600 
    192 H192       -1.0907  -20.0469  -44.3357 H         1 UNK         0.0600 
    193 H193       -2.6690  -19.3750  -44.7383 H         1 UNK         0.0600 
    194 H194       -1.2377  -18.8489  -45.6076 H         1 UNK         0.0600 
    195 H195       -0.6828  -22.5286  -44.7651 H         1 UNK         0.3000 
    196 H196       -2.7525  -23.9169  -43.4648 H         1 UNK         0.0600 
    197 H197       -0.9754  -25.5331  -42.8734 H         1 UNK         0.0600 
    198 H198       -0.3478  -23.8948  -42.7556 H         1 UNK         0.0600 
    199 H199        0.0672  -24.9048  -44.1410 H         1 UNK         0.0600 
    200 H200       -1.3188  -24.4734  -46.6427 H         1 UNK         0.3000 
    201 H201       -2.7497  -26.9468  -47.1949 H         1 UNK         0.0600 
    202 H202       -0.5083  -26.4578  -48.1597 H         1 UNK         0.0600 
    203 H203       -1.1578  -25.0580  -49.0069 H         1 UNK         0.0600 
    204 H204       -1.6956  -26.6826  -49.4295 H         1 UNK         0.0600 
    205 H205       -4.1687  -24.1535  -46.6266 H         1 UNK         0.3000 
    206 H206       -6.0724  -23.1523  -47.1069 H         1 UNK         0.0600 
    207 H207       -7.9069  -24.3849  -48.2007 H         1 UNK         0.0600 
    208 H208       -6.7921  -25.5902  -48.8242 H         1 UNK         0.0600 
    209 H209       -7.0607  -25.4483  -47.0877 H         1 UNK         0.0600 
    210 H210       -4.0430  -22.1109  -48.3165 H         1 UNK         0.3000 
    211 H211       -3.2465  -20.7947  -49.8982 H         1 UNK         0.0600 
    212 H212       -6.0723  -20.6731  -51.0630 H         1 UNK         0.0600 
    213 H213       -4.7507  -19.5707  -51.4244 H         1 UNK         0.0600 
    214 H214       -5.4290  -19.6196  -49.8062 H         1 UNK         0.0600 
    215 H215       -2.6782  -23.3550  -50.1424 H         1 UNK         0.3000 
    216 H216       -2.0413  -25.1051  -51.3656 H         1 UNK         0.0600 
    217 H217       -0.9180  -24.6169  -53.5373 H         1 UNK         0.0600 
    218 H218       -0.4713  -23.4532  -52.3025 H         1 UNK         0.0600 
    219 H219       -1.6273  -23.0083  -53.5557 H         1 UNK         0.0600 
    220 H220       -4.5810  -25.2878  -51.0486 H         1 UNK         0.3000 
    221 H221       -6.5642  -26.0200  -51.6564 H         1 UNK         0.0600 
    222 H222       -5.1739  -27.2391  -54.1020 H         1 UNK         0.0600 
    223 H223       -5.2613  -27.9732  -52.5014 H         1 UNK         0.0600 
    224 H224       -6.7268  -27.7237  -53.4366 H         1 UNK         0.0600 
    225 H225       -6.4347  -23.4749  -52.0196 H         1 UNK         0.3000 
    226 H226       -7.2406  -21.6386  -52.9323 H         1 UNK         0.0600 
    227 H227       -9.3723  -22.9024  -52.6831 H         1 UNK         0.0600 
    228 H228       -9.4495  -21.7781  -54.0294 H         1 UNK         0.0600 
    229 H229       -9.2300  -23.4956  -54.3374 H         1 UNK         0.0600 
    230 H230       -4.9342  -22.2165  -54.1320 H         1 UNK         0.3000 
    231 H231       -5.0962  -22.2166  -57.0390 H         1 UNK         0.0600 
    232 H232       -2.7575  -21.6781  -55.1333 H         1 UNK         0.0600 
    233 H233       -3.1742  -23.2408  -55.8401 H         1 UNK         0.0600 
    234 H234       -2.6240  -21.9303  -56.8683 H         1 UNK         0.0600 
    235 H235       -5.0663  -19.7795  -54.5388 H         1 UNK         0.3000 
    236 H236       -5.0133  -17.5476  -54.4519 H         1 UNK         0.0600 
    237 H237       -6.2314  -17.6816  -57.2624 H         1 UNK         0.0600 
    238 H238       -7.1273  -17.8277  -55.7516 H         1 UNK         0.0600 
    239 H239       -6.3240  -16.3187  -56.1543 H         1 UNK         0.0600 
    240 H240       -2.5990  -18.5319  -54.9055 H         1 UNK         0.3000 
    241 H241       -0.5178  -18.0684  -55.3714 H         1 UNK         0.0600 
    242 H242       -1.4023  -19.3486  -58.9866 H         1 UNK         0.3800 
    243 H243       -2.6173  -19.0777  -57.7670 H         1 UNK         0.3800 
    244 H244        0.3383  -15.9436  -56.2319 H         1 UNK         0.0800 
    245 H245       -1.2276  -15.4881  -56.8259 H         1 UNK         0.0800 
    246 H246        1.0305  -16.2586  -53.9483 H         1 UNK         0.0800 
    247 H247        0.6897  -14.9379  -52.8618 H         1 UNK         0.0800 
@<TRIPOS>BOND
     1    1    2 1    
     2    1  127 1    
     3    1  128 1    
     4    1  129 1    
     5    2    3 2    
     6    2    4 am   BACKBONE|DICT|INTERRES
     7    4    5 1    
     8    4  130 1    
     9    5    6 1    
    10    5   65 1    
    11    5  131 1    
    12    6    7 1    
    13    6  132 1    
    14    6  133 1    
    15    7    8 1    
    16    8    9 1    
    17    8  134 1    
    18    8  135 1    
    19    9   10 ar   
    20    9   14 ar   
    21   10   11 ar   
    22   10  136 1    
    23   11   12 ar   
    24   11  126 1    
    25   12   13 ar   
    26   12  137 1    
    27   13   14 ar   
    28   13   15 1    
    29   14  138 1    
    30   15   16 1    
    31   15  139 1    
    32   15  140 1    
    33   16   17 1    
    34   17   18 1    
    35   17  141 1    
    36   17  142 1    
    37   18   19 1    
    38   18   67 1    
    39   18  143 1    
    40   19   20 am   BACKBONE|DICT|INTERRES
    41   19  144 1    
    42   20   21 2    
    43   20   22 1    
    44   22   23 1    
    45   22   24 1    
    46   22  145 1    
    47   23  146 1    
    48   23  147 1    
    49   23  148 1    
    50   24   25 am   BACKBONE|DICT|INTERRES
    51   24  149 1    
    52   25   26 2    
    53   25   27 1    
    54   27   28 1    
    55   27   29 1    
    56   27  150 1    
    57   28  151 1    
    58   28  152 1    
    59   28  153 1    
    60   29   30 am   BACKBONE|DICT|INTERRES
    61   29  154 1    
    62   30   31 2    
    63   30   32 1    
    64   32   33 1    
    65   32   34 1    
    66   32  155 1    
    67   33  156 1    
    68   33  157 1    
    69   33  158 1    
    70   34   35 am   BACKBONE|DICT|INTERRES
    71   34  159 1    
    72   35   36 2    
    73   35   37 1    
    74   37   38 1    
    75   37   39 1    
    76   37  160 1    
    77   38  161 1    
    78   38  162 1    
    79   38  163 1    
    80   39   40 am   BACKBONE|DICT|INTERRES
    81   39  164 1    
    82   40   41 2    
    83   40   42 1    
    84   42   43 1    
    85   42   44 1    
    86   42  165 1    
    87   43  166 1    
    88   43  167 1    
    89   43  168 1    
    90   44   45 am   BACKBONE|DICT|INTERRES
    91   44  169 1    
    92   45   46 2    
    93   45   47 1    
    94   47   48 1    
    95   47   49 1    
    96   47  170 1    
    97   48  171 1    
    98   48  172 1    
    99   48  173 1    
   100   49   50 am   BACKBONE|DICT|INTERRES
   101   49  174 1    
   102   50   51 2    
   103   50   52 1    
   104   52   53 1    
   105   52   54 1    
   106   52  175 1    
   107   53  176 1    
   108   53  177 1    
   109   53  178 1    
   110   54   55 am   BACKBONE|DICT|INTERRES
   111   54  179 1    
   112   55   56 2    
   113   55   57 1    
   114   57   58 1    
   115   57   59 1    
   116   57  180 1    
   117   58  181 1    
   118   58  182 1    
   119   58  183 1    
   120   59   60 am   BACKBONE|DICT|INTERRES
   121   59  184 1    
   122   60   61 2    
   123   60   62 1    
   124   62   63 1    
   125   62   64 1    
   126   62  185 1    
   127   63  186 1    
   128   63  187 1    
   129   63  188 1    
   130   64   65 am   BACKBONE|DICT|INTERRES
   131   64  189 1    
   132   65   66 2    
   133   67   68 2    
   134   67   69 am   BACKBONE|DICT|INTERRES
   135   69   70 1    
   136   69  190 1    
   137   70   71 1    
   138   70   72 1    
   139   70  191 1    
   140   71  192 1    
   141   71  193 1    
   142   71  194 1    
   143   72   73 2    
   144   72   74 am   BACKBONE|DICT|INTERRES
   145   74   75 1    
   146   74  195 1    
   147   75   76 1    
   148   75   77 1    
   149   75  196 1    
   150   76  197 1    
   151   76  198 1    
   152   76  199 1    
   153   77   78 2    
   154   77   79 am   BACKBONE|DICT|INTERRES
   155   79   80 1    
   156   79  200 1    
   157   80   81 1    
   158   80   82 1    
   159   80  201 1    
   160   81  202 1    
   161   81  203 1    
   162   81  204 1    
   163   82   83 2    
   164   82   84 am   BACKBONE|DICT|INTERRES
   165   84   85 1    
   166   84  205 1    
   167   85   86 1    
   168   85   87 1    
   169   85  206 1    
   170   86  207 1    
   171   86  208 1    
   172   86  209 1    
   173   87   88 2    
   174   87   89 am   BACKBONE|DICT|INTERRES
   175   89   90 1    
   176   89  210 1    
   177   90   91 1    
   178   90   92 1    
   179   90  211 1    
   180   91  212 1    
   181   91  213 1    
   182   91  214 1    
   183   92   93 2    
   184   92   94 am   BACKBONE|DICT|INTERRES
   185   94   95 1    
   186   94  215 1    
   187   95   96 1    
   188   95   97 1    
   189   95  216 1    
   190   96  217 1    
   191   96  218 1    
   192   96  219 1    
   193   97   98 2    
   194   97   99 am   BACKBONE|DICT|INTERRES
   195   99  100 1    
   196   99  220 1    
   197  100  101 1    
   198  100  102 1    
   199  100  221 1    
   200  101  222 1    
   201  101  223 1    
   202  101  224 1    
   203  102  103 2    
   204  102  104 am   BACKBONE|DICT|INTERRES
   205  104  105 1    
   206  104  225 1    
   207  105  106 1    
   208  105  107 1    
   209  105  226 1    
   210  106  227 1    
   211  106  228 1    
   212  106  229 1    
   213  107  108 2    
   214  107  109 am   BACKBONE|DICT|INTERRES
   215  109  110 1    
   216  109  230 1    
   217  110  111 1    
   218  110  112 1    
   219  110  231 1    
   220  111  232 1    
   221  111  233 1    
   222  111  234 1    
   223  112  113 2    
   224  112  114 am   BACKBONE|DICT|INTERRES
   225  114  115 1    
   226  114  235 1    
   227  115  116 1    
   228  115  117 1    
   229  115  236 1    
   230  116  237 1    
   231  116  238 1    
   232  116  239 1    
   233  117  118 2    
   234  117  119 am   BACKBONE|DICT|INTERRES
   235  119  120 1    
   236  119  240 1    
   237  120  121 1    
   238  120  124 1    
   239  120  241 1    
   240  121  122 am   BACKBONE|DICT|INTERRES
   241  121  123 2    
   242  122  242 1    
   243  122  243 1    
   244  124  125 1    
   245  124  244 1    
   246  124  245 1    
   247  125  126 1    
   248  126  246 1    
   249  126  247 1    
@<TRIPOS>SUBSTRUCTURE
     1 UNK         1 GROUP             0       ****    0 ROOT    
