@<TRIPOS>MOLECULE
3R540
247   249    1
SMALL
USER_CHARGES


@<TRIPOS>ATOM
      1 CA         -2.9536  -14.3717  -47.1559 C.3       0 UNK        -0.1800 
      2 C          -1.8286  -13.7838  -47.9941 C.2       0 UNK         0.5000 
      3 O          -1.2602  -12.7544  -47.6281 O.2       0 UNK        -0.5000 
      4 N          -1.4899  -14.4455  -49.1094 N.am      1 UNK        -0.5000 
      5 CA         -0.4758  -14.0144  -50.0841 C.3       1 UNK         0.1400 
      6 C6         -0.5310  -14.8520  -51.3869 C.3       23 UNK        -0.0398 
      7 S7         -0.2310  -16.6411  -51.1533 S.3       23 UNK        -0.2404 
      8 C8          1.5012  -16.7608  -51.6987 C.3       23 UNK        -0.0205 
      9 C9          2.0159  -18.1861  -51.6003 C.ar      23 UNK        -0.0193 
     10 C10         2.0883  -18.9900  -52.7402 C.ar      23 UNK        -0.1150 
     11 C11         2.5698  -20.2993  -52.6559 C.ar      23 UNK        -0.0193 
     12 C12         2.9737  -20.8019  -51.4147 C.ar      23 UNK        -0.1150 
     13 C13         2.8981  -20.0137  -50.2608 C.ar      23 UNK        -0.0193 
     14 C14         2.4312  -18.6974  -50.3683 C.ar      23 UNK        -0.1150 
     15 C15         3.3562  -20.6094  -48.9286 C.3       23 UNK        -0.0205 
     16 S16         2.5780  -19.8981  -47.4353 S.3       23 UNK        -0.2404 
     17 C17         0.8326  -20.3809  -47.6535 C.3       23 UNK        -0.0398 
     18 CA          0.5002  -21.7463  -47.0062 C.3       11 UNK         0.1400 
     19 N           0.6926  -21.7538  -45.5511 N.am      11 UNK        -0.5000 
     20 C           0.7102  -22.8565  -44.7880 C.2       10 UNK         0.5000 
     21 O           0.5723  -23.9967  -45.2328 O.2       10 UNK        -0.5000 
     22 CA          0.8815  -22.6512  -43.2724 C.3       10 UNK         0.1400 
     23 CB          2.3588  -22.4484  -42.9010 C.3       10 UNK        -0.1800 
     24 N           0.0885  -21.5188  -42.7948 N.am      10 UNK        -0.5000 
     25 C          -1.2277  -21.5788  -42.5475 C.2       9 UNK         0.5000 
     26 O          -1.8843  -22.6183  -42.6095 O.2       9 UNK        -0.5000 
     27 CA         -1.9431  -20.2620  -42.1839 C.3       9 UNK         0.1400 
     28 CB         -1.9800  -20.0761  -40.6596 C.3       9 UNK        -0.1800 
     29 N          -1.3462  -19.0765  -42.8014 N.am      9 UNK        -0.5000 
     30 C          -1.2901  -18.8498  -44.1214 C.2       8 UNK         0.5000 
     31 O          -1.7757  -19.6001  -44.9640 O.2       8 UNK        -0.5000 
     32 CA         -0.5015  -17.6139  -44.5861 C.3       8 UNK         0.1400 
     33 CB         -1.3823  -16.3582  -44.5463 C.3       8 UNK        -0.1800 
     34 N           0.7177  -17.3868  -43.8102 N.am      8 UNK        -0.5000 
     35 C           1.7302  -18.2589  -43.7019 C.2       7 UNK         0.5000 
     36 O           1.7371  -19.3633  -44.2417 O.2       7 UNK        -0.5000 
     37 CA          2.8961  -17.8578  -42.7856 C.3       7 UNK         0.1400 
     38 CB          3.8122  -16.8279  -43.4605 C.3       7 UNK        -0.1800 
     39 N           2.4074  -17.3244  -41.5173 N.am      7 UNK        -0.5000 
     40 C           1.8893  -18.0759  -40.5364 C.2       6 UNK         0.5000 
     41 O           1.8239  -19.3049  -40.5746 O.2       6 UNK        -0.5000 
     42 CA          1.3268  -17.3209  -39.3184 C.3       6 UNK         0.1400 
     43 CB          2.4336  -17.0581  -38.2861 C.3       6 UNK        -0.1800 
     44 N           0.6914  -16.0517  -39.6798 N.am      6 UNK        -0.5000 
     45 C          -0.4374  -15.9516  -40.3948 C.2       5 UNK         0.5000 
     46 O          -1.0593  -16.9187  -40.8328 O.2       5 UNK        -0.5000 
     47 CA         -0.9318  -14.5283  -40.7055 C.3       5 UNK         0.1400 
     48 CB         -1.7138  -13.9549  -39.5142 C.3       5 UNK        -0.1800 
     49 N           0.1373  -13.5978  -41.0816 N.am      5 UNK        -0.5000 
     50 C           0.9266  -13.7421  -42.1531 C.2       4 UNK         0.5000 
     51 O           0.9213  -14.7346  -42.8846 O.2       4 UNK        -0.5000 
     52 CA          1.8780  -12.5890  -42.4802 C.3       4 UNK         0.1400 
     53 CB          3.3209  -12.9186  -42.0639 C.3       4 UNK        -0.1800 
     54 N           1.8016  -12.3793  -43.9196 N.am      4 UNK        -0.5000 
     55 C           1.9935  -11.2217  -44.5588 C.2       3 UNK         0.5000 
     56 O           2.3523  -10.1881  -43.9916 O.2       3 UNK        -0.5000 
     57 CA          1.6921  -11.2019  -46.0742 C.3       3 UNK         0.1400 
     58 CB          2.5942  -10.2185  -46.8493 C.3       3 UNK        -0.1800 
     59 N           1.6837  -12.5249  -46.7132 N.am      3 UNK        -0.5000 
     60 C           2.7248  -13.3561  -46.8904 C.2       2 UNK         0.5000 
     61 O           3.8608  -13.1301  -46.4734 O.2       2 UNK        -0.5000 
     62 CA          2.4607  -14.6689  -47.6605 C.3       2 UNK         0.1400 
     63 CB          2.4488  -15.8640  -46.6980 C.3       2 UNK        -0.1800 
     64 N           1.2053  -14.6678  -48.4100 N.am      2 UNK        -0.5000 
     65 C           0.9584  -13.9446  -49.5111 C.2       1 UNK         0.5000 
     66 O           1.7989  -13.2341  -50.0635 O.2       1 UNK        -0.5000 
     67 C          -0.9118  -22.1946  -47.4348 C.2       11 UNK         0.5000 
     68 O          -1.0451  -22.7052  -48.5455 O.2       11 UNK        -0.5000 
     69 N          -1.9182  -22.0162  -46.5638 N.am      12 UNK        -0.5000 
     70 CA         -3.3571  -22.2178  -46.7916 C.3       12 UNK         0.1400 
     71 CB         -4.0998  -22.0233  -45.4591 C.3       12 UNK        -0.1800 
     72 C          -3.7854  -23.5573  -47.4238 C.2       12 UNK         0.5000 
     73 O          -4.8689  -23.6301  -48.0021 O.2       12 UNK        -0.5000 
     74 N          -2.9488  -24.5945  -47.2998 N.am      13 UNK        -0.5000 
     75 CA         -3.1383  -25.8905  -47.9484 C.3       13 UNK         0.1400 
     76 CB         -2.2413  -26.9231  -47.2483 C.3       13 UNK        -0.1800 
     77 C          -2.8473  -25.8671  -49.4647 C.2       13 UNK         0.5000 
     78 O          -3.3232  -26.7556  -50.1729 O.2       13 UNK        -0.5000 
     79 N          -2.0611  -24.8869  -49.9307 N.am      14 UNK        -0.5000 
     80 CA         -1.5796  -24.7728  -51.3061 C.3       14 UNK         0.1400 
     81 CB         -0.0526  -24.9448  -51.3144 C.3       14 UNK        -0.1800 
     82 C          -1.9727  -23.4399  -51.9641 C.2       14 UNK         0.5000 
     83 O          -2.2915  -23.4462  -53.1528 O.2       14 UNK        -0.5000 
     84 N          -1.9621  -22.3307  -51.2123 N.am      15 UNK        -0.5000 
     85 CA         -2.2724  -20.9971  -51.7223 C.3       15 UNK         0.1400 
     86 CB         -0.9966  -20.3396  -52.2650 C.3       15 UNK        -0.1800 
     87 C          -2.8946  -20.1186  -50.6332 C.2       15 UNK         0.5000 
     88 O          -2.4416  -20.1549  -49.4891 O.2       15 UNK        -0.5000 
     89 N          -3.8874  -19.3154  -51.0385 N.am      16 UNK        -0.5000 
     90 CA         -4.7023  -18.4054  -50.2279 C.3       16 UNK         0.1400 
     91 CB         -3.8259  -17.3002  -49.6007 C.3       16 UNK        -0.1800 
     92 C          -5.5775  -19.1199  -49.1750 C.2       16 UNK         0.5000 
     93 O          -5.4919  -20.3371  -48.9972 O.2       16 UNK        -0.5000 
     94 N          -6.4370  -18.3353  -48.5080 N.am      17 UNK        -0.5000 
     95 CA         -7.4021  -18.7541  -47.4873 C.3       17 UNK         0.1400 
     96 CB         -6.6717  -19.1716  -46.1912 C.3       17 UNK        -0.1800 
     97 C          -8.3811  -19.8190  -48.0263 C.2       17 UNK         0.5000 
     98 O          -9.3287  -19.4641  -48.7290 O.2       17 UNK        -0.5000 
     99 N          -8.1345  -21.0929  -47.6981 N.am      18 UNK        -0.5000 
    100 CA        -8.9060  -22.2430  -48.1659 C.3       18 UNK         0.1400 
    101 CB        -8.6655  -23.4165  -47.2029 C.3       18 UNK        -0.1800 
    102 C         -8.5715  -22.6599  -49.6128 C.2       18 UNK         0.5000 
    103 O         -9.3945  -23.3244  -50.2449 O.2       18 UNK        -0.5000 
    104 N         -7.3842  -22.2888  -50.1064 N.am      19 UNK        -0.5000 
    105 CA        -6.8779  -22.6278  -51.4339 C.3       19 UNK         0.1400 
    106 CB        -5.4694  -23.2199  -51.2704 C.3       19 UNK        -0.1800 
    107 C         -6.8460  -21.3925  -52.3503 C.2       19 UNK         0.5000 
    108 O         -7.0394  -20.2638  -51.8933 O.2       19 UNK        -0.5000 
    109 N         -6.5940  -21.6379  -53.6415 N.am      20 UNK        -0.5000 
    110 CA        -6.3922  -20.6153  -54.6650 C.3       20 UNK         0.1400 
    111 CB        -6.8975  -21.1537  -56.0184 C.3       20 UNK        -0.1800 
    112 C         -4.9101  -20.1944  -54.6804 C.2       20 UNK         0.5000 
    113 O         -4.5072  -19.3688  -53.8596 O.2       20 UNK        -0.5000 
    114 N         -4.1224  -20.7837  -55.5851 N.am      21 UNK        -0.5000 
    115 CA        -2.6834  -20.5900  -55.7287 C.3       21 UNK         0.1400 
    116 CB        -2.4143  -19.5063  -56.7858 C.3       21 UNK        -0.1800 
    117 C         -2.0411  -21.9291  -56.1218 C.2       21 UNK         0.5000 
    118 O         -2.7406  -22.8152  -56.6229 O.2       21 UNK        -0.5000 
    119 N         -0.7292  -22.0468  -55.8845 N.am      22 UNK        -0.5000 
    120 CA         0.0719  -23.2589  -56.1232 C.3       22 UNK         0.1400 
    121 C          0.1019  -23.6953  -57.6156 C.2       22 UNK         0.5000 
    122 N          0.0508  -24.9914  -57.8919 N.am      22 UNK        -0.7600 
    123 O          0.2208  -22.8721  -58.5208 O.2       22 UNK        -0.5000 
    124 C124        1.5217  -23.1131  -55.5890 C.3       23 UNK        -0.0398 
    125 S125        1.5957  -22.6244  -53.8304 S.3       23 UNK        -0.2404 
    126 C126        2.6705  -21.1562  -53.9106 C.3       23 UNK        -0.0205 
    127 H127       -3.9056  -13.9237  -47.4402 H         1 UNK         0.0600 
    128 H128       -2.7852  -14.1687  -46.0983 H         1 UNK         0.0600 
    129 H129       -3.0265  -15.4512  -47.2867 H         1 UNK         0.0600 
    130 H130       -1.9716  -15.3012  -49.3444 H         1 UNK         0.3000 
    131 H131       -0.7330  -12.9888  -50.3574 H         1 UNK         0.0600 
    132 H132       -1.5176  -14.7437  -51.8395 H         1 UNK         0.0800 
    133 H133        0.1658  -14.4537  -52.1267 H         1 UNK         0.0800 
    134 H134        2.1286  -16.1088  -51.0900 H         1 UNK         0.0800 
    135 H135        1.5838  -16.3990  -52.7248 H         1 UNK         0.0800 
    136 H136        1.7696  -18.5933  -53.6939 H         1 UNK         0.1150 
    137 H137        3.3458  -21.8149  -51.3504 H         1 UNK         0.1150 
    138 H138        2.3790  -18.0634  -49.4951 H         1 UNK         0.1150 
    139 H139        3.1804  -21.6862  -48.9236 H         1 UNK         0.0800 
    140 H140        4.4353  -20.4736  -48.8493 H         1 UNK         0.0800 
    141 H141        0.6029  -20.3902  -48.7211 H         1 UNK         0.0800 
    142 H142        0.2056  -19.5983  -47.2240 H         1 UNK         0.0800 
    143 H143        1.1913  -22.4824  -47.4224 H         1 UNK         0.0600 
    144 H144        0.8858  -20.8556  -45.1156 H         1 UNK         0.3000 
    145 H145        0.5377  -23.5582  -42.7703 H         1 UNK         0.0600 
    146 H146        2.4790  -22.3063  -41.8268 H         1 UNK         0.0600 
    147 H147        2.9515  -23.3193  -43.1832 H         1 UNK         0.0600 
    148 H148        2.7935  -21.5840  -43.4022 H         1 UNK         0.0600 
    149 H149        0.5558  -20.6225  -42.7528 H         1 UNK         0.3000 
    150 H150       -2.9715  -20.3400  -42.5428 H         1 UNK         0.0600 
    151 H151       -2.4204  -20.9446  -40.1684 H         1 UNK         0.0600 
    152 H152       -2.5798  -19.2089  -40.3832 H         1 UNK         0.0600 
    153 H153       -0.9794  -19.9363  -40.2486 H         1 UNK         0.0600 
    154 H154       -0.9737  -18.3744  -42.1689 H         1 UNK         0.3000 
    155 H155       -0.2023  -17.7840  -45.6220 H         1 UNK         0.0600 
    156 H156       -1.6669  -16.1008  -43.5261 H         1 UNK         0.0600 
    157 H157       -2.3005  -16.5095  -45.1144 H         1 UNK         0.0600 
    158 H158       -0.8655  -15.5003  -44.9768 H         1 UNK         0.0600 
    159 H159        0.7933  -16.4840  -43.3461 H         1 UNK         0.3000 
    160 H160        3.4888  -18.7527  -42.5828 H         1 UNK         0.0600 
    161 H161        3.2740  -15.9181  -43.7272 H         1 UNK         0.0600 
    162 H162        4.2442  -17.2386  -44.3735 H         1 UNK         0.0600 
    163 H163        4.6399  -16.5484  -42.8086 H         1 UNK         0.0600 
    164 H164        2.3755  -16.3200  -41.4260 H         1 UNK         0.3000 
    165 H165        0.5710  -17.9585  -38.8545 H         1 UNK         0.0600 
    166 H166        2.0309  -16.5935  -37.3858 H         1 UNK         0.0600 
    167 H167        2.9132  -17.9898  -37.9829 H         1 UNK         0.0600 
    168 H168        3.2099  -16.4035  -38.6843 H         1 UNK         0.0600 
    169 H169        1.1424  -15.2050  -39.3661 H         1 UNK         0.3000 
    170 H170       -1.6166  -14.6000  -41.5529 H         1 UNK         0.0600 
    171 H171       -2.5266  -14.6219  -39.2232 H         1 UNK         0.0600 
    172 H172       -1.0752  -13.8150  -38.6411 H         1 UNK         0.0600 
    173 H173       -2.1599  -12.9916  -39.7620 H         1 UNK         0.0600 
    174 H174        0.2131  -12.7568  -40.5276 H         1 UNK         0.3000 
    175 H175        1.5424  -11.6904  -41.9583 H         1 UNK         0.0600 
    176 H176        3.6999  -13.7983  -42.5846 H         1 UNK         0.0600 
    177 H177        3.9922  -12.0883  -42.2834 H         1 UNK         0.0600 
    178 H178        3.3845  -13.1146  -40.9929 H         1 UNK         0.0600 
    179 H179        1.4815  -13.1842  -44.4419 H         1 UNK         0.3000 
    180 H180        0.6688  -10.8341  -46.1611 H         1 UNK         0.0600 
    181 H181        3.6504  -10.4676  -46.7448 H         1 UNK         0.0600 
    182 H182        2.4636   -9.1981  -46.4874 H         1 UNK         0.0600 
    183 H183        2.3528  -10.2167  -47.9124 H         1 UNK         0.0600 
    184 H184        0.7841  -12.8052  -47.0893 H         1 UNK         0.3000 
    185 H185        3.2793  -14.8071  -48.3699 H         1 UNK         0.0600 
    186 H186        3.4184  -15.9706  -46.2130 H         1 UNK         0.0600 
    187 H187        1.6971  -15.7438  -45.9174 H         1 UNK         0.0600 
    188 H188        2.2462  -16.7984  -47.2213 H         1 UNK         0.0600 
    189 H189        0.4541  -15.2298  -48.0385 H         1 UNK         0.3000 
    190 H190       -1.6936  -21.5030  -45.7188 H         1 UNK         0.3000 
    191 H191       -3.6764  -21.4318  -47.4754 H         1 UNK         0.0600 
    192 H192       -3.7394  -22.7150  -44.6972 H         1 UNK         0.0600 
    193 H193       -5.1710  -22.1942  -45.5741 H         1 UNK         0.0600 
    194 H194       -3.9780  -21.0100  -45.0788 H         1 UNK         0.0600 
    195 H195       -2.0778  -24.4493  -46.8094 H         1 UNK         0.3000 
    196 H196       -4.1783  -26.1970  -47.8169 H         1 UNK         0.0600 
    197 H197       -2.3708  -27.9144  -47.6846 H         1 UNK         0.0600 
    198 H198       -2.4831  -27.0017  -46.1882 H         1 UNK         0.0600 
    199 H199       -1.1856  -26.6615  -47.3338 H         1 UNK         0.0600 
    200 H200       -1.7358  -24.1681  -49.2869 H         1 UNK         0.3000 
    201 H201       -2.0064  -25.5669  -51.9221 H         1 UNK         0.0600 
    202 H202        0.2397  -25.8992  -50.8764 H         1 UNK         0.0600 
    203 H203        0.4454  -24.1514  -50.7551 H         1 UNK         0.0600 
    204 H204        0.3346  -24.9240  -52.3334 H         1 UNK         0.0600 
    205 H205       -1.7050  -22.3738  -50.2277 H         1 UNK         0.3000 
    206 H206       -2.9972  -21.0901  -52.5317 H         1 UNK         0.0600 
    207 H207       -1.1929  -19.3265  -52.6178 H         1 UNK         0.0600 
    208 H208       -0.2282  -20.2765  -51.4936 H         1 UNK         0.0600 
    209 H209       -0.5880  -20.9019  -53.1014 H         1 UNK         0.0600 
    210 H210       -4.1637  -19.3602  -52.0170 H         1 UNK         0.3000 
    211 H211       -5.3897  -17.9319  -50.9303 H         1 UNK         0.0600 
    212 H212       -3.1662  -17.6937  -48.8266 H         1 UNK         0.0600 
    213 H213       -4.4361  -16.5206  -49.1444 H         1 UNK         0.0600 
    214 H214       -3.2073  -16.8202  -50.3583 H         1 UNK         0.0600 
    215 H215       -6.4732  -17.3560  -48.7517 H         1 UNK         0.3000 
    216 H216       -8.0060  -17.8768  -47.2510 H         1 UNK         0.0600 
    217 H217       -7.3796  -19.4915  -45.4256 H         1 UNK         0.0600 
    218 H218       -6.1073  -18.3355  -45.7784 H         1 UNK         0.0600 
    219 H219       -5.9688  -19.9870  -46.3566 H         1 UNK         0.0600 
    220 H220       -7.2989  -21.2961  -47.1693 H         1 UNK         0.3000 
    221 H221       -9.9675  -21.9887  -48.1331 H         1 UNK         0.0600 
    222 H222       -7.6157  -23.7126  -47.1859 H         1 UNK         0.0600 
    223 H223       -8.9593  -23.1593  -46.1850 H         1 UNK         0.0600 
    224 H224       -9.2480  -24.2903  -47.4976 H         1 UNK         0.0600 
    225 H225       -6.7841  -21.6791  -49.5559 H         1 UNK         0.3000 
    226 H226       -7.5132  -23.3782  -51.9085 H         1 UNK         0.0600 
    227 H227       -5.4954  -24.1358  -50.6799 H         1 UNK         0.0600 
    228 H228       -5.0236  -23.4712  -52.2329 H         1 UNK         0.0600 
    229 H229       -4.8017  -22.5220  -50.7648 H         1 UNK         0.0600 
    230 H230       -6.4340  -22.5919  -53.9314 H         1 UNK         0.3000 
    231 H231       -6.9792  -19.7266  -54.4232 H         1 UNK         0.0600 
    232 H232       -7.9740  -21.3230  -55.9886 H         1 UNK         0.0600 
    233 H233       -6.4256  -22.0980  -56.2925 H         1 UNK         0.0600 
    234 H234       -6.7079  -20.4392  -56.8207 H         1 UNK         0.0600 
    235 H235       -4.4988  -21.5149  -56.1749 H         1 UNK         0.3000 
    236 H236       -2.2568  -20.2745  -54.7766 H         1 UNK         0.0600 
    237 H237       -1.3443  -19.3375  -56.9121 H         1 UNK         0.0600 
    238 H238       -2.8210  -19.7857  -57.7585 H         1 UNK         0.0600 
    239 H239       -2.8609  -18.5550  -56.4962 H         1 UNK         0.0600 
    240 H240       -0.2288  -21.2694  -55.4826 H         1 UNK         0.3000 
    241 H241       -0.4100  -24.0565  -55.5538 H         1 UNK         0.0600 
    242 H242        0.0861  -25.2882  -58.8551 H         1 UNK         0.3800 
    243 H243       -0.0394  -25.6853  -57.1657 H         1 UNK         0.3800 
    244 H244        2.0769  -22.3954  -56.1952 H         1 UNK         0.0800 
    245 H245        2.0542  -24.0606  -55.6866 H         1 UNK         0.0800 
    246 H246        2.4089  -20.5630  -54.7881 H         1 UNK         0.0800 
    247 H247        3.7045  -21.4749  -54.0491 H         1 UNK         0.0800 
@<TRIPOS>BOND
     1    1    2 1    
     2    1  127 1    
     3    1  128 1    
     4    1  129 1    
     5    2    3 2    
     6    2    4 am   BACKBONE|DICT|INTERRES
     7    4    5 1    
     8    4  130 1    
     9    5    6 1    
    10    5   65 1    
    11    5  131 1    
    12    6    7 1    
    13    6  132 1    
    14    6  133 1    
    15    7    8 1    
    16    8    9 1    
    17    8  134 1    
    18    8  135 1    
    19    9   10 ar   
    20    9   14 ar   
    21   10   11 ar   
    22   10  136 1    
    23   11   12 ar   
    24   11  126 1    
    25   12   13 ar   
    26   12  137 1    
    27   13   14 ar   
    28   13   15 1    
    29   14  138 1    
    30   15   16 1    
    31   15  139 1    
    32   15  140 1    
    33   16   17 1    
    34   17   18 1    
    35   17  141 1    
    36   17  142 1    
    37   18   19 1    
    38   18   67 1    
    39   18  143 1    
    40   19   20 am   BACKBONE|DICT|INTERRES
    41   19  144 1    
    42   20   21 2    
    43   20   22 1    
    44   22   23 1    
    45   22   24 1    
    46   22  145 1    
    47   23  146 1    
    48   23  147 1    
    49   23  148 1    
    50   24   25 am   BACKBONE|DICT|INTERRES
    51   24  149 1    
    52   25   26 2    
    53   25   27 1    
    54   27   28 1    
    55   27   29 1    
    56   27  150 1    
    57   28  151 1    
    58   28  152 1    
    59   28  153 1    
    60   29   30 am   BACKBONE|DICT|INTERRES
    61   29  154 1    
    62   30   31 2    
    63   30   32 1    
    64   32   33 1    
    65   32   34 1    
    66   32  155 1    
    67   33  156 1    
    68   33  157 1    
    69   33  158 1    
    70   34   35 am   BACKBONE|DICT|INTERRES
    71   34  159 1    
    72   35   36 2    
    73   35   37 1    
    74   37   38 1    
    75   37   39 1    
    76   37  160 1    
    77   38  161 1    
    78   38  162 1    
    79   38  163 1    
    80   39   40 am   BACKBONE|DICT|INTERRES
    81   39  164 1    
    82   40   41 2    
    83   40   42 1    
    84   42   43 1    
    85   42   44 1    
    86   42  165 1    
    87   43  166 1    
    88   43  167 1    
    89   43  168 1    
    90   44   45 am   BACKBONE|DICT|INTERRES
    91   44  169 1    
    92   45   46 2    
    93   45   47 1    
    94   47   48 1    
    95   47   49 1    
    96   47  170 1    
    97   48  171 1    
    98   48  172 1    
    99   48  173 1    
   100   49   50 am   BACKBONE|DICT|INTERRES
   101   49  174 1    
   102   50   51 2    
   103   50   52 1    
   104   52   53 1    
   105   52   54 1    
   106   52  175 1    
   107   53  176 1    
   108   53  177 1    
   109   53  178 1    
   110   54   55 am   BACKBONE|DICT|INTERRES
   111   54  179 1    
   112   55   56 2    
   113   55   57 1    
   114   57   58 1    
   115   57   59 1    
   116   57  180 1    
   117   58  181 1    
   118   58  182 1    
   119   58  183 1    
   120   59   60 am   BACKBONE|DICT|INTERRES
   121   59  184 1    
   122   60   61 2    
   123   60   62 1    
   124   62   63 1    
   125   62   64 1    
   126   62  185 1    
   127   63  186 1    
   128   63  187 1    
   129   63  188 1    
   130   64   65 am   BACKBONE|DICT|INTERRES
   131   64  189 1    
   132   65   66 2    
   133   67   68 2    
   134   67   69 am   BACKBONE|DICT|INTERRES
   135   69   70 1    
   136   69  190 1    
   137   70   71 1    
   138   70   72 1    
   139   70  191 1    
   140   71  192 1    
   141   71  193 1    
   142   71  194 1    
   143   72   73 2    
   144   72   74 am   BACKBONE|DICT|INTERRES
   145   74   75 1    
   146   74  195 1    
   147   75   76 1    
   148   75   77 1    
   149   75  196 1    
   150   76  197 1    
   151   76  198 1    
   152   76  199 1    
   153   77   78 2    
   154   77   79 am   BACKBONE|DICT|INTERRES
   155   79   80 1    
   156   79  200 1    
   157   80   81 1    
   158   80   82 1    
   159   80  201 1    
   160   81  202 1    
   161   81  203 1    
   162   81  204 1    
   163   82   83 2    
   164   82   84 am   BACKBONE|DICT|INTERRES
   165   84   85 1    
   166   84  205 1    
   167   85   86 1    
   168   85   87 1    
   169   85  206 1    
   170   86  207 1    
   171   86  208 1    
   172   86  209 1    
   173   87   88 2    
   174   87   89 am   BACKBONE|DICT|INTERRES
   175   89   90 1    
   176   89  210 1    
   177   90   91 1    
   178   90   92 1    
   179   90  211 1    
   180   91  212 1    
   181   91  213 1    
   182   91  214 1    
   183   92   93 2    
   184   92   94 am   BACKBONE|DICT|INTERRES
   185   94   95 1    
   186   94  215 1    
   187   95   96 1    
   188   95   97 1    
   189   95  216 1    
   190   96  217 1    
   191   96  218 1    
   192   96  219 1    
   193   97   98 2    
   194   97   99 am   BACKBONE|DICT|INTERRES
   195   99  100 1    
   196   99  220 1    
   197  100  101 1    
   198  100  102 1    
   199  100  221 1    
   200  101  222 1    
   201  101  223 1    
   202  101  224 1    
   203  102  103 2    
   204  102  104 am   BACKBONE|DICT|INTERRES
   205  104  105 1    
   206  104  225 1    
   207  105  106 1    
   208  105  107 1    
   209  105  226 1    
   210  106  227 1    
   211  106  228 1    
   212  106  229 1    
   213  107  108 2    
   214  107  109 am   BACKBONE|DICT|INTERRES
   215  109  110 1    
   216  109  230 1    
   217  110  111 1    
   218  110  112 1    
   219  110  231 1    
   220  111  232 1    
   221  111  233 1    
   222  111  234 1    
   223  112  113 2    
   224  112  114 am   BACKBONE|DICT|INTERRES
   225  114  115 1    
   226  114  235 1    
   227  115  116 1    
   228  115  117 1    
   229  115  236 1    
   230  116  237 1    
   231  116  238 1    
   232  116  239 1    
   233  117  118 2    
   234  117  119 am   BACKBONE|DICT|INTERRES
   235  119  120 1    
   236  119  240 1    
   237  120  121 1    
   238  120  124 1    
   239  120  241 1    
   240  121  122 am   BACKBONE|DICT|INTERRES
   241  121  123 2    
   242  122  242 1    
   243  122  243 1    
   244  124  125 1    
   245  124  244 1    
   246  124  245 1    
   247  125  126 1    
   248  126  246 1    
   249  126  247 1    
@<TRIPOS>SUBSTRUCTURE
     1 UNK         1 GROUP             0       ****    0 ROOT    
