@<TRIPOS>MOLECULE
3R540
247   249    1
SMALL
USER_CHARGES


@<TRIPOS>ATOM
      1 CA          6.3777  -15.4111  -49.6654 C.3       0 UNK        -0.1800 
      2 C           5.3483  -14.3091  -49.4567 C.2       0 UNK         0.5000 
      3 O           5.3588  -13.3186  -50.1881 O.2       0 UNK        -0.5000 
      4 N           4.4606  -14.4874  -48.4689 N.am      1 UNK        -0.5000 
      5 CA          3.4173  -13.5406  -48.0558 C.3       1 UNK         0.1400 
      6 C6          2.4230  -13.2008  -49.2059 C.3       23 UNK        -0.0398 
      7 S7          0.7526  -12.7244  -48.6388 S.3       23 UNK        -0.2404 
      8 C8          0.0410  -14.3095  -48.0987 C.3       23 UNK        -0.0205 
      9 C9         -0.2533  -15.2465  -49.2582 C.ar      23 UNK        -0.0193 
     10 C10        -1.4448  -15.1147  -49.9763 C.ar      23 UNK        -0.1150 
     11 C11        -1.7266  -15.9723  -51.0424 C.ar      23 UNK        -0.0193 
     12 C12        -0.8075  -16.9667  -51.3873 C.ar      23 UNK        -0.1150 
     13 C13         0.3804  -17.1178  -50.6687 C.ar      23 UNK        -0.0193 
     14 C14         0.6526  -16.2552  -49.6029 C.ar      23 UNK        -0.1150 
     15 C15         1.3688  -18.2086  -51.0545 C.3       23 UNK        -0.0205 
     16 S16         1.4004  -19.5722  -49.8507 S.3       23 UNK        -0.2404 
     17 C17        -0.3374  -20.1305  -49.8659 C.3       23 UNK        -0.0398 
     18 CA         -0.4861  -21.5238  -49.2122 C.3       11 UNK         0.1400 
     19 N          -0.2323  -21.4922  -47.7727 N.am      11 UNK        -0.5000 
     20 C          -0.0952  -22.5763  -47.0003 C.2       10 UNK         0.5000 
     21 O          -0.2124  -23.7303  -47.4142 O.2       10 UNK        -0.5000 
     22 CA          0.1825  -22.3215  -45.5066 C.3       10 UNK         0.1400 
     23 CB          1.6333  -21.8705  -45.2806 C.3       10 UNK        -0.1800 
     24 N          -0.7444  -21.3470  -44.9304 N.am      10 UNK        -0.5000 
     25 C          -2.0693  -21.5333  -44.8638 C.2       9 UNK         0.5000 
     26 O          -2.6213  -22.5710  -45.2233 O.2       9 UNK        -0.5000 
     27 CA         -2.9328  -20.3553  -44.3774 C.3       9 UNK         0.1400 
     28 CB         -2.9413  -20.2701  -42.8449 C.3       9 UNK        -0.1800 
     29 N          -2.5091  -19.0776  -44.9484 N.am      9 UNK        -0.5000 
     30 C          -2.5243  -18.7916  -46.2589 C.2       8 UNK         0.5000 
     31 O          -2.9527  -19.5536  -47.1259 O.2       8 UNK        -0.5000 
     32 CA         -1.9056  -17.4463  -46.6713 C.3       8 UNK         0.1400 
     33 CB         -2.9288  -16.3138  -46.4916 C.3       8 UNK        -0.1800 
     34 N          -0.6759  -17.1581  -45.9240 N.am      8 UNK        -0.5000 
     35 C           0.4434  -17.8925  -46.0280 C.2       7 UNK         0.5000 
     36 O           0.5570  -18.8460  -46.7942 O.2       7 UNK        -0.5000 
     37 CA          1.6051  -17.5597  -45.0738 C.3       7 UNK         0.1400 
     38 CB          2.4424  -16.3842  -45.5943 C.3       7 UNK        -0.1800 
     39 N           1.1425  -17.2738  -43.7172 N.am      7 UNK        -0.5000 
     40 C           0.6154  -18.1980  -42.8994 C.2       6 UNK         0.5000 
     41 O           0.5347  -19.3911  -43.1878 O.2       6 UNK        -0.5000 
     42 CA          0.0396  -17.7090  -41.5552 C.3       6 UNK         0.1400 
     43 CB          1.1007  -17.8083  -40.4495 C.3       6 UNK        -0.1800 
     44 N          -0.4686  -16.3380  -41.6073 N.am      6 UNK        -0.5000 
     45 C          -1.4376  -15.8980  -42.4231 C.2       5 UNK         0.5000 
     46 O          -2.0853  -16.6384  -43.1635 O.2       5 UNK        -0.5000 
     47 CA         -1.6864  -14.3751  -42.4585 C.3       5 UNK         0.1400 
     48 CB         -2.9797  -14.0258  -41.7076 C.3       5 UNK        -0.1800 
     49 N          -0.5803  -13.5834  -41.9040 N.am      5 UNK        -0.5000 
     50 C           0.6502  -13.5002  -42.4286 C.2       4 UNK         0.5000 
     51 O           0.9898  -14.0554  -43.4773 O.2       4 UNK        -0.5000 
     52 CA          1.6891  -12.7441  -41.5908 C.3       4 UNK         0.1400 
     53 CB          2.1614  -13.6353  -40.4220 C.3       4 UNK        -0.1800 
     54 N           2.8198  -12.3728  -42.4374 N.am      4 UNK        -0.5000 
     55 C           3.8124  -11.5449  -42.0889 C.2       3 UNK         0.5000 
     56 O           3.8703  -10.9604  -41.0059 O.2       3 UNK        -0.5000 
     57 CA          4.9328  -11.3277  -43.1221 C.3       3 UNK         0.1400 
     58 CB          5.9162  -12.5085  -43.1098 C.3       3 UNK        -0.1800 
     59 N           4.4468  -11.1243  -44.4865 N.am      3 UNK        -0.5000 
     60 C           3.7212  -10.0825  -44.9093 C.2       2 UNK         0.5000 
     61 O           3.3266   -9.1837  -44.1655 O.2       2 UNK        -0.5000 
     62 CA          3.3764  -10.0118  -46.4123 C.3       2 UNK         0.1400 
     63 CB          4.4200   -9.1747  -47.1761 C.3       2 UNK        -0.1800 
     64 N           3.1473  -11.3040  -47.0760 N.am      2 UNK        -0.5000 
     65 C           4.0031  -12.3034  -47.3312 C.2       1 UNK         0.5000 
     66 O           5.1800  -12.2997  -46.9611 O.2       1 UNK        -0.5000 
     67 C          -1.8366  -22.1735  -49.5722 C.2       11 UNK         0.5000 
     68 O          -1.8544  -23.0129  -50.4712 O.2       11 UNK        -0.5000 
     69 N          -2.9245  -21.7895  -48.8898 N.am      12 UNK        -0.5000 
     70 CA         -4.2854  -22.1693  -49.2723 C.3       12 UNK         0.1400 
     71 CB         -5.1752  -20.9200  -49.2450 C.3       12 UNK        -0.1800 
     72 C          -4.9000  -23.2725  -48.3982 C.2       12 UNK         0.5000 
     73 O          -5.4665  -24.2163  -48.9478 O.2       12 UNK        -0.5000 
     74 N          -4.8255  -23.1350  -47.0667 N.am      13 UNK        -0.5000 
     75 CA         -5.5182  -24.0261  -46.1268 C.3       13 UNK         0.1400 
     76 CB         -5.7902  -23.3050  -44.7959 C.3       13 UNK        -0.1800 
     77 C          -4.7563  -25.3440  -45.9141 C.2       13 UNK         0.5000 
     78 O          -5.3667  -26.4124  -45.9642 O.2       13 UNK        -0.5000 
     79 N          -3.4306  -25.2506  -45.7389 N.am      14 UNK        -0.5000 
     80 CA         -2.5168  -26.3994  -45.7637 C.3       14 UNK         0.1400 
     81 CB         -1.2503  -26.0738  -44.9599 C.3       14 UNK        -0.1800 
     82 C          -2.1712  -26.8341  -47.2050 C.2       14 UNK         0.5000 
     83 O          -1.6116  -27.9145  -47.3947 O.2       14 UNK        -0.5000 
     84 N          -2.5464  -25.9986  -48.1841 N.am      15 UNK        -0.5000 
     85 CA         -2.5230  -26.2256  -49.6280 C.3       15 UNK         0.1400 
     86 CB         -3.4611  -27.3890  -50.0129 C.3       15 UNK        -0.1800 
     87 C          -1.1092  -26.3640  -50.2244 C.2       15 UNK         0.5000 
     88 O          -0.9296  -27.0987  -51.1980 O.2       15 UNK        -0.5000 
     89 N          -0.1283  -25.6268  -49.6798 N.am      16 UNK        -0.5000 
     90 CA          1.2412  -25.5728  -50.2074 C.3       16 UNK         0.1400 
     91 CB          2.1573  -24.8448  -49.2122 C.3       16 UNK        -0.1800 
     92 C           1.3410  -24.9318  -51.6093 C.2       16 UNK         0.5000 
     93 O           2.2973  -25.2151  -52.3313 O.2       16 UNK        -0.5000 
     94 N           0.3467  -24.1138  -51.9796 N.am      17 UNK        -0.5000 
     95 CA          0.1660  -23.5306  -53.3088 C.3       17 UNK         0.1400 
     96 CB          0.1207  -21.9980  -53.1752 C.3       17 UNK        -0.1800 
     97 C          -1.1080  -24.0897  -53.9787 C.2       17 UNK         0.5000 
     98 O          -1.6902  -23.4179  -54.8318 O.2       17 UNK        -0.5000 
     99 N          -1.5206  -25.3039  -53.5796 N.am      18 UNK        -0.5000 
    100 CA        -2.7560  -25.9960  -53.9589 C.3       18 UNK         0.1400 
    101 CB        -2.7753  -26.3189  -55.4703 C.3       18 UNK        -0.1800 
    102 C         -4.0093  -25.2467  -53.4557 C.2       18 UNK         0.5000 
    103 O         -3.9562  -24.6051  -52.4046 O.2       18 UNK        -0.5000 
    104 N         -5.1254  -25.3425  -54.1891 N.am      19 UNK        -0.5000 
    105 CA        -6.4015  -24.6909  -53.8818 C.3       19 UNK         0.1400 
    106 CB        -7.5288  -25.4493  -54.6055 C.3       19 UNK        -0.1800 
    107 C         -6.3753  -23.1861  -54.2292 C.2       19 UNK         0.5000 
    108 O         -7.1426  -22.7280  -55.0777 O.2       19 UNK        -0.5000 
    109 N         -5.4629  -22.4491  -53.5837 N.am      20 UNK        -0.5000 
    110 CA        -5.2038  -21.0273  -53.8174 C.3       20 UNK         0.1400 
    111 CB        -3.8613  -20.6593  -53.1674 C.3       20 UNK        -0.1800 
    112 C         -6.3364  -20.1004  -53.3285 C.2       20 UNK         0.5000 
    113 O         -6.4982  -19.0108  -53.8780 O.2       20 UNK        -0.5000 
    114 N         -7.1038  -20.5589  -52.3252 N.am      21 UNK        -0.5000 
    115 CA        -8.2885  -19.9119  -51.7386 C.3       21 UNK         0.1400 
    116 CB        -9.4360  -19.8496  -52.7684 C.3       21 UNK        -0.1800 
    117 C         -8.0050  -18.5441  -51.0737 C.2       21 UNK         0.5000 
    118 O         -8.8833  -17.6811  -51.0284 O.2       21 UNK        -0.5000 
    119 N         -6.7822  -18.3800  -50.5577 N.am      22 UNK        -0.5000 
    120 CA        -6.2734  -17.1575  -49.9108 C.3       22 UNK         0.1400 
    121 C         -6.7868  -16.9227  -48.4597 C.2       22 UNK         0.5000 
    122 N         -7.4771  -17.8672  -47.8322 N.am      22 UNK        -0.7600 
    123 O         -6.5594  -15.8571  -47.8942 O.2       22 UNK        -0.5000 
    124 C124       -4.7239  -17.0933  -49.9586 C.3       23 UNK        -0.0398 
    125 S125       -4.0816  -17.2834  -51.6565 S.3       23 UNK        -0.2404 
    126 C126       -3.0148  -15.8227  -51.8355 C.3       23 UNK        -0.0205 
    127 H127        6.2971  -15.8136  -50.6751 H         1 UNK         0.0600 
    128 H128        6.2429  -16.2321  -48.9608 H         1 UNK         0.0600 
    129 H129        7.3841  -15.0132  -49.5350 H         1 UNK         0.0600 
    130 H130        4.5466  -15.3096  -47.8891 H         1 UNK         0.3000 
    131 H131        2.8667  -14.0748  -47.2843 H         1 UNK         0.0600 
    132 H132        2.8175  -12.3977  -49.8308 H         1 UNK         0.0800 
    133 H133        2.3146  -14.0530  -49.8767 H         1 UNK         0.0800 
    134 H134        0.6935  -14.7939  -47.3762 H         1 UNK         0.0800 
    135 H135       -0.8809  -14.0877  -47.5634 H         1 UNK         0.0800 
    136 H136       -2.1479  -14.3391  -49.7070 H         1 UNK         0.1150 
    137 H137       -1.0259  -17.6290  -52.2134 H         1 UNK         0.1150 
    138 H138        1.5699  -16.3728  -49.0436 H         1 UNK         0.1150 
    139 H139        1.1380  -18.6104  -52.0424 H         1 UNK         0.0800 
    140 H140        2.3685  -17.7782  -51.1262 H         1 UNK         0.0800 
    141 H141       -0.6789  -20.1415  -50.9016 H         1 UNK         0.0800 
    142 H142       -0.9538  -19.3941  -49.3472 H         1 UNK         0.0800 
    143 H143        0.2791  -22.1666  -49.6511 H         1 UNK         0.0600 
    144 H144       -0.0825  -20.5732  -47.3633 H         1 UNK         0.3000 
    145 H145        0.0431  -23.2602  -44.9703 H         1 UNK         0.0600 
    146 H146        1.8470  -21.7507  -44.2184 H         1 UNK         0.0600 
    147 H147        1.8469  -20.9220  -45.7725 H         1 UNK         0.0600 
    148 H148        2.3346  -22.6078  -45.6732 H         1 UNK         0.0600 
    149 H149       -0.3432  -20.4897  -44.5636 H         1 UNK         0.3000 
    150 H150       -3.9572  -20.5369  -44.7091 H         1 UNK         0.0600 
    151 H151       -3.3521  -21.1820  -42.4097 H         1 UNK         0.0600 
    152 H152       -3.5537  -19.4377  -42.4975 H         1 UNK         0.0600 
    153 H153       -1.9381  -20.1408  -42.4413 H         1 UNK         0.0600 
    154 H154       -2.1758  -18.3688  -44.3039 H         1 UNK         0.3000 
    155 H155       -1.6508  -17.5080  -47.7317 H         1 UNK         0.0600 
    156 H156       -3.8421  -16.5272  -47.0475 H         1 UNK         0.0600 
    157 H157       -2.5488  -15.3639  -46.8584 H         1 UNK         0.0600 
    158 H158       -3.2136  -16.1794  -45.4488 H         1 UNK         0.0600 
    159 H159       -0.7259  -16.4362  -45.2206 H         1 UNK         0.3000 
    160 H160        2.2548  -18.4368  -45.0341 H         1 UNK         0.0600 
    161 H161        1.8895  -15.4475  -45.5467 H         1 UNK         0.0600 
    162 H162        2.7425  -16.5465  -46.6303 H         1 UNK         0.0600 
    163 H163        3.3518  -16.2608  -45.0060 H         1 UNK         0.0600 
    164 H164        1.1577  -16.3047  -43.4250 H         1 UNK         0.3000 
    165 H165       -0.7942  -18.3622  -41.2922 H         1 UNK         0.0600 
    166 H166        0.6861  -17.5377  -39.4782 H         1 UNK         0.0600 
    167 H167        1.4826  -18.8267  -40.3659 H         1 UNK         0.0600 
    168 H168        1.9508  -17.1539  -40.6469 H         1 UNK         0.0600 
    169 H169       -0.0010  -15.6623  -41.0230 H         1 UNK         0.3000 
    170 H170       -1.8109  -14.0932  -43.5061 H         1 UNK         0.0600 
    171 H171       -2.9086  -14.2714  -40.6473 H         1 UNK         0.0600 
    172 H172       -3.2113  -12.9640  -41.7929 H         1 UNK         0.0600 
    173 H173       -3.8292  -14.5754  -42.1157 H         1 UNK         0.0600 
    174 H174       -0.7715  -13.1043  -41.0353 H         1 UNK         0.3000 
    175 H175        1.2261  -11.8349  -41.2018 H         1 UNK         0.0600 
    176 H176        2.6612  -14.5353  -40.7826 H         1 UNK         0.0600 
    177 H177        2.8567  -13.1095  -39.7682 H         1 UNK         0.0600 
    178 H178        1.3241  -13.9513  -39.7988 H         1 UNK         0.0600 
    179 H179        2.8137  -12.7989  -43.3555 H         1 UNK         0.3000 
    180 H180        5.4806  -10.4295  -42.8296 H         1 UNK         0.0600 
    181 H181        6.7659  -12.3202  -43.7664 H         1 UNK         0.0600 
    182 H182        5.4397  -13.4338  -43.4363 H         1 UNK         0.0600 
    183 H183        6.3118  -12.6779  -42.1074 H         1 UNK         0.0600 
    184 H184        4.7757  -11.7722  -45.1963 H         1 UNK         0.3000 
    185 H185        2.4250   -9.4817  -46.4799 H         1 UNK         0.0600 
    186 H186        4.1416   -9.0575  -48.2234 H         1 UNK         0.0600 
    187 H187        4.5048   -8.1748  -46.7487 H         1 UNK         0.0600 
    188 H188        5.4114   -9.6272  -47.1407 H         1 UNK         0.0600 
    189 H189        2.1943  -11.4423  -47.3907 H         1 UNK         0.3000 
    190 H190       -2.8337  -21.0801  -48.1648 H         1 UNK         0.3000 
    191 H191       -4.2925  -22.5396  -50.3002 H         1 UNK         0.0600 
    192 H192       -5.2303  -20.4788  -48.2491 H         1 UNK         0.0600 
    193 H193       -6.1933  -21.1581  -49.5545 H         1 UNK         0.0600 
    194 H194       -4.7854  -20.1638  -49.9236 H         1 UNK         0.0600 
    195 H195       -4.2680  -22.3930  -46.6651 H         1 UNK         0.3000 
    196 H196       -6.4923  -24.2775  -46.5529 H         1 UNK         0.0600 
    197 H197       -6.2990  -22.3546  -44.9576 H         1 UNK         0.0600 
    198 H198       -4.8793  -23.1075  -44.2332 H         1 UNK         0.0600 
    199 H199       -6.4330  -23.9118  -44.1573 H         1 UNK         0.0600 
    200 H200       -3.0162  -24.3235  -45.6570 H         1 UNK         0.3000 
    201 H201       -3.0062  -27.2454  -45.2766 H         1 UNK         0.0600 
    202 H202       -1.4925  -25.6776  -43.9736 H         1 UNK         0.0600 
    203 H203       -0.6257  -25.3482  -45.4738 H         1 UNK         0.0600 
    204 H204       -0.6461  -26.9698  -44.8136 H         1 UNK         0.0600 
    205 H205       -2.9668  -25.1288  -47.8926 H         1 UNK         0.3000 
    206 H206       -2.9451  -25.3245  -50.0702 H         1 UNK         0.0600 
    207 H207       -4.4574  -27.2429  -49.5950 H         1 UNK         0.0600 
    208 H208       -3.5752  -27.4596  -51.0946 H         1 UNK         0.0600 
    209 H209       -3.0839  -28.3491  -49.6599 H         1 UNK         0.0600 
    210 H210       -0.3318  -25.0353  -48.8781 H         1 UNK         0.3000 
    211 H211        1.5975  -26.6012  -50.2961 H         1 UNK         0.0600 
    212 H212        1.9022  -23.7894  -49.1233 H         1 UNK         0.0600 
    213 H213        3.1986  -24.9002  -49.5317 H         1 UNK         0.0600 
    214 H214        2.0980  -25.2908  -48.2192 H         1 UNK         0.0600 
    215 H215       -0.4163  -23.9385  -51.3296 H         1 UNK         0.3000 
    216 H216        1.0040  -23.7900  -53.9582 H         1 UNK         0.0600 
    217 H217        0.1167  -21.5188  -54.1548 H         1 UNK         0.0600 
    218 H218        0.9865  -21.6194  -52.6315 H         1 UNK         0.0600 
    219 H219       -0.7769  -21.6736  -52.6500 H         1 UNK         0.0600 
    220 H220       -0.9922  -25.7631  -52.8472 H         1 UNK         0.3000 
    221 H221       -2.7395  -26.9457  -53.4232 H         1 UNK         0.0600 
    222 H222       -2.9179  -25.4254  -56.0791 H         1 UNK         0.0600 
    223 H223       -1.8406  -26.7855  -55.7815 H         1 UNK         0.0600 
    224 H224       -3.5744  -27.0189  -55.7160 H         1 UNK         0.0600 
    225 H225       -5.0877  -25.8593  -55.0555 H         1 UNK         0.3000 
    226 H226       -6.5876  -24.7709  -52.8085 H         1 UNK         0.0600 
    227 H227       -7.5625  -26.4940  -54.2960 H         1 UNK         0.0600 
    228 H228       -8.5026  -25.0139  -54.3773 H         1 UNK         0.0600 
    229 H229       -7.4022  -25.4242  -55.6886 H         1 UNK         0.0600 
    230 H230       -4.8351  -22.9376  -52.9514 H         1 UNK         0.3000 
    231 H231       -5.1057  -20.8801  -54.8950 H         1 UNK         0.0600 
    232 H232       -3.5866  -19.6300  -53.3981 H         1 UNK         0.0600 
    233 H233       -3.0586  -21.2955  -53.5398 H         1 UNK         0.0600 
    234 H234       -3.8903  -20.7608  -52.0830 H         1 UNK         0.0600 
    235 H235       -6.8849  -21.4766  -51.9658 H         1 UNK         0.3000 
    236 H236       -8.6165  -20.5674  -50.9307 H         1 UNK         0.0600 
    237 H237       -9.2138  -19.1561  -53.5799 H         1 UNK         0.0600 
    238 H238       -9.6250  -20.8293  -53.2075 H         1 UNK         0.0600 
    239 H239      -10.3653  -19.5200  -52.3023 H         1 UNK         0.0600 
    240 H240       -6.1153  -19.1264  -50.6725 H         1 UNK         0.3000 
    241 H241       -6.6463  -16.3111  -50.4909 H         1 UNK         0.0600 
    242 H242       -7.8092  -17.6971  -46.8962 H         1 UNK         0.3800 
    243 H243       -7.6861  -18.7398  -48.2877 H         1 UNK         0.3800 
    244 H244       -4.2830  -17.8731  -49.3353 H         1 UNK         0.0800 
    245 H245       -4.3718  -16.1455  -49.5481 H         1 UNK         0.0800 
    246 H246       -2.7664  -15.6967  -52.8901 H         1 UNK         0.0800 
    247 H247       -3.5637  -14.9271  -51.5404 H         1 UNK         0.0800 
@<TRIPOS>BOND
     1    1    2 1    
     2    1  127 1    
     3    1  128 1    
     4    1  129 1    
     5    2    3 2    
     6    2    4 am   BACKBONE|DICT|INTERRES
     7    4    5 1    
     8    4  130 1    
     9    5    6 1    
    10    5   65 1    
    11    5  131 1    
    12    6    7 1    
    13    6  132 1    
    14    6  133 1    
    15    7    8 1    
    16    8    9 1    
    17    8  134 1    
    18    8  135 1    
    19    9   10 ar   
    20    9   14 ar   
    21   10   11 ar   
    22   10  136 1    
    23   11   12 ar   
    24   11  126 1    
    25   12   13 ar   
    26   12  137 1    
    27   13   14 ar   
    28   13   15 1    
    29   14  138 1    
    30   15   16 1    
    31   15  139 1    
    32   15  140 1    
    33   16   17 1    
    34   17   18 1    
    35   17  141 1    
    36   17  142 1    
    37   18   19 1    
    38   18   67 1    
    39   18  143 1    
    40   19   20 am   BACKBONE|DICT|INTERRES
    41   19  144 1    
    42   20   21 2    
    43   20   22 1    
    44   22   23 1    
    45   22   24 1    
    46   22  145 1    
    47   23  146 1    
    48   23  147 1    
    49   23  148 1    
    50   24   25 am   BACKBONE|DICT|INTERRES
    51   24  149 1    
    52   25   26 2    
    53   25   27 1    
    54   27   28 1    
    55   27   29 1    
    56   27  150 1    
    57   28  151 1    
    58   28  152 1    
    59   28  153 1    
    60   29   30 am   BACKBONE|DICT|INTERRES
    61   29  154 1    
    62   30   31 2    
    63   30   32 1    
    64   32   33 1    
    65   32   34 1    
    66   32  155 1    
    67   33  156 1    
    68   33  157 1    
    69   33  158 1    
    70   34   35 am   BACKBONE|DICT|INTERRES
    71   34  159 1    
    72   35   36 2    
    73   35   37 1    
    74   37   38 1    
    75   37   39 1    
    76   37  160 1    
    77   38  161 1    
    78   38  162 1    
    79   38  163 1    
    80   39   40 am   BACKBONE|DICT|INTERRES
    81   39  164 1    
    82   40   41 2    
    83   40   42 1    
    84   42   43 1    
    85   42   44 1    
    86   42  165 1    
    87   43  166 1    
    88   43  167 1    
    89   43  168 1    
    90   44   45 am   BACKBONE|DICT|INTERRES
    91   44  169 1    
    92   45   46 2    
    93   45   47 1    
    94   47   48 1    
    95   47   49 1    
    96   47  170 1    
    97   48  171 1    
    98   48  172 1    
    99   48  173 1    
   100   49   50 am   BACKBONE|DICT|INTERRES
   101   49  174 1    
   102   50   51 2    
   103   50   52 1    
   104   52   53 1    
   105   52   54 1    
   106   52  175 1    
   107   53  176 1    
   108   53  177 1    
   109   53  178 1    
   110   54   55 am   BACKBONE|DICT|INTERRES
   111   54  179 1    
   112   55   56 2    
   113   55   57 1    
   114   57   58 1    
   115   57   59 1    
   116   57  180 1    
   117   58  181 1    
   118   58  182 1    
   119   58  183 1    
   120   59   60 am   BACKBONE|DICT|INTERRES
   121   59  184 1    
   122   60   61 2    
   123   60   62 1    
   124   62   63 1    
   125   62   64 1    
   126   62  185 1    
   127   63  186 1    
   128   63  187 1    
   129   63  188 1    
   130   64   65 am   BACKBONE|DICT|INTERRES
   131   64  189 1    
   132   65   66 2    
   133   67   68 2    
   134   67   69 am   BACKBONE|DICT|INTERRES
   135   69   70 1    
   136   69  190 1    
   137   70   71 1    
   138   70   72 1    
   139   70  191 1    
   140   71  192 1    
   141   71  193 1    
   142   71  194 1    
   143   72   73 2    
   144   72   74 am   BACKBONE|DICT|INTERRES
   145   74   75 1    
   146   74  195 1    
   147   75   76 1    
   148   75   77 1    
   149   75  196 1    
   150   76  197 1    
   151   76  198 1    
   152   76  199 1    
   153   77   78 2    
   154   77   79 am   BACKBONE|DICT|INTERRES
   155   79   80 1    
   156   79  200 1    
   157   80   81 1    
   158   80   82 1    
   159   80  201 1    
   160   81  202 1    
   161   81  203 1    
   162   81  204 1    
   163   82   83 2    
   164   82   84 am   BACKBONE|DICT|INTERRES
   165   84   85 1    
   166   84  205 1    
   167   85   86 1    
   168   85   87 1    
   169   85  206 1    
   170   86  207 1    
   171   86  208 1    
   172   86  209 1    
   173   87   88 2    
   174   87   89 am   BACKBONE|DICT|INTERRES
   175   89   90 1    
   176   89  210 1    
   177   90   91 1    
   178   90   92 1    
   179   90  211 1    
   180   91  212 1    
   181   91  213 1    
   182   91  214 1    
   183   92   93 2    
   184   92   94 am   BACKBONE|DICT|INTERRES
   185   94   95 1    
   186   94  215 1    
   187   95   96 1    
   188   95   97 1    
   189   95  216 1    
   190   96  217 1    
   191   96  218 1    
   192   96  219 1    
   193   97   98 2    
   194   97   99 am   BACKBONE|DICT|INTERRES
   195   99  100 1    
   196   99  220 1    
   197  100  101 1    
   198  100  102 1    
   199  100  221 1    
   200  101  222 1    
   201  101  223 1    
   202  101  224 1    
   203  102  103 2    
   204  102  104 am   BACKBONE|DICT|INTERRES
   205  104  105 1    
   206  104  225 1    
   207  105  106 1    
   208  105  107 1    
   209  105  226 1    
   210  106  227 1    
   211  106  228 1    
   212  106  229 1    
   213  107  108 2    
   214  107  109 am   BACKBONE|DICT|INTERRES
   215  109  110 1    
   216  109  230 1    
   217  110  111 1    
   218  110  112 1    
   219  110  231 1    
   220  111  232 1    
   221  111  233 1    
   222  111  234 1    
   223  112  113 2    
   224  112  114 am   BACKBONE|DICT|INTERRES
   225  114  115 1    
   226  114  235 1    
   227  115  116 1    
   228  115  117 1    
   229  115  236 1    
   230  116  237 1    
   231  116  238 1    
   232  116  239 1    
   233  117  118 2    
   234  117  119 am   BACKBONE|DICT|INTERRES
   235  119  120 1    
   236  119  240 1    
   237  120  121 1    
   238  120  124 1    
   239  120  241 1    
   240  121  122 am   BACKBONE|DICT|INTERRES
   241  121  123 2    
   242  122  242 1    
   243  122  243 1    
   244  124  125 1    
   245  124  244 1    
   246  124  245 1    
   247  125  126 1    
   248  126  246 1    
   249  126  247 1    
@<TRIPOS>SUBSTRUCTURE
     1 UNK         1 GROUP             0       ****    0 ROOT    
