@<TRIPOS>MOLECULE
3R540
247   249    1
SMALL
USER_CHARGES


@<TRIPOS>ATOM
      1 CA         -1.8966  -10.5373  -45.2641 C.3       0 UNK        -0.1800 
      2 C          -0.5668  -10.6341  -45.9989 C.2       0 UNK         0.5000 
      3 O          -0.1232   -9.6536  -46.5976 O.2       0 UNK        -0.5000 
      4 N           0.0619  -11.8146  -45.9625 N.am      1 UNK        -0.5000 
      5 CA          1.3697  -12.0980  -46.5619 C.3       1 UNK         0.1400 
      6 C6          1.6841  -13.6132  -46.5624 C.3       23 UNK        -0.0398 
      7 S7          0.4320  -14.6160  -47.4317 S.3       23 UNK        -0.2404 
      8 C8          1.0921  -14.6492  -49.1257 C.3       23 UNK        -0.0205 
      9 C9          0.6721  -15.9190  -49.8477 C.ar      23 UNK        -0.0193 
     10 C10        -0.5541  -15.9891  -50.5154 C.ar      23 UNK        -0.1150 
     11 C11        -0.9287  -17.1565  -51.1890 C.ar      23 UNK        -0.0193 
     12 C12        -0.0671  -18.2581  -51.1882 C.ar      23 UNK        -0.1150 
     13 C13         1.1573  -18.2026  -50.5143 C.ar      23 UNK        -0.0193 
     14 C14         1.5210  -17.0282  -49.8515 C.ar      23 UNK        -0.1150 
     15 C15         2.1002  -19.3992  -50.5042 C.3       23 UNK        -0.0205 
     16 S16         1.3361  -20.9121  -49.8366 S.3       23 UNK        -0.2404 
     17 C17         0.7817  -20.3709  -48.1810 C.3       23 UNK        -0.0398 
     18 CA         -0.0147  -21.4686  -47.4346 C.3       11 UNK         0.1400 
     19 N          -0.1959  -21.1531  -46.0160 N.am      11 UNK        -0.5000 
     20 C          -0.5868  -22.0451  -45.0941 C.2       10 UNK         0.5000 
     21 O          -0.8248  -23.2279  -45.3446 O.2       10 UNK        -0.5000 
     22 CA         -0.7817  -21.5198  -43.6606 C.3       10 UNK         0.1400 
     23 CB          0.5743  -21.2510  -42.9888 C.3       10 UNK        -0.1800 
     24 N          -1.5993  -20.3090  -43.5902 N.am      10 UNK        -0.5000 
     25 C          -2.8613  -20.1795  -44.0178 C.2       9 UNK         0.5000 
     26 O          -3.4885  -21.0862  -44.5617 O.2       9 UNK        -0.5000 
     27 CA         -3.5389  -18.8040  -43.8472 C.3       9 UNK         0.1400 
     28 CB         -4.1803  -18.6638  -42.4537 C.3       9 UNK        -0.1800 
     29 N          -2.6679  -17.6662  -44.1717 N.am      9 UNK        -0.5000 
     30 C          -1.5785  -17.2380  -43.5216 C.2       8 UNK         0.5000 
     31 O          -1.1788  -17.7002  -42.4512 O.2       8 UNK        -0.5000 
     32 CA         -0.7554  -16.1523  -44.2300 C.3       8 UNK         0.1400 
     33 CB         -0.8411  -14.8155  -43.4771 C.3       8 UNK        -0.1800 
     34 N           0.6436  -16.5604  -44.3595 N.am      8 UNK        -0.5000 
     35 C           1.0709  -17.6163  -45.0686 C.2       7 UNK         0.5000 
     36 O           0.3197  -18.3739  -45.6841 O.2       7 UNK        -0.5000 
     37 CA          2.5809  -17.8926  -45.0892 C.3       7 UNK         0.1400 
     38 CB          3.2885  -16.9668  -46.0876 C.3       7 UNK        -0.1800 
     39 N           3.1760  -17.7239  -43.7654 N.am      7 UNK        -0.5000 
     40 C           3.8931  -18.6568  -43.1230 C.2       6 UNK         0.5000 
     41 O           4.1678  -19.7589  -43.5989 O.2       6 UNK        -0.5000 
     42 CA          4.3919  -18.3112  -41.7039 C.3       6 UNK         0.1400 
     43 CB          5.8525  -17.8385  -41.7499 C.3       6 UNK        -0.1800 
     44 N           3.5792  -17.2872  -41.0469 N.am      6 UNK        -0.5000 
     45 C           2.3120  -17.4656  -40.6483 C.2       5 UNK         0.5000 
     46 O           1.7516  -18.5617  -40.6575 O.2       5 UNK        -0.5000 
     47 CA          1.5264  -16.2222  -40.1781 C.3       5 UNK         0.1400 
     48 CB          1.2505  -16.2997  -38.6682 C.3       5 UNK        -0.1800 
     49 N           2.1485  -14.9239  -40.4712 N.am      5 UNK        -0.5000 
     50 C           2.4579  -14.4380  -41.6810 C.2       4 UNK         0.5000 
     51 O           2.3249  -15.0813  -42.7254 O.2       4 UNK        -0.5000 
     52 CA          3.0098  -12.9991  -41.7484 C.3       4 UNK         0.1400 
     53 CB          3.5168  -12.4451  -40.3976 C.3       4 UNK        -0.1800 
     54 N           4.0333  -12.8691  -42.7870 N.am      4 UNK        -0.5000 
     55 C           5.2133  -13.5067  -42.8481 C.2       3 UNK         0.5000 
     56 O           5.6259  -14.2566  -41.9621 O.2       3 UNK        -0.5000 
     57 CA          6.0746  -13.3019  -44.1142 C.3       3 UNK         0.1400 
     58 CB          6.3284  -14.6446  -44.8192 C.3       3 UNK        -0.1800 
     59 N           5.4791  -12.3749  -45.0804 N.am      3 UNK        -0.5000 
     60 C           5.5389  -11.0382  -45.0066 C.2       2 UNK         0.5000 
     61 O           6.1717  -10.4289  -44.1440 O.2       2 UNK        -0.5000 
     62 CA          4.7268  -10.2492  -46.0555 C.3       2 UNK         0.1400 
     63 CB          5.6239   -9.8467  -47.2359 C.3       2 UNK        -0.1800 
     64 N           3.5518  -10.9662  -46.5696 N.am      2 UNK        -0.5000 
     65 C           2.4967  -11.3379  -45.8306 C.2       1 UNK         0.5000 
     66 O           2.4227  -11.1554  -44.6130 O.2       1 UNK        -0.5000 
     67 C          -1.3676  -21.7633  -48.1118 C.2       11 UNK         0.5000 
     68 O          -1.4568  -22.7081  -48.8936 O.2       11 UNK        -0.5000 
     69 N          -2.4063  -20.9880  -47.7654 N.am      12 UNK        -0.5000 
     70 CA         -3.7661  -21.1705  -48.2726 C.3       12 UNK         0.1400 
     71 CB         -4.6630  -20.0127  -47.8130 C.3       12 UNK        -0.1800 
     72 C          -4.3635  -22.5301  -47.8729 C.2       12 UNK         0.5000 
     73 O          -4.9302  -23.2081  -48.7282 O.2       12 UNK        -0.5000 
     74 N          -4.1851  -22.9267  -46.6057 N.am      13 UNK        -0.5000 
     75 CA         -4.5876  -24.2288  -46.0748 C.3       13 UNK         0.1400 
     76 CB         -4.3618  -24.2609  -44.5558 C.3       13 UNK        -0.1800 
     77 C          -3.8601  -25.3970  -46.7628 C.2       13 UNK         0.5000 
     78 O          -4.5131  -26.3593  -47.1690 O.2       13 UNK        -0.5000 
     79 N          -2.5349  -25.2696  -46.9291 N.am      14 UNK        -0.5000 
     80 CA         -1.6890  -26.2372  -47.6349 C.3       14 UNK         0.1400 
     81 CB         -0.2148  -25.8347  -47.4798 C.3       14 UNK        -0.1800 
     82 C          -2.0586  -26.3912  -49.1239 C.2       14 UNK         0.5000 
     83 O          -2.0110  -27.5014  -49.6538 O.2       14 UNK        -0.5000 
     84 N          -2.4603  -25.2813  -49.7544 N.am      15 UNK        -0.5000 
     85 CA         -2.9262  -25.1995  -51.1373 C.3       15 UNK         0.1400 
     86 CB         -2.5630  -23.8127  -51.6905 C.3       15 UNK        -0.1800 
     87 C          -4.4305  -25.5048  -51.3095 C.2       15 UNK         0.5000 
     88 O          -4.9678  -25.2297  -52.3832 O.2       15 UNK        -0.5000 
     89 N          -5.0798  -26.0641  -50.2759 N.am      16 UNK        -0.5000 
     90 CA         -6.4768  -26.5105  -50.2364 C.3       16 UNK         0.1400 
     91 CB         -6.7028  -27.6809  -51.2169 C.3       16 UNK        -0.1800 
     92 C          -7.4707  -25.3510  -50.4435 C.2       16 UNK         0.5000 
     93 O          -8.2103  -25.3287  -51.4278 O.2       16 UNK        -0.5000 
     94 N          -7.4351  -24.3883  -49.5124 N.am      17 UNK        -0.5000 
     95 CA         -8.1800  -23.1223  -49.5140 C.3       17 UNK         0.1400 
     96 CB         -9.7033  -23.3600  -49.4448 C.3       17 UNK        -0.1800 
     97 C          -7.7507  -22.2086  -50.6805 C.2       17 UNK         0.5000 
     98 O          -8.5877  -21.5729  -51.3224 O.2       17 UNK        -0.5000 
     99 N          -6.4337  -22.1922  -50.9306 N.am      18 UNK        -0.5000 
    100 CA        -5.7120  -21.4686  -51.9803 C.3       18 UNK         0.1400 
    101 CB        -5.8531  -19.9429  -51.8042 C.3       18 UNK        -0.1800 
    102 C         -6.0314  -21.9207  -53.4199 C.2       18 UNK         0.5000 
    103 O         -5.5830  -21.2610  -54.3573 O.2       18 UNK        -0.5000 
    104 N         -6.7494  -23.0388  -53.5970 N.am      19 UNK        -0.5000 
    105 CA        -7.1469  -23.5858  -54.8978 C.3       19 UNK         0.1400 
    106 CB        -8.0682  -24.7943  -54.6801 C.3       19 UNK        -0.1800 
    107 C         -5.9564  -23.9729  -55.7953 C.2       19 UNK         0.5000 
    108 O         -6.0262  -23.7888  -57.0108 O.2       19 UNK        -0.5000 
    109 N         -4.8784  -24.4689  -55.1763 N.am      20 UNK        -0.5000 
    110 CA        -3.6170  -24.8098  -55.8351 C.3       20 UNK         0.1400 
    111 CB        -3.0139  -26.0351  -55.1278 C.3       20 UNK        -0.1800 
    112 C         -2.6141  -23.6351  -55.8637 C.2       20 UNK         0.5000 
    113 O         -1.4768  -23.8370  -56.2929 O.2       20 UNK        -0.5000 
    114 N         -3.0219  -22.4470  -55.3971 N.am      21 UNK        -0.5000 
    115 CA        -2.1903  -21.2521  -55.2942 C.3       21 UNK         0.1400 
    116 CB        -1.7386  -21.0672  -53.8296 C.3       21 UNK        -0.1800 
    117 C         -2.9465  -20.0478  -55.8820 C.2       21 UNK         0.5000 
    118 O         -3.1462  -19.9989  -57.0967 O.2       21 UNK        -0.5000 
    119 N         -3.3184  -19.0893  -55.0254 N.am      22 UNK        -0.5000 
    120 CA        -3.9155  -17.7933  -55.3875 C.3       22 UNK         0.1400 
    121 C         -5.3617  -17.8463  -55.9628 C.2       22 UNK         0.5000 
    122 N         -6.1005  -18.9397  -55.8344 N.am      22 UNK        -0.7600 
    123 O         -5.8220  -16.8681  -56.5456 O.2       22 UNK        -0.5000 
    124 C124       -3.8373  -16.7830  -54.2128 C.3       23 UNK        -0.0398 
    125 S125       -2.1364  -16.5368  -53.5915 S.3       23 UNK        -0.2404 
    126 C126       -2.2641  -17.2273  -51.9129 C.3       23 UNK        -0.0205 
    127 H127       -1.8438   -9.7683  -44.4934 H         1 UNK         0.0600 
    128 H128       -2.6917  -10.2703  -45.9603 H         1 UNK         0.0600 
    129 H129       -2.1654  -11.4796  -44.7859 H         1 UNK         0.0600 
    130 H130       -0.3586  -12.5814  -45.4603 H         1 UNK         0.3000 
    131 H131        1.3409  -11.7515  -47.5973 H         1 UNK         0.0600 
    132 H132        1.7445  -13.9838  -45.5372 H         1 UNK         0.0800 
    133 H133        2.6623  -13.8074  -47.0048 H         1 UNK         0.0800 
    134 H134        0.7383  -13.7710  -49.6678 H         1 UNK         0.0800 
    135 H135        2.1808  -14.5831  -49.1122 H         1 UNK         0.0800 
    136 H136       -1.2152  -15.1338  -50.5139 H         1 UNK         0.1150 
    137 H137       -0.3494  -19.1644  -51.7041 H         1 UNK         0.1150 
    138 H138        2.4712  -16.9739  -49.3407 H         1 UNK         0.1150 
    139 H139        2.4315  -19.5939  -51.5250 H         1 UNK         0.0800 
    140 H140        2.9995  -19.1810  -49.9262 H         1 UNK         0.0800 
    141 H141        0.1881  -19.4592  -48.2677 H         1 UNK         0.0800 
    142 H142        1.6699  -20.1019  -47.6080 H         1 UNK         0.0800 
    143 H143        0.5744  -22.3875  -47.4804 H         1 UNK         0.0600 
    144 H144       -0.0515  -20.1821  -45.7467 H         1 UNK         0.3000 
    145 H145       -1.2969  -22.2967  -43.0922 H         1 UNK         0.0600 
    146 H146        0.4478  -20.9727  -41.9423 H         1 UNK         0.0600 
    147 H147        1.2084  -22.1380  -43.0152 H         1 UNK         0.0600 
    148 H148        1.1176  -20.4438  -43.4818 H         1 UNK         0.0600 
    149 H149       -1.1810  -19.4985  -43.1431 H         1 UNK         0.3000 
    150 H150       -4.3488  -18.7656  -44.5771 H         1 UNK         0.0600 
    151 H151       -4.9226  -19.4461  -42.2907 H         1 UNK         0.0600 
    152 H152       -4.6890  -17.7057  -42.3481 H         1 UNK         0.0600 
    153 H153       -3.4461  -18.7450  -41.6519 H         1 UNK         0.0600 
    154 H154       -2.8763  -17.2260  -45.0571 H         1 UNK         0.3000 
    155 H155       -1.1495  -16.0029  -45.2371 H         1 UNK         0.0600 
    156 H156       -0.2230  -14.0528  -43.9489 H         1 UNK         0.0600 
    157 H157       -0.5148  -14.9145  -42.4418 H         1 UNK         0.0600 
    158 H158       -1.8661  -14.4435  -43.4617 H         1 UNK         0.0600 
    159 H159        1.3136  -16.0037  -43.8345 H         1 UNK         0.3000 
    160 H160        2.7059  -18.9200  -45.4374 H         1 UNK         0.0600 
    161 H161        3.2496  -15.9278  -45.7634 H         1 UNK         0.0600 
    162 H162        2.8216  -17.0235  -47.0703 H         1 UNK         0.0600 
    163 H163        4.3362  -17.2433  -46.2056 H         1 UNK         0.0600 
    164 H164        2.9816  -16.8492  -43.2889 H         1 UNK         0.3000 
    165 H165        4.3449  -19.2225  -41.1040 H         1 UNK         0.0600 
    166 H166        5.9632  -16.9373  -42.3533 H         1 UNK         0.0600 
    167 H167        6.2312  -17.6228  -40.7507 H         1 UNK         0.0600 
    168 H168        6.4969  -18.6040  -42.1838 H         1 UNK         0.0600 
    169 H169        3.9678  -16.3551  -41.0096 H         1 UNK         0.3000 
    170 H170        0.5676  -16.2478  -40.6989 H         1 UNK         0.0600 
    171 H171        0.7480  -17.2323  -38.4077 H         1 UNK         0.0600 
    172 H172        2.1735  -16.2512  -38.0891 H         1 UNK         0.0600 
    173 H173        0.6040  -15.4849  -38.3418 H         1 UNK         0.0600 
    174 H174        2.3199  -14.3320  -39.6713 H         1 UNK         0.3000 
    175 H175        2.1754  -12.3741  -42.0690 H         1 UNK         0.0600 
    176 H176        3.9371  -11.4469  -40.5210 H         1 UNK         0.0600 
    177 H177        2.7054  -12.3583  -39.6742 H         1 UNK         0.0600 
    178 H178        4.2902  -13.0759  -39.9578 H         1 UNK         0.0600 
    179 H179        3.7612  -12.2846  -43.5690 H         1 UNK         0.3000 
    180 H180        7.0377  -12.9035  -43.7887 H         1 UNK         0.0600 
    181 H181        5.3972  -15.1144  -45.1334 H         1 UNK         0.0600 
    182 H182        6.8414  -15.3449  -44.1589 H         1 UNK         0.0600 
    183 H183        6.9558  -14.5163  -45.7014 H         1 UNK         0.0600 
    184 H184        4.9476  -12.7870  -45.8319 H         1 UNK         0.3000 
    185 H185        4.3720   -9.3372  -45.5708 H         1 UNK         0.0600 
    186 H186        5.0884   -9.2094  -47.9399 H         1 UNK         0.0600 
    187 H187        6.4949   -9.2871  -46.8921 H         1 UNK         0.0600 
    188 H188        5.9883  -10.7187  -47.7804 H         1 UNK         0.0600 
    189 H189        3.5470  -11.1523  -47.5625 H         1 UNK         0.3000 
    190 H190       -2.2615  -20.2582  -47.0843 H         1 UNK         0.3000 
    191 H191       -3.7158  -21.1418  -49.3630 H         1 UNK         0.0600 
    192 H192       -4.2742  -19.0529  -48.1537 H         1 UNK         0.0600 
    193 H193       -5.6699  -20.1176  -48.2194 H         1 UNK         0.0600 
    194 H194       -4.7520  -19.9747  -46.7276 H         1 UNK         0.0600 
    195 H195       -3.7492  -22.2863  -45.9457 H         1 UNK         0.3000 
    196 H196       -5.6569  -24.3475  -46.2610 H         1 UNK         0.0600 
    197 H197       -4.6543  -25.2241  -44.1359 H         1 UNK         0.0600 
    198 H198       -4.9535  -23.4944  -44.0549 H         1 UNK         0.0600 
    199 H199       -3.3150  -24.0929  -44.2999 H         1 UNK         0.0600 
    200 H200       -2.0699  -24.4516  -46.5496 H         1 UNK         0.3000 
    201 H201       -1.8285  -27.2094  -47.1579 H         1 UNK         0.0600 
    202 H202        0.0735  -25.7904  -46.4294 H         1 UNK         0.0600 
    203 H203       -0.0154  -24.8584  -47.9222 H         1 UNK         0.0600 
    204 H204        0.4411  -26.5568  -47.9677 H         1 UNK         0.0600 
    205 H205       -2.4029  -24.3984  -49.2550 H         1 UNK         0.3000 
    206 H206       -2.3909  -25.9428  -51.7305 H         1 UNK         0.0600 
    207 H207       -1.4832  -23.6634  -51.6874 H         1 UNK         0.0600 
    208 H208       -2.9036  -23.6821  -52.7173 H         1 UNK         0.0600 
    209 H209       -3.0042  -23.0207  -51.0877 H         1 UNK         0.0600 
    210 H210       -4.5617  -26.1986  -49.4167 H         1 UNK         0.3000 
    211 H211       -6.6491  -26.8922  -49.2289 H         1 UNK         0.0600 
    212 H212       -6.5670  -27.3779  -52.2556 H         1 UNK         0.0600 
    213 H213       -7.7153  -28.0752  -51.1236 H         1 UNK         0.0600 
    214 H214       -6.0145  -28.5015  -51.0151 H         1 UNK         0.0600 
    215 H215       -6.7075  -24.4500  -48.8107 H         1 UNK         0.3000 
    216 H216       -7.8902  -22.6002  -48.6010 H         1 UNK         0.0600 
    217 H217       -9.9627  -24.0144  -48.6128 H         1 UNK         0.0600 
    218 H218      -10.0893  -23.8101  -50.3596 H         1 UNK         0.0600 
    219 H219      -10.2362  -22.4202  -49.2965 H         1 UNK         0.0600 
    220 H220       -5.8528  -22.7523  -50.3113 H         1 UNK         0.3000 
    221 H221       -4.6608  -21.7063  -51.8319 H         1 UNK         0.0600 
    222 H222       -6.8704  -19.6047  -52.0021 H         1 UNK         0.0600 
    223 H223       -5.5866  -19.6348  -50.7936 H         1 UNK         0.0600 
    224 H224       -5.1951  -19.4057  -52.4878 H         1 UNK         0.0600 
    225 H225       -7.0384  -23.5634  -52.7820 H         1 UNK         0.3000 
    226 H226       -7.7146  -22.8126  -55.4192 H         1 UNK         0.0600 
    227 H227       -8.9535  -24.5175  -54.1072 H         1 UNK         0.0600 
    228 H228       -8.4100  -25.2038  -55.6314 H         1 UNK         0.0600 
    229 H229       -7.5575  -25.5938  -54.1412 H         1 UNK         0.0600 
    230 H230       -4.9245  -24.6219  -54.1706 H         1 UNK         0.3000 
    231 H231       -3.8126  -25.0892  -56.8722 H         1 UNK         0.0600 
    232 H232       -3.7259  -26.8597  -55.0885 H         1 UNK         0.0600 
    233 H233       -2.7151  -25.8017  -54.1070 H         1 UNK         0.0600 
    234 H234       -2.1290  -26.3965  -55.6530 H         1 UNK         0.0600 
    235 H235       -3.9929  -22.3276  -55.1306 H         1 UNK         0.3000 
    236 H236       -1.2923  -21.3614  -55.9057 H         1 UNK         0.0600 
    237 H237       -1.1176  -21.9037  -53.5093 H         1 UNK         0.0600 
    238 H238       -1.1351  -20.1661  -53.7159 H         1 UNK         0.0600 
    239 H239       -2.5829  -21.0010  -53.1429 H         1 UNK         0.0600 
    240 H240       -3.1161  -19.2201  -54.0475 H         1 UNK         0.3000 
    241 H241       -3.3013  -17.3905  -56.1953 H         1 UNK         0.0600 
    242 H242       -5.7537  -19.7598  -55.3399 H         1 UNK         0.3800 
    243 H243       -7.0299  -18.9529  -56.2209 H         1 UNK         0.3800 
    244 H244       -4.2081  -15.8063  -54.5291 H         1 UNK         0.0800 
    245 H245       -4.4878  -17.0992  -53.3957 H         1 UNK         0.0800 
    246 H246       -3.0188  -16.6766  -51.3491 H         1 UNK         0.0800 
    247 H247       -2.6093  -18.2609  -51.9645 H         1 UNK         0.0800 
@<TRIPOS>BOND
     1    1    2 1    
     2    1  127 1    
     3    1  128 1    
     4    1  129 1    
     5    2    3 2    
     6    2    4 am   BACKBONE|DICT|INTERRES
     7    4    5 1    
     8    4  130 1    
     9    5    6 1    
    10    5   65 1    
    11    5  131 1    
    12    6    7 1    
    13    6  132 1    
    14    6  133 1    
    15    7    8 1    
    16    8    9 1    
    17    8  134 1    
    18    8  135 1    
    19    9   10 ar   
    20    9   14 ar   
    21   10   11 ar   
    22   10  136 1    
    23   11   12 ar   
    24   11  126 1    
    25   12   13 ar   
    26   12  137 1    
    27   13   14 ar   
    28   13   15 1    
    29   14  138 1    
    30   15   16 1    
    31   15  139 1    
    32   15  140 1    
    33   16   17 1    
    34   17   18 1    
    35   17  141 1    
    36   17  142 1    
    37   18   19 1    
    38   18   67 1    
    39   18  143 1    
    40   19   20 am   BACKBONE|DICT|INTERRES
    41   19  144 1    
    42   20   21 2    
    43   20   22 1    
    44   22   23 1    
    45   22   24 1    
    46   22  145 1    
    47   23  146 1    
    48   23  147 1    
    49   23  148 1    
    50   24   25 am   BACKBONE|DICT|INTERRES
    51   24  149 1    
    52   25   26 2    
    53   25   27 1    
    54   27   28 1    
    55   27   29 1    
    56   27  150 1    
    57   28  151 1    
    58   28  152 1    
    59   28  153 1    
    60   29   30 am   BACKBONE|DICT|INTERRES
    61   29  154 1    
    62   30   31 2    
    63   30   32 1    
    64   32   33 1    
    65   32   34 1    
    66   32  155 1    
    67   33  156 1    
    68   33  157 1    
    69   33  158 1    
    70   34   35 am   BACKBONE|DICT|INTERRES
    71   34  159 1    
    72   35   36 2    
    73   35   37 1    
    74   37   38 1    
    75   37   39 1    
    76   37  160 1    
    77   38  161 1    
    78   38  162 1    
    79   38  163 1    
    80   39   40 am   BACKBONE|DICT|INTERRES
    81   39  164 1    
    82   40   41 2    
    83   40   42 1    
    84   42   43 1    
    85   42   44 1    
    86   42  165 1    
    87   43  166 1    
    88   43  167 1    
    89   43  168 1    
    90   44   45 am   BACKBONE|DICT|INTERRES
    91   44  169 1    
    92   45   46 2    
    93   45   47 1    
    94   47   48 1    
    95   47   49 1    
    96   47  170 1    
    97   48  171 1    
    98   48  172 1    
    99   48  173 1    
   100   49   50 am   BACKBONE|DICT|INTERRES
   101   49  174 1    
   102   50   51 2    
   103   50   52 1    
   104   52   53 1    
   105   52   54 1    
   106   52  175 1    
   107   53  176 1    
   108   53  177 1    
   109   53  178 1    
   110   54   55 am   BACKBONE|DICT|INTERRES
   111   54  179 1    
   112   55   56 2    
   113   55   57 1    
   114   57   58 1    
   115   57   59 1    
   116   57  180 1    
   117   58  181 1    
   118   58  182 1    
   119   58  183 1    
   120   59   60 am   BACKBONE|DICT|INTERRES
   121   59  184 1    
   122   60   61 2    
   123   60   62 1    
   124   62   63 1    
   125   62   64 1    
   126   62  185 1    
   127   63  186 1    
   128   63  187 1    
   129   63  188 1    
   130   64   65 am   BACKBONE|DICT|INTERRES
   131   64  189 1    
   132   65   66 2    
   133   67   68 2    
   134   67   69 am   BACKBONE|DICT|INTERRES
   135   69   70 1    
   136   69  190 1    
   137   70   71 1    
   138   70   72 1    
   139   70  191 1    
   140   71  192 1    
   141   71  193 1    
   142   71  194 1    
   143   72   73 2    
   144   72   74 am   BACKBONE|DICT|INTERRES
   145   74   75 1    
   146   74  195 1    
   147   75   76 1    
   148   75   77 1    
   149   75  196 1    
   150   76  197 1    
   151   76  198 1    
   152   76  199 1    
   153   77   78 2    
   154   77   79 am   BACKBONE|DICT|INTERRES
   155   79   80 1    
   156   79  200 1    
   157   80   81 1    
   158   80   82 1    
   159   80  201 1    
   160   81  202 1    
   161   81  203 1    
   162   81  204 1    
   163   82   83 2    
   164   82   84 am   BACKBONE|DICT|INTERRES
   165   84   85 1    
   166   84  205 1    
   167   85   86 1    
   168   85   87 1    
   169   85  206 1    
   170   86  207 1    
   171   86  208 1    
   172   86  209 1    
   173   87   88 2    
   174   87   89 am   BACKBONE|DICT|INTERRES
   175   89   90 1    
   176   89  210 1    
   177   90   91 1    
   178   90   92 1    
   179   90  211 1    
   180   91  212 1    
   181   91  213 1    
   182   91  214 1    
   183   92   93 2    
   184   92   94 am   BACKBONE|DICT|INTERRES
   185   94   95 1    
   186   94  215 1    
   187   95   96 1    
   188   95   97 1    
   189   95  216 1    
   190   96  217 1    
   191   96  218 1    
   192   96  219 1    
   193   97   98 2    
   194   97   99 am   BACKBONE|DICT|INTERRES
   195   99  100 1    
   196   99  220 1    
   197  100  101 1    
   198  100  102 1    
   199  100  221 1    
   200  101  222 1    
   201  101  223 1    
   202  101  224 1    
   203  102  103 2    
   204  102  104 am   BACKBONE|DICT|INTERRES
   205  104  105 1    
   206  104  225 1    
   207  105  106 1    
   208  105  107 1    
   209  105  226 1    
   210  106  227 1    
   211  106  228 1    
   212  106  229 1    
   213  107  108 2    
   214  107  109 am   BACKBONE|DICT|INTERRES
   215  109  110 1    
   216  109  230 1    
   217  110  111 1    
   218  110  112 1    
   219  110  231 1    
   220  111  232 1    
   221  111  233 1    
   222  111  234 1    
   223  112  113 2    
   224  112  114 am   BACKBONE|DICT|INTERRES
   225  114  115 1    
   226  114  235 1    
   227  115  116 1    
   228  115  117 1    
   229  115  236 1    
   230  116  237 1    
   231  116  238 1    
   232  116  239 1    
   233  117  118 2    
   234  117  119 am   BACKBONE|DICT|INTERRES
   235  119  120 1    
   236  119  240 1    
   237  120  121 1    
   238  120  124 1    
   239  120  241 1    
   240  121  122 am   BACKBONE|DICT|INTERRES
   241  121  123 2    
   242  122  242 1    
   243  122  243 1    
   244  124  125 1    
   245  124  244 1    
   246  124  245 1    
   247  125  126 1    
   248  126  246 1    
   249  126  247 1    
@<TRIPOS>SUBSTRUCTURE
     1 UNK         1 GROUP             0       ****    0 ROOT    
