@<TRIPOS>MOLECULE
3R540
247   249    1
SMALL
USER_CHARGES


@<TRIPOS>ATOM
      1 CA          6.7876  -17.1557  -49.0191 C.3       0 UNK        -0.1800 
      2 C           5.9676  -16.6970  -47.8217 C.2       0 UNK         0.5000 
      3 O           6.5055  -16.5702  -46.7219 O.2       0 UNK        -0.5000 
      4 N           4.6688  -16.4507  -48.0315 N.am      1 UNK        -0.5000 
      5 CA          3.7253  -15.9884  -47.0075 C.3       1 UNK         0.1400 
      6 C6          2.2538  -16.2214  -47.4307 C.3       23 UNK        -0.0398 
      7 S7          1.8193  -15.4850  -49.0484 S.3       23 UNK        -0.2404 
      8 C8          0.0769  -16.0013  -49.2466 C.3       23 UNK        -0.0205 
      9 C9         -0.1766  -17.4893  -49.5097 C.ar      23 UNK        -0.0193 
     10 C10        -1.5018  -17.9390  -49.5105 C.ar      23 UNK        -0.1150 
     11 C11        -1.8056  -19.2834  -49.7436 C.ar      23 UNK        -0.0193 
     12 C12        -0.7691  -20.1944  -49.9487 C.ar      23 UNK        -0.1150 
     13 C13         0.5592  -19.7672  -49.9587 C.ar      23 UNK        -0.0193 
     14 C14         0.8480  -18.4123  -49.7644 C.ar      23 UNK        -0.1150 
     15 C15         1.6736  -20.7857  -50.1621 C.3       23 UNK        -0.0205 
     16 S16         2.9383  -20.7673  -48.8451 S.3       23 UNK        -0.2404 
     17 C17         1.9627  -20.6430  -47.3062 C.3       23 UNK        -0.0398 
     18 CA          1.6273  -22.0010  -46.6488 C.3       11 UNK         0.1400 
     19 N           1.4303  -21.8495  -45.2069 N.am      11 UNK        -0.5000 
     20 C           1.3219  -22.8524  -44.3277 C.2       10 UNK         0.5000 
     21 O           1.4187  -24.0405  -44.6337 O.2       10 UNK        -0.5000 
     22 CA          1.0101  -22.4565  -42.8714 C.3       10 UNK         0.1400 
     23 CB          2.2832  -22.0112  -42.1367 C.3       10 UNK        -0.1800 
     24 N          -0.0018  -21.4005  -42.7830 N.am      10 UNK        -0.5000 
     25 C          -1.2804  -21.5532  -43.1565 C.2       9 UNK         0.5000 
     26 O          -1.7466  -22.6159  -43.5681 O.2       9 UNK        -0.5000 
     27 CA         -2.1772  -20.3013  -43.1076 C.3       9 UNK         0.1400 
     28 CB         -2.6669  -20.0313  -41.6773 C.3       9 UNK        -0.1800 
     29 N          -1.5169  -19.1070  -43.6384 N.am      9 UNK        -0.5000 
     30 C          -1.1032  -18.9751  -44.9068 C.2       8 UNK         0.5000 
     31 O          -1.2705  -19.8309  -45.7706 O.2       8 UNK        -0.5000 
     32 CA         -0.3134  -17.7080  -45.2660 C.3       8 UNK         0.1400 
     33 CB         -1.2597  -16.5295  -45.5377 C.3       8 UNK        -0.1800 
     34 N           0.6651  -17.3450  -44.2406 N.am      8 UNK        -0.5000 
     35 C           1.6864  -18.1200  -43.8472 C.2       7 UNK         0.5000 
     36 O           1.9531  -19.2044  -44.3585 O.2       7 UNK        -0.5000 
     37 CA          2.5144  -17.6384  -42.6459 C.3       7 UNK         0.1400 
     38 CB          3.5784  -16.6231  -43.0745 C.3       7 UNK        -0.1800 
     39 N           1.6682  -17.0541  -41.6099 N.am      7 UNK        -0.5000 
     40 C           0.8497  -17.7642  -40.8228 C.2       6 UNK         0.5000 
     41 O           0.7517  -18.9915  -40.8653 O.2       6 UNK        -0.5000 
     42 CA         -0.0318  -16.9557  -39.8543 C.3       6 UNK         0.1400 
     43 CB          0.7452  -16.6035  -38.5770 C.3       6 UNK        -0.1800 
     44 N          -0.5516  -15.7282  -40.4627 N.am      6 UNK        -0.5000 
     45 C          -1.4509  -15.7099  -41.4559 C.2       5 UNK         0.5000 
     46 O          -1.9327  -16.7253  -41.9580 O.2       5 UNK        -0.5000 
     47 CA         -1.8592  -14.3286  -41.9997 C.3       5 UNK         0.1400 
     48 CB         -2.9426  -13.6986  -41.1115 C.3       5 UNK        -0.1800 
     49 N          -0.7483  -13.3832  -42.1563 N.am      5 UNK        -0.5000 
     50 C           0.3120  -13.5752  -42.9518 C.2       4 UNK         0.5000 
     51 O           0.5458  -14.6336  -43.5363 O.2       4 UNK        -0.5000 
     52 CA          1.2744  -12.3920  -43.1327 C.3       4 UNK         0.1400 
     53 CB          2.6134  -12.6559  -42.4280 C.3       4 UNK        -0.1800 
     54 N           1.5084  -12.1767  -44.5600 N.am      4 UNK        -0.5000 
     55 C           0.7052  -11.4512  -45.3526 C.2       3 UNK         0.5000 
     56 O          -0.2664  -10.8256  -44.9235 O.2       3 UNK        -0.5000 
     57 CA          0.9979  -11.4311  -46.8726 C.3       3 UNK         0.1400 
     58 CB          0.7290  -10.0502  -47.5068 C.3       3 UNK        -0.1800 
     59 N           2.3249  -11.9306  -47.2489 N.am      3 UNK        -0.5000 
     60 C           3.5245  -11.4164  -46.9350 C.2       2 UNK         0.5000 
     61 O           3.6780  -10.3526  -46.3331 O.2       2 UNK        -0.5000 
     62 CA          4.7587  -12.2565  -47.3468 C.3       2 UNK         0.1400 
     63 CB          5.9508  -12.0529  -46.3890 C.3       2 UNK        -0.1800 
     64 N           4.4814  -13.6934  -47.5068 N.am      2 UNK        -0.5000 
     65 C           3.9577  -14.5213  -46.5872 C.2       1 UNK         0.5000 
     66 O           3.6218  -14.1575  -45.4611 O.2       1 UNK        -0.5000 
     67 C           0.4208  -22.6947  -47.3185 C.2       11 UNK         0.5000 
     68 O           0.6194  -23.5888  -48.1384 O.2       11 UNK        -0.5000 
     69 N          -0.8044  -22.3229  -46.9196 N.am      12 UNK        -0.5000 
     70 CA         -2.0551  -22.9425  -47.3589 C.3       12 UNK         0.1400 
     71 CB         -3.2510  -22.1320  -46.8350 C.3       12 UNK        -0.1800 
     72 C          -2.1793  -24.4132  -46.9253 C.2       12 UNK         0.5000 
     73 O          -2.6425  -25.2401  -47.7106 O.2       12 UNK        -0.5000 
     74 N          -1.7419  -24.7207  -45.6962 N.am      13 UNK        -0.5000 
     75 CA         -1.6764  -26.0839  -45.1679 C.3       13 UNK         0.1400 
     76 CB         -1.3640  -26.0418  -43.6644 C.3       13 UNK        -0.1800 
     77 C          -0.6599  -26.9644  -45.9209 C.2       13 UNK         0.5000 
     78 O          -0.9036  -28.1606  -46.0848 O.2       13 UNK        -0.5000 
     79 N           0.4439  -26.3583  -46.3803 N.am      14 UNK        -0.5000 
     80 CA          1.4501  -27.0005  -47.2214 C.3       14 UNK         0.1400 
     81 CB          2.7571  -26.1914  -47.1837 C.3       14 UNK        -0.1800 
     82 C           0.9518  -27.2066  -48.6646 C.2       14 UNK         0.5000 
     83 O           0.9705  -28.3392  -49.1491 O.2       14 UNK        -0.5000 
     84 N           0.5130  -26.1244  -49.3222 N.am      15 UNK        -0.5000 
     85 CA          0.0623  -26.1146  -50.7121 C.3       15 UNK         0.1400 
     86 CB          1.2568  -26.3260  -51.6681 C.3       15 UNK        -0.1800 
     87 C          -0.6826  -24.8047  -51.0210 C.2       15 UNK         0.5000 
     88 O          -0.0714  -23.8449  -51.4952 O.2       15 UNK        -0.5000 
     89 N          -1.9947  -24.7835  -50.7575 N.am      16 UNK        -0.5000 
     90 CA         -2.9011  -23.7145  -51.1840 C.3       16 UNK         0.1400 
     91 CB         -4.2534  -23.8775  -50.4706 C.3       16 UNK        -0.1800 
     92 C          -3.1165  -23.7128  -52.7093 C.2       16 UNK         0.5000 
     93 O          -3.0426  -24.7672  -53.3469 O.2       16 UNK        -0.5000 
     94 N          -3.4313  -22.5328  -53.2549 N.am      17 UNK        -0.5000 
     95 CA         -3.9001  -22.3539  -54.6280 C.3       17 UNK         0.1400 
     96 CB         -3.7794  -20.8671  -55.0023 C.3       17 UNK        -0.1800 
     97 C          -5.3572  -22.8305  -54.7872 C.2       17 UNK         0.5000 
     98 O          -6.0719  -23.0002  -53.7941 O.2       17 UNK        -0.5000 
     99 N          -5.7850  -23.0067  -56.0433 N.am      18 UNK        -0.5000 
    100 CA        -7.1553  -23.3471  -56.4297 C.3       18 UNK         0.1400 
    101 CB        -7.1436  -23.8836  -57.8724 C.3       18 UNK        -0.1800 
    102 C         -8.0948  -22.1354  -56.2551 C.2       18 UNK         0.5000 
    103 O         -8.4645  -21.4906  -57.2385 O.2       18 UNK        -0.5000 
    104 N         -8.4195  -21.8345  -54.9908 N.am      19 UNK        -0.5000 
    105 CA        -9.1424  -20.6555  -54.5118 C.3       19 UNK         0.1400 
    106 CB       -10.6011  -20.6429  -55.0236 C.3       19 UNK        -0.1800 
    107 C         -8.3409  -19.3691  -54.7997 C.2       19 UNK         0.5000 
    108 O         -7.1542  -19.3230  -54.4650 O.2       19 UNK        -0.5000 
    109 N         -8.9903  -18.3502  -55.3832 N.am      20 UNK        -0.5000 
    110 CA        -8.4471  -17.0245  -55.6960 C.3       20 UNK         0.1400 
    111 CB        -7.4149  -17.1200  -56.8432 C.3       20 UNK        -0.1800 
    112 C         -7.9207  -16.3355  -54.4202 C.2       20 UNK         0.5000 
    113 O         -8.7100  -16.0928  -53.5046 O.2       20 UNK        -0.5000 
    114 N         -6.6055  -16.0891  -54.3483 N.am      21 UNK        -0.5000 
    115 CA        -5.9054  -15.5437  -53.1815 C.3       21 UNK         0.1400 
    116 CB        -4.4306  -15.3170  -53.5485 C.3       21 UNK        -0.1800 
    117 C         -6.0117  -16.4214  -51.9165 C.2       21 UNK         0.5000 
    118 O         -5.9118  -15.8913  -50.8092 O.2       21 UNK        -0.5000 
    119 N         -6.2293  -17.7292  -52.1016 N.am      22 UNK        -0.5000 
    120 CA        -6.4514  -18.7117  -51.0305 C.3       22 UNK         0.1400 
    121 C         -7.9597  -19.0032  -50.7726 C.2       22 UNK         0.5000 
    122 N         -8.9002  -18.3010  -51.3967 N.am      22 UNK        -0.7600 
    123 O         -8.2902  -19.8761  -49.9752 O.2       22 UNK        -0.5000 
    124 C124       -5.6451  -20.0166  -51.2679 C.3       23 UNK        -0.0398 
    125 S125       -3.8626  -19.7056  -51.5076 S.3       23 UNK        -0.2404 
    126 C126       -3.2513  -19.7476  -49.7988 C.3       23 UNK        -0.0205 
    127 H127        6.1805  -17.2310  -49.9216 H         1 UNK         0.0600 
    128 H128        7.2244  -18.1346  -48.8214 H         1 UNK         0.0600 
    129 H129        7.5974  -16.4519  -49.2112 H         1 UNK         0.0600 
    130 H130        4.2801  -16.5710  -48.9565 H         1 UNK         0.3000 
    131 H131        3.8969  -16.5926  -46.1150 H         1 UNK         0.0600 
    132 H132        2.0717  -17.2948  -47.4798 H         1 UNK         0.0800 
    133 H133        1.5725  -15.8359  -46.6707 H         1 UNK         0.0800 
    134 H134       -0.4777  -15.6926  -48.3599 H         1 UNK         0.0800 
    135 H135       -0.3433  -15.4371  -50.0801 H         1 UNK         0.0800 
    136 H136       -2.3053  -17.2350  -49.3439 H         1 UNK         0.1150 
    137 H137       -0.9938  -21.2380  -50.1107 H         1 UNK         0.1150 
    138 H138        1.8804  -18.0980  -49.7900 H         1 UNK         0.1150 
    139 H139        1.2647  -21.7952  -50.2270 H         1 UNK         0.0800 
    140 H140        2.1582  -20.5928  -51.1198 H         1 UNK         0.0800 
    141 H141        2.6046  -20.0712  -46.6371 H         1 UNK         0.0800 
    142 H142        1.0705  -20.0294  -47.4280 H         1 UNK         0.0800 
    143 H143        2.4897  -22.6594  -46.7730 H         1 UNK         0.0600 
    144 H144        1.3960  -20.8948  -44.8568 H         1 UNK         0.3000 
    145 H145        0.6183  -23.3406  -42.3643 H         1 UNK         0.0600 
    146 H146        2.0753  -21.7861  -41.0904 H         1 UNK         0.0600 
    147 H147        3.0399  -22.7963  -42.1576 H         1 UNK         0.0600 
    148 H148        2.7213  -21.1208  -42.5879 H         1 UNK         0.0600 
    149 H149        0.3016  -20.5001  -42.4313 H         1 UNK         0.3000 
    150 H150       -3.0516  -20.4990  -43.7309 H         1 UNK         0.0600 
    151 H151       -3.1791  -20.9033  -41.2687 H         1 UNK         0.0600 
    152 H152       -3.3710  -19.1994  -41.6533 H         1 UNK         0.0600 
    153 H153       -1.8426  -19.7896  -41.0062 H         1 UNK         0.0600 
    154 H154       -1.3924  -18.3291  -42.9977 H         1 UNK         0.3000 
    155 H155        0.2312  -17.9216  -46.1861 H         1 UNK         0.0600 
    156 H156       -0.7098  -15.6355  -45.8306 H         1 UNK         0.0600 
    157 H157       -1.8545  -16.2804  -44.6595 H         1 UNK         0.0600 
    158 H158       -1.9519  -16.7665  -46.3466 H         1 UNK         0.0600 
    159 H159        0.5485  -16.4304  -43.8083 H         1 UNK         0.3000 
    160 H160        3.0273  -18.5048  -42.2226 H         1 UNK         0.0600 
    161 H161        3.1213  -15.7482  -43.5322 H         1 UNK         0.0600 
    162 H162        4.2658  -17.0589  -43.8000 H         1 UNK         0.0600 
    163 H163        4.1727  -16.2869  -42.2249 H         1 UNK         0.0600 
    164 H164        1.6484  -16.0471  -41.5497 H         1 UNK         0.3000 
    165 H165       -0.8802  -17.5842  -39.5748 H         1 UNK         0.0600 
    166 H166        1.5949  -15.9526  -38.7867 H         1 UNK         0.0600 
    167 H167        0.1053  -16.0982  -37.8534 H         1 UNK         0.0600 
    168 H168        1.1314  -17.5029  -38.0954 H         1 UNK         0.0600 
    169 H169       -0.2008  -14.8506  -40.1083 H         1 UNK         0.3000 
    170 H170       -2.2900  -14.4870  -42.9904 H         1 UNK         0.0600 
    171 H171       -3.7912  -14.3737  -40.9918 H         1 UNK         0.0600 
    172 H172       -2.5639  -13.4675  -40.1152 H         1 UNK         0.0600 
    173 H173       -3.3239  -12.7756  -41.5487 H         1 UNK         0.0600 
    174 H174       -0.8605  -12.4867  -41.7052 H         1 UNK         0.3000 
    175 H175        0.8334  -11.4949  -42.6929 H         1 UNK         0.0600 
    176 H176        3.2848  -11.8035  -42.5324 H         1 UNK         0.0600 
    177 H177        2.4674  -12.8277  -41.3609 H         1 UNK         0.0600 
    178 H178        3.1223  -13.5286  -42.8355 H         1 UNK         0.0600 
    179 H179        2.2522  -12.7284  -44.9756 H         1 UNK         0.3000 
    180 H180        0.2878  -12.1324  -47.3132 H         1 UNK         0.0600 
    181 H181        0.9288  -10.0623  -48.5783 H         1 UNK         0.0600 
    182 H182       -0.3129   -9.7552  -47.3774 H         1 UNK         0.0600 
    183 H183        1.3449   -9.2704  -47.0585 H         1 UNK         0.0600 
    184 H184        2.3255  -12.8111  -47.7443 H         1 UNK         0.3000 
    185 H185        5.0571  -11.8906  -48.3301 H         1 UNK         0.0600 
    186 H186        6.8114  -12.6454  -46.6996 H         1 UNK         0.0600 
    187 H187        6.2675  -11.0095  -46.3700 H         1 UNK         0.0600 
    188 H188        5.6996  -12.3378  -45.3667 H         1 UNK         0.0600 
    189 H189        4.7026  -14.0842  -48.4119 H         1 UNK         0.3000 
    190 H190       -0.8978  -21.5248  -46.2940 H         1 UNK         0.3000 
    191 H191       -2.0667  -22.9098  -48.4486 H         1 UNK         0.0600 
    192 H192       -4.1912  -22.5265  -47.2216 H         1 UNK         0.0600 
    193 H193       -3.1883  -21.0866  -47.1331 H         1 UNK         0.0600 
    194 H194       -3.3085  -22.1582  -45.7469 H         1 UNK         0.0600 
    195 H195       -1.4366  -23.9736  -45.0811 H         1 UNK         0.3000 
    196 H196       -2.6618  -26.5373  -45.2939 H         1 UNK         0.0600 
    197 H197       -1.3542  -27.0465  -43.2405 H         1 UNK         0.0600 
    198 H198       -2.1146  -25.4667  -43.1219 H         1 UNK         0.0600 
    199 H199       -0.3912  -25.5930  -43.4650 H         1 UNK         0.0600 
    200 H200        0.5873  -25.3806  -46.1580 H         1 UNK         0.3000 
    201 H201        1.6647  -27.9853  -46.8008 H         1 UNK         0.0600 
    202 H202        3.1337  -26.1017  -46.1646 H         1 UNK         0.0600 
    203 H203        2.6292  -25.1844  -47.5792 H         1 UNK         0.0600 
    204 H204        3.5323  -26.6786  -47.7762 H         1 UNK         0.0600 
    205 H205        0.5208  -25.2160  -48.8560 H         1 UNK         0.3000 
    206 H206       -0.6409  -26.9372  -50.8581 H         1 UNK         0.0600 
    207 H207        1.6949  -27.3172  -51.5533 H         1 UNK         0.0600 
    208 H208        0.9441  -26.2341  -52.7090 H         1 UNK         0.0600 
    209 H209        2.0437  -25.5910  -51.4945 H         1 UNK         0.0600 
    210 H210       -2.4236  -25.5928  -50.3320 H         1 UNK         0.3000 
    211 H211       -2.4695  -22.7557  -50.8962 H         1 UNK         0.0600 
    212 H212       -4.7096  -24.8428  -50.6928 H         1 UNK         0.0600 
    213 H213       -4.9577  -23.1058  -50.7839 H         1 UNK         0.0600 
    214 H214       -4.1517  -23.7973  -49.3902 H         1 UNK         0.0600 
    215 H215       -3.5059  -21.7195  -52.6584 H         1 UNK         0.3000 
    216 H216       -3.2642  -22.9390  -55.2958 H         1 UNK         0.0600 
    217 H217       -4.0201  -20.7049  -56.0534 H         1 UNK         0.0600 
    218 H218       -2.7663  -20.4979  -54.8416 H         1 UNK         0.0600 
    219 H219       -4.4594  -20.2473  -54.4165 H         1 UNK         0.0600 
    220 H220       -5.1479  -22.8170  -56.8033 H         1 UNK         0.3000 
    221 H221       -7.5175  -24.1478  -55.7810 H         1 UNK         0.0600 
    222 H222       -6.7542  -23.1470  -58.5763 H         1 UNK         0.0600 
    223 H223       -6.5302  -24.7812  -57.9536 H         1 UNK         0.0600 
    224 H224       -8.1504  -24.1491  -58.1975 H         1 UNK         0.0600 
    225 H225       -7.9432  -22.3686  -54.2709 H         1 UNK         0.3000 
    226 H226       -9.1788  -20.7453  -53.4252 H         1 UNK         0.0600 
    227 H227      -11.1031  -21.5809  -54.7861 H         1 UNK         0.0600 
    228 H228      -11.1772  -19.8470  -54.5502 H         1 UNK         0.0600 
    229 H229      -10.6616  -20.5021  -56.1032 H         1 UNK         0.0600 
    230 H230       -9.9693  -18.4782  -55.5958 H         1 UNK         0.3000 
    231 H231       -9.2813  -16.4174  -56.0501 H         1 UNK         0.0600 
    232 H232       -7.0485  -16.1326  -57.1270 H         1 UNK         0.0600 
    233 H233       -7.8669  -17.5595  -57.7325 H         1 UNK         0.0600 
    234 H234       -6.5534  -17.7345  -56.5795 H         1 UNK         0.0600 
    235 H235       -6.0287  -16.3545  -55.1332 H         1 UNK         0.3000 
    236 H236       -6.3550  -14.5767  -52.9471 H         1 UNK         0.0600 
    237 H237       -3.9351  -16.2523  -53.8127 H         1 UNK         0.0600 
    238 H238       -4.3327  -14.6330  -54.3917 H         1 UNK         0.0600 
    239 H239       -3.8822  -14.8810  -52.7123 H         1 UNK         0.0600 
    240 H240       -6.3308  -18.0872  -53.0455 H         1 UNK         0.3000 
    241 H241       -6.0888  -18.2915  -50.0911 H         1 UNK         0.0600 
    242 H242       -8.6627  -17.5484  -52.0322 H         1 UNK         0.3800 
    243 H243       -9.8685  -18.4926  -51.1949 H         1 UNK         0.3800 
    244 H244       -5.7718  -20.7093  -50.4343 H         1 UNK         0.0800 
    245 H245       -6.0191  -20.5342  -52.1532 H         1 UNK         0.0800 
    246 H246       -3.8735  -19.1157  -49.1634 H         1 UNK         0.0800 
    247 H247       -3.3388  -20.7646  -49.4176 H         1 UNK         0.0800 
@<TRIPOS>BOND
     1    1    2 1    
     2    1  127 1    
     3    1  128 1    
     4    1  129 1    
     5    2    3 2    
     6    2    4 am   BACKBONE|DICT|INTERRES
     7    4    5 1    
     8    4  130 1    
     9    5    6 1    
    10    5   65 1    
    11    5  131 1    
    12    6    7 1    
    13    6  132 1    
    14    6  133 1    
    15    7    8 1    
    16    8    9 1    
    17    8  134 1    
    18    8  135 1    
    19    9   10 ar   
    20    9   14 ar   
    21   10   11 ar   
    22   10  136 1    
    23   11   12 ar   
    24   11  126 1    
    25   12   13 ar   
    26   12  137 1    
    27   13   14 ar   
    28   13   15 1    
    29   14  138 1    
    30   15   16 1    
    31   15  139 1    
    32   15  140 1    
    33   16   17 1    
    34   17   18 1    
    35   17  141 1    
    36   17  142 1    
    37   18   19 1    
    38   18   67 1    
    39   18  143 1    
    40   19   20 am   BACKBONE|DICT|INTERRES
    41   19  144 1    
    42   20   21 2    
    43   20   22 1    
    44   22   23 1    
    45   22   24 1    
    46   22  145 1    
    47   23  146 1    
    48   23  147 1    
    49   23  148 1    
    50   24   25 am   BACKBONE|DICT|INTERRES
    51   24  149 1    
    52   25   26 2    
    53   25   27 1    
    54   27   28 1    
    55   27   29 1    
    56   27  150 1    
    57   28  151 1    
    58   28  152 1    
    59   28  153 1    
    60   29   30 am   BACKBONE|DICT|INTERRES
    61   29  154 1    
    62   30   31 2    
    63   30   32 1    
    64   32   33 1    
    65   32   34 1    
    66   32  155 1    
    67   33  156 1    
    68   33  157 1    
    69   33  158 1    
    70   34   35 am   BACKBONE|DICT|INTERRES
    71   34  159 1    
    72   35   36 2    
    73   35   37 1    
    74   37   38 1    
    75   37   39 1    
    76   37  160 1    
    77   38  161 1    
    78   38  162 1    
    79   38  163 1    
    80   39   40 am   BACKBONE|DICT|INTERRES
    81   39  164 1    
    82   40   41 2    
    83   40   42 1    
    84   42   43 1    
    85   42   44 1    
    86   42  165 1    
    87   43  166 1    
    88   43  167 1    
    89   43  168 1    
    90   44   45 am   BACKBONE|DICT|INTERRES
    91   44  169 1    
    92   45   46 2    
    93   45   47 1    
    94   47   48 1    
    95   47   49 1    
    96   47  170 1    
    97   48  171 1    
    98   48  172 1    
    99   48  173 1    
   100   49   50 am   BACKBONE|DICT|INTERRES
   101   49  174 1    
   102   50   51 2    
   103   50   52 1    
   104   52   53 1    
   105   52   54 1    
   106   52  175 1    
   107   53  176 1    
   108   53  177 1    
   109   53  178 1    
   110   54   55 am   BACKBONE|DICT|INTERRES
   111   54  179 1    
   112   55   56 2    
   113   55   57 1    
   114   57   58 1    
   115   57   59 1    
   116   57  180 1    
   117   58  181 1    
   118   58  182 1    
   119   58  183 1    
   120   59   60 am   BACKBONE|DICT|INTERRES
   121   59  184 1    
   122   60   61 2    
   123   60   62 1    
   124   62   63 1    
   125   62   64 1    
   126   62  185 1    
   127   63  186 1    
   128   63  187 1    
   129   63  188 1    
   130   64   65 am   BACKBONE|DICT|INTERRES
   131   64  189 1    
   132   65   66 2    
   133   67   68 2    
   134   67   69 am   BACKBONE|DICT|INTERRES
   135   69   70 1    
   136   69  190 1    
   137   70   71 1    
   138   70   72 1    
   139   70  191 1    
   140   71  192 1    
   141   71  193 1    
   142   71  194 1    
   143   72   73 2    
   144   72   74 am   BACKBONE|DICT|INTERRES
   145   74   75 1    
   146   74  195 1    
   147   75   76 1    
   148   75   77 1    
   149   75  196 1    
   150   76  197 1    
   151   76  198 1    
   152   76  199 1    
   153   77   78 2    
   154   77   79 am   BACKBONE|DICT|INTERRES
   155   79   80 1    
   156   79  200 1    
   157   80   81 1    
   158   80   82 1    
   159   80  201 1    
   160   81  202 1    
   161   81  203 1    
   162   81  204 1    
   163   82   83 2    
   164   82   84 am   BACKBONE|DICT|INTERRES
   165   84   85 1    
   166   84  205 1    
   167   85   86 1    
   168   85   87 1    
   169   85  206 1    
   170   86  207 1    
   171   86  208 1    
   172   86  209 1    
   173   87   88 2    
   174   87   89 am   BACKBONE|DICT|INTERRES
   175   89   90 1    
   176   89  210 1    
   177   90   91 1    
   178   90   92 1    
   179   90  211 1    
   180   91  212 1    
   181   91  213 1    
   182   91  214 1    
   183   92   93 2    
   184   92   94 am   BACKBONE|DICT|INTERRES
   185   94   95 1    
   186   94  215 1    
   187   95   96 1    
   188   95   97 1    
   189   95  216 1    
   190   96  217 1    
   191   96  218 1    
   192   96  219 1    
   193   97   98 2    
   194   97   99 am   BACKBONE|DICT|INTERRES
   195   99  100 1    
   196   99  220 1    
   197  100  101 1    
   198  100  102 1    
   199  100  221 1    
   200  101  222 1    
   201  101  223 1    
   202  101  224 1    
   203  102  103 2    
   204  102  104 am   BACKBONE|DICT|INTERRES
   205  104  105 1    
   206  104  225 1    
   207  105  106 1    
   208  105  107 1    
   209  105  226 1    
   210  106  227 1    
   211  106  228 1    
   212  106  229 1    
   213  107  108 2    
   214  107  109 am   BACKBONE|DICT|INTERRES
   215  109  110 1    
   216  109  230 1    
   217  110  111 1    
   218  110  112 1    
   219  110  231 1    
   220  111  232 1    
   221  111  233 1    
   222  111  234 1    
   223  112  113 2    
   224  112  114 am   BACKBONE|DICT|INTERRES
   225  114  115 1    
   226  114  235 1    
   227  115  116 1    
   228  115  117 1    
   229  115  236 1    
   230  116  237 1    
   231  116  238 1    
   232  116  239 1    
   233  117  118 2    
   234  117  119 am   BACKBONE|DICT|INTERRES
   235  119  120 1    
   236  119  240 1    
   237  120  121 1    
   238  120  124 1    
   239  120  241 1    
   240  121  122 am   BACKBONE|DICT|INTERRES
   241  121  123 2    
   242  122  242 1    
   243  122  243 1    
   244  124  125 1    
   245  124  244 1    
   246  124  245 1    
   247  125  126 1    
   248  126  246 1    
   249  126  247 1    
@<TRIPOS>SUBSTRUCTURE
     1 UNK         1 GROUP             0       ****    0 ROOT    
