@<TRIPOS>MOLECULE
3R540
247   249    1
SMALL
USER_CHARGES


@<TRIPOS>ATOM
      1 CA          5.4278  -18.8267  -47.0389 C.3       0 UNK        -0.1800 
      2 C           5.1984  -17.6490  -47.9768 C.2       0 UNK         0.5000 
      3 O           5.9389  -16.6680  -47.9207 O.2       0 UNK        -0.5000 
      4 N           4.1607  -17.7345  -48.8196 N.am      1 UNK        -0.5000 
      5 CA          3.7743  -16.7919  -49.8861 C.3       1 UNK         0.1400 
      6 C6          4.8823  -16.5208  -50.9449 C.3       23 UNK        -0.0398 
      7 S7          5.6302  -18.0373  -51.6420 S.3       23 UNK        -0.2404 
      8 C8          4.6381  -18.3012  -53.1502 C.3       23 UNK        -0.0205 
      9 C9          3.1602  -18.5019  -52.8429 C.ar      23 UNK        -0.0193 
     10 C10         2.2004  -17.6537  -53.4048 C.ar      23 UNK        -0.1150 
     11 C11         0.8461  -17.8076  -53.0914 C.ar      23 UNK        -0.0193 
     12 C12         0.4573  -18.8066  -52.1960 C.ar      23 UNK        -0.1150 
     13 C13         1.4075  -19.6598  -51.6284 C.ar      23 UNK        -0.0193 
     14 C14         2.7534  -19.5191  -51.9733 C.ar      23 UNK        -0.1150 
     15 C15         0.9811  -20.7187  -50.6292 C.3       23 UNK        -0.0205 
     16 S16         0.7650  -19.9990  -48.9689 S.3       23 UNK        -0.2404 
     17 C17        -0.8013  -20.7768  -48.4572 C.3       23 UNK        -0.0398 
     18 CA         -0.5752  -22.1099  -47.7062 C.3       11 UNK         0.1400 
     19 N          -0.0927  -21.9034  -46.3359 N.am      11 UNK        -0.5000 
     20 C           0.2441  -22.8791  -45.4789 C.2       10 UNK         0.5000 
     21 O           0.2327  -24.0767  -45.7612 O.2       10 UNK        -0.5000 
     22 CA          0.5843  -22.4498  -44.0414 C.3       10 UNK         0.1400 
     23 CB          2.0016  -21.8623  -43.9528 C.3       10 UNK        -0.1800 
     24 N          -0.3914  -21.4950  -43.5140 N.am      10 UNK        -0.5000 
     25 C          -1.6752  -21.7901  -43.2608 C.2       9 UNK         0.5000 
     26 O          -2.1609  -22.9104  -43.4044 O.2       9 UNK        -0.5000 
     27 CA         -2.5825  -20.6313  -42.8163 C.3       9 UNK         0.1400 
     28 CB         -2.4894  -20.4166  -41.2985 C.3       9 UNK        -0.1800 
     29 N          -2.2669  -19.3852  -43.5122 N.am      9 UNK        -0.5000 
     30 C          -2.4869  -19.1781  -44.8199 C.2       8 UNK         0.5000 
     31 O          -2.9868  -20.0145  -45.5716 O.2       8 UNK        -0.5000 
     32 CA         -2.0227  -17.8247  -45.3902 C.3       8 UNK         0.1400 
     33 CB         -3.0709  -16.7505  -45.0697 C.3       8 UNK        -0.1800 
     34 N          -0.7233  -17.4013  -44.8635 N.am      8 UNK        -0.5000 
     35 C           0.4016  -18.1319  -44.9223 C.2       7 UNK         0.5000 
     36 O           0.4942  -19.1773  -45.5640 O.2       7 UNK        -0.5000 
     37 CA          1.6017  -17.6793  -44.0651 C.3       7 UNK         0.1400 
     38 CB          2.7522  -17.1780  -44.9459 C.3       7 UNK        -0.1800 
     39 N           1.2651  -16.6752  -43.0502 N.am      7 UNK        -0.5000 
     40 C           0.4608  -16.9043  -42.0004 C.2       6 UNK         0.5000 
     41 O          -0.0537  -18.0005  -41.7737 O.2       6 UNK        -0.5000 
     42 CA          0.1350  -15.7200  -41.0688 C.3       6 UNK         0.1400 
     43 CB          0.9827  -15.8022  -39.7896 C.3       6 UNK        -0.1800 
     44 N           0.2989  -14.3869  -41.6600 N.am      6 UNK        -0.5000 
     45 C          -0.3494  -13.9107  -42.7331 C.2       5 UNK         0.5000 
     46 O          -1.1162  -14.5927  -43.4190 O.2       5 UNK        -0.5000 
     47 CA         -0.1039  -12.4262  -43.0748 C.3       5 UNK         0.1400 
     48 CB          1.3736  -12.0170  -42.9095 C.3       5 UNK        -0.1800 
     49 N          -0.5009  -12.1582  -44.4528 N.am      5 UNK        -0.5000 
     50 C          -1.3549  -11.2137  -44.8688 C.2       4 UNK         0.5000 
     51 O          -1.9316  -10.4347  -44.1083 O.2       4 UNK        -0.5000 
     52 CA         -1.5955  -11.0922  -46.3915 C.3       4 UNK         0.1400 
     53 CB         -0.9212   -9.8248  -46.9420 C.3       4 UNK        -0.1800 
     54 N          -1.0931  -12.2470  -47.1377 N.am      4 UNK        -0.5000 
     55 C          -1.7094  -13.4337  -47.2116 C.2       3 UNK         0.5000 
     56 O          -2.8652  -13.6146  -46.8302 O.2       3 UNK        -0.5000 
     57 CA         -0.8969  -14.6213  -47.7768 C.3       3 UNK         0.1400 
     58 CB         -1.4925  -15.1284  -49.0963 C.3       3 UNK        -0.1800 
     59 N           0.5296  -14.3440  -47.9807 N.am      3 UNK        -0.5000 
     60 C           1.4275  -14.1206  -47.0137 C.2       2 UNK         0.5000 
     61 O           1.1340  -14.0946  -45.8187 O.2       2 UNK        -0.5000 
     62 CA          2.8857  -13.8952  -47.4636 C.3       2 UNK         0.1400 
     63 CB          3.8138  -13.5128  -46.2956 C.3       2 UNK        -0.1800 
     64 N           3.4299  -15.0769  -48.1317 N.am      2 UNK        -0.5000 
     65 C           3.1605  -15.4662  -49.3840 C.2       1 UNK         0.5000 
     66 O           2.4234  -14.8257  -50.1355 O.2       1 UNK        -0.5000 
     67 C          -1.8562  -22.9644  -47.7533 C.2       11 UNK         0.5000 
     68 O          -1.9534  -23.8546  -48.6025 O.2       11 UNK        -0.5000 
     69 N          -2.7939  -22.6888  -46.8355 N.am      12 UNK        -0.5000 
     70 CA         -4.0435  -23.4264  -46.6861 C.3       12 UNK         0.1400 
     71 CB         -4.9933  -22.6626  -45.7520 C.3       12 UNK        -0.1800 
     72 C          -3.8208  -24.8688  -46.1992 C.2       12 UNK         0.5000 
     73 O          -4.3712  -25.7953  -46.7938 O.2       12 UNK        -0.5000 
     74 N          -3.0011  -25.0362  -45.1501 N.am      13 UNK        -0.5000 
     75 CA         -2.6726  -26.3273  -44.5389 C.3       13 UNK         0.1400 
     76 CB         -1.9032  -26.0990  -43.2288 C.3       13 UNK        -0.1800 
     77 C          -1.8798  -27.2600  -45.4710 C.2       13 UNK         0.5000 
     78 O          -2.1570  -28.4595  -45.5065 O.2       13 UNK        -0.5000 
     79 N          -0.9269  -26.6944  -46.2251 N.am      14 UNK        -0.5000 
     80 CA         -0.1439  -27.4078  -47.2372 C.3       14 UNK         0.1400 
     81 CB          1.0990  -26.5729  -47.5854 C.3       14 UNK        -0.1800 
     82 C          -0.9451  -27.7136  -48.5179 C.2       14 UNK         0.5000 
     83 O          -0.5131  -28.5521  -49.3097 O.2       14 UNK        -0.5000 
     84 N          -2.0667  -27.0021  -48.7127 N.am      15 UNK        -0.5000 
     85 CA         -2.9206  -26.9793  -49.9050 C.3       15 UNK         0.1400 
     86 CB         -3.5962  -28.3458  -50.1376 C.3       15 UNK        -0.1800 
     87 C          -2.1881  -26.4417  -51.1538 C.2       15 UNK         0.5000 
     88 O          -2.5572  -26.7743  -52.2812 O.2       15 UNK        -0.5000 
     89 N          -1.1720  -25.5974  -50.9253 N.am      16 UNK        -0.5000 
     90 CA         -0.4164  -24.8819  -51.9535 C.3       16 UNK         0.1400 
     91 CB          0.8740  -24.3314  -51.3291 C.3       16 UNK        -0.1800 
     92 C          -1.2552  -23.7541  -52.5797 C.2       16 UNK         0.5000 
     93 O          -1.1525  -23.5019  -53.7802 O.2       16 UNK        -0.5000 
     94 N          -2.1085  -23.1426  -51.7527 N.am      17 UNK        -0.5000 
     95 CA         -3.1967  -22.2654  -52.1473 C.3       17 UNK         0.1400 
     96 CB         -2.7075  -20.8152  -52.3173 C.3       17 UNK        -0.1800 
     97 C          -4.2373  -22.4231  -51.0387 C.2       17 UNK         0.5000 
     98 O          -4.1453  -21.7372  -50.0212 O.2       17 UNK        -0.5000 
     99 N          -5.1617  -23.3751  -51.2234 N.am      18 UNK        -0.5000 
    100 CA        -6.1339  -23.8387  -50.2245 C.3       18 UNK         0.1400 
    101 CB        -7.0224  -24.9188  -50.8594 C.3       18 UNK        -0.1800 
    102 C         -7.0017  -22.7319  -49.5891 C.2       18 UNK         0.5000 
    103 O         -7.3677  -22.8460  -48.4194 O.2       18 UNK        -0.5000 
    104 N         -7.2948  -21.6836  -50.3679 N.am      19 UNK        -0.5000 
    105 CA        -8.0603  -20.5086  -49.9492 C.3       19 UNK         0.1400 
    106 CB        -9.0572  -20.1672  -51.0708 C.3       19 UNK        -0.1800 
    107 C         -7.1681  -19.2894  -49.6310 C.2       19 UNK         0.5000 
    108 O         -7.7134  -18.2299  -49.3197 O.2       19 UNK        -0.5000 
    109 N         -5.8352  -19.4345  -49.7447 N.am      20 UNK        -0.5000 
    110 CA        -4.8141  -18.3798  -49.6491 C.3       20 UNK         0.1400 
    111 CB        -4.6826  -17.8767  -48.1985 C.3       20 UNK        -0.1800 
    112 C         -5.0629  -17.2489  -50.6727 C.2       20 UNK         0.5000 
    113 O         -5.0965  -16.0700  -50.3158 O.2       20 UNK        -0.5000 
    114 N         -5.2874  -17.6618  -51.9291 N.am      21 UNK        -0.5000 
    115 CA        -5.8545  -16.8751  -53.0295 C.3       21 UNK         0.1400 
    116 CB        -5.9084  -17.7592  -54.2854 C.3       21 UNK        -0.1800 
    117 C         -5.1658  -15.5337  -53.3485 C.2       21 UNK         0.5000 
    118 O         -5.8480  -14.6066  -53.7878 O.2       21 UNK        -0.5000 
    119 N         -3.8487  -15.4441  -53.1258 N.am      22 UNK        -0.5000 
    120 CA        -3.0730  -14.2007  -53.2736 C.3       22 UNK         0.1400 
    121 C         -3.1759  -13.2142  -52.0703 C.2       22 UNK         0.5000 
    122 N         -3.8727  -13.5396  -50.9877 N.am      22 UNK        -0.7600 
    123 O         -2.6334  -12.1141  -52.1314 O.2       22 UNK        -0.5000 
    124 C124       -1.6112  -14.4657  -53.7186 C.3       23 UNK        -0.0398 
    125 S125       -0.6462  -15.5373  -52.5969 S.3       23 UNK        -0.2404 
    126 C126       -0.1967  -16.8962  -53.7178 C.3       23 UNK        -0.0205 
    127 H127        5.4844  -18.4821  -46.0059 H         1 UNK         0.0600 
    128 H128        6.3673  -19.3216  -47.2846 H         1 UNK         0.0600 
    129 H129        4.6262  -19.5633  -47.1091 H         1 UNK         0.0600 
    130 H130        3.5785  -18.5599  -48.7750 H         1 UNK         0.3000 
    131 H131        2.9485  -17.2864  -50.3955 H         1 UNK         0.0600 
    132 H132        5.6865  -15.9274  -50.5072 H         1 UNK         0.0800 
    133 H133        4.4844  -15.9215  -51.7659 H         1 UNK         0.0800 
    134 H134        5.0133  -19.1835  -53.6704 H         1 UNK         0.0800 
    135 H135        4.7871  -17.4576  -53.8263 H         1 UNK         0.0800 
    136 H136        2.5062  -16.8670  -54.0806 H         1 UNK         0.1150 
    137 H137       -0.5842  -18.9064  -51.9288 H         1 UNK         0.1150 
    138 H138        3.4931  -20.1727  -51.5318 H         1 UNK         0.1150 
    139 H139        1.7303  -21.5095  -50.5716 H         1 UNK         0.0800 
    140 H140        0.0653  -21.1919  -50.9834 H         1 UNK         0.0800 
    141 H141       -1.3441  -20.0720  -47.8254 H         1 UNK         0.0800 
    142 H142       -1.4294  -20.9143  -49.3375 H         1 UNK         0.0800 
    143 H143        0.1934  -22.6789  -48.2334 H         1 UNK         0.0600 
    144 H144       -0.0071  -20.9365  -46.0310 H         1 UNK         0.3000 
    145 H145        0.5518  -23.3417  -43.4118 H         1 UNK         0.0600 
    146 H146        2.7431  -22.5943  -44.2752 H         1 UNK         0.0600 
    147 H147        2.2486  -21.5794  -42.9294 H         1 UNK         0.0600 
    148 H148        2.1217  -20.9816  -44.5832 H         1 UNK         0.0600 
    149 H149       -0.0861  -20.5395  -43.4038 H         1 UNK         0.3000 
    150 H150       -3.6129  -20.9016  -43.0573 H         1 UNK         0.0600 
    151 H151       -1.4759  -20.1613  -40.9870 H         1 UNK         0.0600 
    152 H152       -2.7789  -21.3201  -40.7600 H         1 UNK         0.0600 
    153 H153       -3.1533  -19.6161  -40.9712 H         1 UNK         0.0600 
    154 H154       -1.7910  -18.6727  -42.9724 H         1 UNK         0.3000 
    155 H155       -1.9325  -17.9214  -46.4738 H         1 UNK         0.0600 
    156 H156       -2.7942  -15.7899  -45.4959 H         1 UNK         0.0600 
    157 H157       -3.1869  -16.6087  -43.9944 H         1 UNK         0.0600 
    158 H158       -4.0483  -17.0176  -45.4723 H         1 UNK         0.0600 
    159 H159       -0.7133  -16.5397  -44.3286 H         1 UNK         0.3000 
    160 H160        1.9579  -18.5668  -43.5379 H         1 UNK         0.0600 
    161 H161        3.6368  -16.9442  -44.3536 H         1 UNK         0.0600 
    162 H162        2.4713  -16.2883  -45.5014 H         1 UNK         0.0600 
    163 H163        3.0359  -17.9375  -45.6743 H         1 UNK         0.0600 
    164 H164        1.6178  -15.7401  -43.1953 H         1 UNK         0.3000 
    165 H165       -0.9152  -15.8212  -40.7868 H         1 UNK         0.0600 
    166 H166        0.6861  -15.0406  -39.0681 H         1 UNK         0.0600 
    167 H167        0.8638  -16.7713  -39.3019 H         1 UNK         0.0600 
    168 H168        2.0445  -15.6696  -40.0023 H         1 UNK         0.0600 
    169 H169        0.9195  -13.7621  -41.1655 H         1 UNK         0.3000 
    170 H170       -0.7100  -11.8377  -42.3837 H         1 UNK         0.0600 
    171 H171        1.5334  -10.9891  -43.2370 H         1 UNK         0.0600 
    172 H172        2.0349  -12.6570  -43.4955 H         1 UNK         0.0600 
    173 H173        1.6937  -12.0691  -41.8683 H         1 UNK         0.0600 
    174 H174       -0.1091  -12.8084  -45.1282 H         1 UNK         0.3000 
    175 H175       -2.6726  -11.0044  -46.5516 H         1 UNK         0.0600 
    176 H176       -1.2950   -8.9319  -46.4384 H         1 UNK         0.0600 
    177 H177        0.1608   -9.8514  -46.8025 H         1 UNK         0.0600 
    178 H178       -1.1211   -9.7024  -48.0069 H         1 UNK         0.0600 
    179 H179       -0.1535  -12.1784  -47.4987 H         1 UNK         0.3000 
    180 H180       -0.9710  -15.4271  -47.0449 H         1 UNK         0.0600 
    181 H181       -1.3736  -14.3901  -49.8891 H         1 UNK         0.0600 
    182 H182       -2.5585  -15.3368  -48.9979 H         1 UNK         0.0600 
    183 H183       -1.0092  -16.0505  -49.4207 H         1 UNK         0.0600 
    184 H184        0.8714  -14.3843  -48.9364 H         1 UNK         0.3000 
    185 H185        2.8826  -13.0617  -48.1691 H         1 UNK         0.0600 
    186 H186        3.4525  -12.6185  -45.7855 H         1 UNK         0.0600 
    187 H187        3.8840  -14.3082  -45.5531 H         1 UNK         0.0600 
    188 H188        4.8224  -13.2979  -46.6496 H         1 UNK         0.0600 
    189 H189        4.0831  -15.6402  -47.6020 H         1 UNK         0.3000 
    190 H190       -2.6620  -21.8937  -46.2187 H         1 UNK         0.3000 
    191 H191       -4.5123  -23.4706  -47.6680 H         1 UNK         0.0600 
    192 H192       -5.2166  -21.6712  -46.1477 H         1 UNK         0.0600 
    193 H193       -5.9427  -23.1894  -45.6463 H         1 UNK         0.0600 
    194 H194       -4.5702  -22.5392  -44.7549 H         1 UNK         0.0600 
    195 H195       -2.6095  -24.2149  -44.6952 H         1 UNK         0.3000 
    196 H196       -3.6130  -26.8267  -44.2955 H         1 UNK         0.0600 
    197 H197       -1.6468  -27.0467  -42.7531 H         1 UNK         0.0600 
    198 H198       -2.5004  -25.5298  -42.5159 H         1 UNK         0.0600 
    199 H199       -0.9740  -25.5533  -43.3992 H         1 UNK         0.0600 
    200 H200       -0.7119  -25.7081  -46.0969 H         1 UNK         0.3000 
    201 H201        0.1881  -28.3594  -46.8166 H         1 UNK         0.0600 
    202 H202        1.7311  -27.0908  -48.3082 H         1 UNK         0.0600 
    203 H203        1.7068  -26.3825  -46.7005 H         1 UNK         0.0600 
    204 H204        0.8270  -25.6091  -48.0186 H         1 UNK         0.0600 
    205 H205       -2.3255  -26.3409  -47.9919 H         1 UNK         0.3000 
    206 H206       -3.7097  -26.2570  -49.6898 H         1 UNK         0.0600 
    207 H207       -4.0995  -28.6935  -49.2352 H         1 UNK         0.0600 
    208 H208       -4.3501  -28.2797  -50.9231 H         1 UNK         0.0600 
    209 H209       -2.8781  -29.1091  -50.4383 H         1 UNK         0.0600 
    210 H210       -0.9927  -25.3385  -49.9637 H         1 UNK         0.3000 
    211 H211       -0.1475  -25.5837  -52.7460 H         1 UNK         0.0600 
    212 H212        0.6625  -23.6918  -50.4723 H         1 UNK         0.0600 
    213 H213        1.4420  -23.7445  -52.0522 H         1 UNK         0.0600 
    214 H214        1.5196  -25.1407  -50.9872 H         1 UNK         0.0600 
    215 H215       -2.1280  -23.4340  -50.7812 H         1 UNK         0.3000 
    216 H216       -3.6257  -22.6080  -53.0916 H         1 UNK         0.0600 
    217 H217       -3.5224  -20.1678  -52.6410 H         1 UNK         0.0600 
    218 H218       -1.9237  -20.7505  -53.0721 H         1 UNK         0.0600 
    219 H219       -2.3123  -20.4044  -51.3898 H         1 UNK         0.0600 
    220 H220       -5.1485  -23.8919  -52.0913 H         1 UNK         0.3000 
    221 H221       -5.5688  -24.3139  -49.4227 H         1 UNK         0.0600 
    222 H222       -7.5848  -24.5290  -51.7087 H         1 UNK         0.0600 
    223 H223       -6.4288  -25.7646  -51.2075 H         1 UNK         0.0600 
    224 H224       -7.7433  -25.3065  -50.1381 H         1 UNK         0.0600 
    225 H225       -6.9538  -21.6855  -51.3180 H         1 UNK         0.3000 
    226 H226       -8.6318  -20.7323  -49.0461 H         1 UNK         0.0600 
    227 H227       -9.7083  -21.0137  -51.2899 H         1 UNK         0.0600 
    228 H228       -8.5459  -19.8890  -51.9934 H         1 UNK         0.0600 
    229 H229       -9.7000  -19.3329  -50.7873 H         1 UNK         0.0600 
    230 H230       -5.4661  -20.3648  -49.9198 H         1 UNK         0.3000 
    231 H231       -3.8636  -18.8412  -49.9215 H         1 UNK         0.0600 
    232 H232       -5.5831  -17.3622  -47.8617 H         1 UNK         0.0600 
    233 H233       -3.8518  -17.1779  -48.1024 H         1 UNK         0.0600 
    234 H234       -4.4936  -18.7040  -47.5141 H         1 UNK         0.0600 
    235 H235       -5.2290  -18.6537  -52.1002 H         1 UNK         0.3000 
    236 H236       -6.8810  -16.6379  -52.7426 H         1 UNK         0.0600 
    237 H237       -4.9124  -18.0834  -54.5903 H         1 UNK         0.0600 
    238 H238       -6.5160  -18.6488  -54.1180 H         1 UNK         0.0600 
    239 H239       -6.3501  -17.2214  -55.1258 H         1 UNK         0.0600 
    240 H240       -3.3594  -16.2353  -52.7351 H         1 UNK         0.3000 
    241 H241       -3.5209  -13.6444  -54.0994 H         1 UNK         0.0600 
    242 H242       -4.3228  -14.4471  -50.8972 H         1 UNK         0.3800 
    243 H243       -3.9409  -12.8789  -50.2316 H         1 UNK         0.3800 
    244 H244       -1.0702  -13.5253  -53.8377 H         1 UNK         0.0800 
    245 H245       -1.6266  -14.9110  -54.7142 H         1 UNK         0.0800 
    246 H246       -1.0900  -17.4692  -53.9718 H         1 UNK         0.0800 
    247 H247        0.1861  -16.4864  -54.6541 H         1 UNK         0.0800 
@<TRIPOS>BOND
     1    1    2 1    
     2    1  127 1    
     3    1  128 1    
     4    1  129 1    
     5    2    3 2    
     6    2    4 am   BACKBONE|DICT|INTERRES
     7    4    5 1    
     8    4  130 1    
     9    5    6 1    
    10    5   65 1    
    11    5  131 1    
    12    6    7 1    
    13    6  132 1    
    14    6  133 1    
    15    7    8 1    
    16    8    9 1    
    17    8  134 1    
    18    8  135 1    
    19    9   10 ar   
    20    9   14 ar   
    21   10   11 ar   
    22   10  136 1    
    23   11   12 ar   
    24   11  126 1    
    25   12   13 ar   
    26   12  137 1    
    27   13   14 ar   
    28   13   15 1    
    29   14  138 1    
    30   15   16 1    
    31   15  139 1    
    32   15  140 1    
    33   16   17 1    
    34   17   18 1    
    35   17  141 1    
    36   17  142 1    
    37   18   19 1    
    38   18   67 1    
    39   18  143 1    
    40   19   20 am   BACKBONE|DICT|INTERRES
    41   19  144 1    
    42   20   21 2    
    43   20   22 1    
    44   22   23 1    
    45   22   24 1    
    46   22  145 1    
    47   23  146 1    
    48   23  147 1    
    49   23  148 1    
    50   24   25 am   BACKBONE|DICT|INTERRES
    51   24  149 1    
    52   25   26 2    
    53   25   27 1    
    54   27   28 1    
    55   27   29 1    
    56   27  150 1    
    57   28  151 1    
    58   28  152 1    
    59   28  153 1    
    60   29   30 am   BACKBONE|DICT|INTERRES
    61   29  154 1    
    62   30   31 2    
    63   30   32 1    
    64   32   33 1    
    65   32   34 1    
    66   32  155 1    
    67   33  156 1    
    68   33  157 1    
    69   33  158 1    
    70   34   35 am   BACKBONE|DICT|INTERRES
    71   34  159 1    
    72   35   36 2    
    73   35   37 1    
    74   37   38 1    
    75   37   39 1    
    76   37  160 1    
    77   38  161 1    
    78   38  162 1    
    79   38  163 1    
    80   39   40 am   BACKBONE|DICT|INTERRES
    81   39  164 1    
    82   40   41 2    
    83   40   42 1    
    84   42   43 1    
    85   42   44 1    
    86   42  165 1    
    87   43  166 1    
    88   43  167 1    
    89   43  168 1    
    90   44   45 am   BACKBONE|DICT|INTERRES
    91   44  169 1    
    92   45   46 2    
    93   45   47 1    
    94   47   48 1    
    95   47   49 1    
    96   47  170 1    
    97   48  171 1    
    98   48  172 1    
    99   48  173 1    
   100   49   50 am   BACKBONE|DICT|INTERRES
   101   49  174 1    
   102   50   51 2    
   103   50   52 1    
   104   52   53 1    
   105   52   54 1    
   106   52  175 1    
   107   53  176 1    
   108   53  177 1    
   109   53  178 1    
   110   54   55 am   BACKBONE|DICT|INTERRES
   111   54  179 1    
   112   55   56 2    
   113   55   57 1    
   114   57   58 1    
   115   57   59 1    
   116   57  180 1    
   117   58  181 1    
   118   58  182 1    
   119   58  183 1    
   120   59   60 am   BACKBONE|DICT|INTERRES
   121   59  184 1    
   122   60   61 2    
   123   60   62 1    
   124   62   63 1    
   125   62   64 1    
   126   62  185 1    
   127   63  186 1    
   128   63  187 1    
   129   63  188 1    
   130   64   65 am   BACKBONE|DICT|INTERRES
   131   64  189 1    
   132   65   66 2    
   133   67   68 2    
   134   67   69 am   BACKBONE|DICT|INTERRES
   135   69   70 1    
   136   69  190 1    
   137   70   71 1    
   138   70   72 1    
   139   70  191 1    
   140   71  192 1    
   141   71  193 1    
   142   71  194 1    
   143   72   73 2    
   144   72   74 am   BACKBONE|DICT|INTERRES
   145   74   75 1    
   146   74  195 1    
   147   75   76 1    
   148   75   77 1    
   149   75  196 1    
   150   76  197 1    
   151   76  198 1    
   152   76  199 1    
   153   77   78 2    
   154   77   79 am   BACKBONE|DICT|INTERRES
   155   79   80 1    
   156   79  200 1    
   157   80   81 1    
   158   80   82 1    
   159   80  201 1    
   160   81  202 1    
   161   81  203 1    
   162   81  204 1    
   163   82   83 2    
   164   82   84 am   BACKBONE|DICT|INTERRES
   165   84   85 1    
   166   84  205 1    
   167   85   86 1    
   168   85   87 1    
   169   85  206 1    
   170   86  207 1    
   171   86  208 1    
   172   86  209 1    
   173   87   88 2    
   174   87   89 am   BACKBONE|DICT|INTERRES
   175   89   90 1    
   176   89  210 1    
   177   90   91 1    
   178   90   92 1    
   179   90  211 1    
   180   91  212 1    
   181   91  213 1    
   182   91  214 1    
   183   92   93 2    
   184   92   94 am   BACKBONE|DICT|INTERRES
   185   94   95 1    
   186   94  215 1    
   187   95   96 1    
   188   95   97 1    
   189   95  216 1    
   190   96  217 1    
   191   96  218 1    
   192   96  219 1    
   193   97   98 2    
   194   97   99 am   BACKBONE|DICT|INTERRES
   195   99  100 1    
   196   99  220 1    
   197  100  101 1    
   198  100  102 1    
   199  100  221 1    
   200  101  222 1    
   201  101  223 1    
   202  101  224 1    
   203  102  103 2    
   204  102  104 am   BACKBONE|DICT|INTERRES
   205  104  105 1    
   206  104  225 1    
   207  105  106 1    
   208  105  107 1    
   209  105  226 1    
   210  106  227 1    
   211  106  228 1    
   212  106  229 1    
   213  107  108 2    
   214  107  109 am   BACKBONE|DICT|INTERRES
   215  109  110 1    
   216  109  230 1    
   217  110  111 1    
   218  110  112 1    
   219  110  231 1    
   220  111  232 1    
   221  111  233 1    
   222  111  234 1    
   223  112  113 2    
   224  112  114 am   BACKBONE|DICT|INTERRES
   225  114  115 1    
   226  114  235 1    
   227  115  116 1    
   228  115  117 1    
   229  115  236 1    
   230  116  237 1    
   231  116  238 1    
   232  116  239 1    
   233  117  118 2    
   234  117  119 am   BACKBONE|DICT|INTERRES
   235  119  120 1    
   236  119  240 1    
   237  120  121 1    
   238  120  124 1    
   239  120  241 1    
   240  121  122 am   BACKBONE|DICT|INTERRES
   241  121  123 2    
   242  122  242 1    
   243  122  243 1    
   244  124  125 1    
   245  124  244 1    
   246  124  245 1    
   247  125  126 1    
   248  126  246 1    
   249  126  247 1    
@<TRIPOS>SUBSTRUCTURE
     1 UNK         1 GROUP             0       ****    0 ROOT    
