@<TRIPOS>MOLECULE
3R540
247   249    1
SMALL
USER_CHARGES


@<TRIPOS>ATOM
      1 CA          2.0233  -10.8360  -48.7316 C.3       0 UNK        -0.1800 
      2 C           1.9805  -12.1578  -47.9792 C.2       0 UNK         0.5000 
      3 O           2.1688  -12.1714  -46.7636 O.2       0 UNK        -0.5000 
      4 N           1.7493  -13.2632  -48.7026 N.am      1 UNK        -0.5000 
      5 CA          1.6158  -14.6396  -48.1937 C.3       1 UNK         0.1400 
      6 C6          0.3259  -14.8816  -47.3602 C.3       23 UNK        -0.0398 
      7 S7         -1.2216  -14.2503  -48.0988 S.3       23 UNK        -0.2404 
      8 C8         -1.3154  -15.1173  -49.6984 C.3       23 UNK        -0.0205 
      9 C9         -1.5892  -16.6074  -49.5547 C.ar      23 UNK        -0.0193 
     10 C10        -2.8661  -17.0528  -49.1992 C.ar      23 UNK        -0.1150 
     11 C11        -3.1507  -18.4199  -49.1371 C.ar      23 UNK        -0.0193 
     12 C12        -2.1421  -19.3446  -49.4154 C.ar      23 UNK        -0.1150 
     13 C13        -0.8631  -18.9127  -49.7785 C.ar      23 UNK        -0.0193 
     14 C14        -0.5904  -17.5431  -49.8420 C.ar      23 UNK        -0.1150 
     15 C15         0.2044  -19.9316  -50.1481 C.3       23 UNK        -0.0205 
     16 S16         1.5969  -19.9905  -48.9728 S.3       23 UNK        -0.2404 
     17 C17         0.7760  -20.1813  -47.3552 C.3       23 UNK        -0.0398 
     18 CA          0.5782  -21.6515  -46.9132 C.3       11 UNK         0.1400 
     19 N           0.6063  -21.7776  -45.4504 N.am      11 UNK        -0.5000 
     20 C           0.4387  -22.9005  -44.7351 C.2       10 UNK         0.5000 
     21 O           0.2216  -24.0069  -45.2312 O.2       10 UNK        -0.5000 
     22 CA          0.4705  -22.7463  -43.2063 C.3       10 UNK         0.1400 
     23 CB          1.9123  -22.5938  -42.6977 C.3       10 UNK        -0.1800 
     24 N          -0.3268  -21.5940  -42.7864 N.am      10 UNK        -0.5000 
     25 C          -1.6514  -21.6306  -42.5834 C.2       9 UNK         0.5000 
     26 O          -2.3191  -22.6641  -42.6263 O.2       9 UNK        -0.5000 
     27 CA         -2.3604  -20.2891  -42.3025 C.3       9 UNK         0.1400 
     28 CB         -2.4011  -20.0087  -40.7929 C.3       9 UNK        -0.1800 
     29 N          -1.7547  -19.1424  -42.9806 N.am      9 UNK        -0.5000 
     30 C          -1.6369  -19.0034  -44.3088 C.2       8 UNK         0.5000 
     31 O          -2.0573  -19.8197  -45.1253 O.2       8 UNK        -0.5000 
     32 CA         -0.8632  -17.7710  -44.8072 C.3       8 UNK         0.1400 
     33 CB         -1.8178  -16.5748  -44.9257 C.3       8 UNK        -0.1800 
     34 N           0.2889  -17.4322  -43.9639 N.am      8 UNK        -0.5000 
     35 C           1.2991  -18.2660  -43.6663 C.2       7 UNK         0.5000 
     36 O           1.3633  -19.4276  -44.0678 O.2       7 UNK        -0.5000 
     37 CA          2.3950  -17.7514  -42.7224 C.3       7 UNK         0.1400 
     38 CB          3.4838  -17.0024  -43.4934 C.3       7 UNK        -0.1800 
     39 N           1.8489  -16.8882  -41.6798 N.am      7 UNK        -0.5000 
     40 C           1.3018  -17.3444  -40.5458 C.2       6 UNK         0.5000 
     41 O           1.2664  -18.5342  -40.2302 O.2       6 UNK        -0.5000 
     42 CA          0.6591  -16.2950  -39.6212 C.3       6 UNK         0.1400 
     43 CB          1.7210  -15.6382  -38.7262 C.3       6 UNK        -0.1800 
     44 N          -0.0605  -15.2551  -40.3568 N.am      6 UNK        -0.5000 
     45 C          -1.1431  -15.4673  -41.1178 C.2       5 UNK         0.5000 
     46 O          -1.6700  -16.5699  -41.2725 O.2       5 UNK        -0.5000 
     47 CA         -1.7160  -14.2419  -41.8545 C.3       5 UNK         0.1400 
     48 CB         -2.7491  -13.5250  -40.9726 C.3       5 UNK        -0.1800 
     49 N          -0.7116  -13.2713  -42.3011 N.am      5 UNK        -0.5000 
     50 C           0.3329  -13.5250  -43.1032 C.2       4 UNK         0.5000 
     51 O           0.6202  -14.6530  -43.5079 O.2       4 UNK        -0.5000 
     52 CA          1.1706  -12.3082  -43.5500 C.3       4 UNK         0.1400 
     53 CB          1.2060  -11.1688  -42.5058 C.3       4 UNK        -0.1800 
     54 N           2.5312  -12.6576  -43.9694 N.am      4 UNK        -0.5000 
     55 C           3.4973  -13.1965  -43.2135 C.2       3 UNK         0.5000 
     56 O           3.3336  -13.5604  -42.0466 O.2       3 UNK        -0.5000 
     57 CA          4.8757  -13.3377  -43.8826 C.3       3 UNK         0.1400 
     58 CB          5.9407  -13.9704  -42.9613 C.3       3 UNK        -0.1800 
     59 N           4.7731  -14.0742  -45.1428 N.am      3 UNK        -0.5000 
     60 C           5.6689  -14.0212  -46.1358 C.2       2 UNK         0.5000 
     61 O           6.6794  -13.3174  -46.1009 O.2       2 UNK        -0.5000 
     62 CA          5.4027  -14.8745  -47.3925 C.3       2 UNK         0.1400 
     63 CB          5.7597  -16.3560  -47.1598 C.3       2 UNK        -0.1800 
     64 N           4.0546  -14.7069  -47.9480 N.am      2 UNK        -0.5000 
     65 C           2.8816  -15.1147  -47.4431 C.2       1 UNK         0.5000 
     66 O           2.7782  -15.7879  -46.4186 O.2       1 UNK        -0.5000 
     67 C          -0.7004  -22.2492  -47.5353 C.2       11 UNK         0.5000 
     68 O          -0.6182  -22.9300  -48.5575 O.2       11 UNK        -0.5000 
     69 N          -1.8420  -22.0363  -46.8667 N.am      12 UNK        -0.5000 
     70 CA         -3.1659  -22.5788  -47.1723 C.3       12 UNK         0.1400 
     71 CB         -4.1334  -22.1443  -46.0610 C.3       12 UNK        -0.1800 
     72 C          -3.2221  -24.1092  -47.3408 C.2       12 UNK         0.5000 
     73 O          -4.0582  -24.5902  -48.1070 O.2       12 UNK        -0.5000 
     74 N          -2.3411  -24.8330  -46.6387 N.am      13 UNK        -0.5000 
     75 CA         -2.1932  -26.2826  -46.7348 C.3       13 UNK         0.1400 
     76 CB         -2.1155  -26.8702  -45.3169 C.3       13 UNK        -0.1800 
     77 C          -0.9425  -26.6669  -47.5426 C.2       13 UNK         0.5000 
     78 O          -0.9971  -27.6207  -48.3195 O.2       13 UNK        -0.5000 
     79 N           0.1651  -25.9400  -47.3343 N.am      14 UNK        -0.5000 
     80 CA          1.4772  -26.2412  -47.9093 C.3       14 UNK         0.1400 
     81 CB          2.5504  -25.4295  -47.1681 C.3       14 UNK        -0.1800 
     82 C           1.5753  -26.0009  -49.4271 C.2       14 UNK         0.5000 
     83 O           2.3073  -26.7292  -50.0992 O.2       14 UNK        -0.5000 
     84 N           0.8577  -24.9922  -49.9357 N.am      15 UNK        -0.5000 
     85 CA          0.8529  -24.6078  -51.3490 C.3       15 UNK         0.1400 
     86 CB          1.7260  -23.3571  -51.5396 C.3       15 UNK        -0.1800 
     87 C          -0.5699  -24.3732  -51.8798 C.2       15 UNK         0.5000 
     88 O          -0.8340  -24.6884  -53.0394 O.2       15 UNK        -0.5000 
     89 N          -1.4550  -23.8347  -51.0280 N.am      16 UNK        -0.5000 
     90 CA         -2.8783  -23.5609  -51.2612 C.3       16 UNK         0.1400 
     91 CB         -3.6498  -24.8627  -51.5679 C.3       16 UNK        -0.1800 
     92 C          -3.1713  -22.4391  -52.2816 C.2       16 UNK         0.5000 
     93 O          -4.3184  -22.3098  -52.7111 O.2       16 UNK        -0.5000 
     94 N          -2.1459  -21.6392  -52.6125 N.am      17 UNK        -0.5000 
     95 CA         -2.1413  -20.5364  -53.5801 C.3       17 UNK         0.1400 
     96 CB         -3.0131  -19.3598  -53.0900 C.3       17 UNK        -0.1800 
     97 C          -2.4586  -21.0032  -55.0194 C.2       17 UNK         0.5000 
     98 O          -2.0640  -22.1083  -55.3986 O.2       17 UNK        -0.5000 
     99 N          -3.1126  -20.1452  -55.8121 N.am      18 UNK        -0.5000 
    100 CA        -3.4605  -20.3982  -57.2114 C.3       18 UNK         0.1400 
    101 CB        -2.2320  -20.2070  -58.1207 C.3       18 UNK        -0.1800 
    102 C         -4.6230  -19.5079  -57.6742 C.2       18 UNK         0.5000 
    103 O         -5.4909  -19.9871  -58.4045 O.2       18 UNK        -0.5000 
    104 N         -4.6338  -18.2362  -57.2404 N.am      19 UNK        -0.5000 
    105 CA        -5.6786  -17.2540  -57.5648 C.3       19 UNK         0.1400 
    106 CB        -5.2352  -15.8670  -57.0746 C.3       19 UNK        -0.1800 
    107 C         -7.0608  -17.6164  -56.9841 C.2       19 UNK         0.5000 
    108 O         -8.0859  -17.3105  -57.5944 O.2       19 UNK        -0.5000 
    109 N         -7.0491  -18.2915  -55.8331 N.am      20 UNK        -0.5000 
    110 CA        -8.1759  -18.9507  -55.1936 C.3       20 UNK         0.1400 
    111 CB        -8.8775  -17.9798  -54.2296 C.3       20 UNK        -0.1800 
    112 C         -7.5956  -20.1563  -54.4455 C.2       20 UNK         0.5000 
    113 O         -6.4437  -20.0959  -54.0093 O.2       20 UNK        -0.5000 
    114 N         -8.3881  -21.2214  -54.2935 N.am      21 UNK        -0.5000 
    115 CA        -7.9995  -22.4501  -53.5976 C.3       21 UNK         0.1400 
    116 CB        -8.7880  -23.6287  -54.1976 C.3       21 UNK        -0.1800 
    117 C         -8.1990  -22.3105  -52.0745 C.2       21 UNK         0.5000 
    118 O         -9.0018  -23.0365  -51.4847 O.2       21 UNK        -0.5000 
    119 N         -7.4928  -21.3489  -51.4698 N.am      22 UNK        -0.5000 
    120 CA        -7.5414  -21.0482  -50.0294 C.3       22 UNK         0.1400 
    121 C         -6.7773  -22.0532  -49.1207 C.2       22 UNK         0.5000 
    122 N         -5.9533  -22.9414  -49.6616 N.am      22 UNK        -0.7600 
    123 O         -6.9568  -22.0345  -47.9075 O.2       22 UNK        -0.5000 
    124 C124       -7.1543  -19.5769  -49.7293 C.3       23 UNK        -0.0398 
    125 S125       -5.5127  -19.0902  -50.3634 S.3       23 UNK        -0.2404 
    126 C126       -4.5594  -18.8973  -48.8257 C.3       23 UNK        -0.0205 
    127 H127        2.9973  -10.3638  -48.6039 H         1 UNK         0.0600 
    128 H128        1.8463  -10.9698  -49.7990 H         1 UNK         0.0600 
    129 H129        1.2618  -10.1602  -48.3427 H         1 UNK         0.0600 
    130 H130        1.6133  -13.1629  -49.6986 H         1 UNK         0.3000 
    131 H131        1.5604  -15.2784  -49.0749 H         1 UNK         0.0600 
    132 H132        0.1969  -15.9488  -47.1731 H         1 UNK         0.0800 
    133 H133        0.4250  -14.4133  -46.3792 H         1 UNK         0.0800 
    134 H134       -2.1233  -14.6708  -50.2799 H         1 UNK         0.0800 
    135 H135       -0.4080  -14.9386  -50.2754 H         1 UNK         0.0800 
    136 H136       -3.6471  -16.3324  -49.0004 H         1 UNK         0.1150 
    137 H137       -2.3671  -20.4008  -49.3892 H         1 UNK         0.1150 
    138 H138        0.3943  -17.2110  -50.1385 H         1 UNK         0.1150 
    139 H139       -0.2329  -20.9256  -50.2342 H         1 UNK         0.0800 
    140 H140        0.5946  -19.6912  -51.1378 H         1 UNK         0.0800 
    141 H141       -0.1599  -19.6250  -47.3247 H         1 UNK         0.0800 
    142 H142        1.4330  -19.6712  -46.6510 H         1 UNK         0.0800 
    143 H143        1.4221  -22.2372  -47.2800 H         1 UNK         0.0600 
    144 H144        0.8018  -20.9196  -44.9389 H         1 UNK         0.3000 
    145 H145        0.0566  -23.6565  -42.7668 H         1 UNK         0.0600 
    146 H146        1.9390  -22.5220  -41.6103 H         1 UNK         0.0600 
    147 H147        2.5172  -23.4558  -42.9818 H         1 UNK         0.0600 
    148 H148        2.3983  -21.7057  -43.1023 H         1 UNK         0.0600 
    149 H149        0.1410  -20.6968  -42.7840 H         1 UNK         0.3000 
    150 H150       -3.3869  -20.3799  -42.6633 H         1 UNK         0.0600 
    151 H151       -2.8633  -20.8355  -40.2521 H         1 UNK         0.0600 
    152 H152       -2.9816  -19.1120  -40.5742 H         1 UNK         0.0600 
    153 H153       -1.3995  -19.8656  -40.3847 H         1 UNK         0.0600 
    154 H154       -1.4195  -18.3902  -42.3886 H         1 UNK         0.3000 
    155 H155       -0.4733  -17.9859  -45.8015 H         1 UNK         0.0600 
    156 H156       -1.2880  -15.6461  -45.1291 H         1 UNK         0.0600 
    157 H157       -2.4013  -16.4385  -44.0163 H         1 UNK         0.0600 
    158 H158       -2.5249  -16.7298  -45.7417 H         1 UNK         0.0600 
    159 H159        0.3497  -16.4677  -43.6453 H         1 UNK         0.3000 
    160 H160        2.8631  -18.6239  -42.2610 H         1 UNK         0.0600 
    161 H161        3.1147  -16.0480  -43.8641 H         1 UNK         0.0600 
    162 H162        3.8340  -17.5807  -44.3493 H         1 UNK         0.0600 
    163 H163        4.3440  -16.8107  -42.8546 H         1 UNK         0.0600 
    164 H164        1.7993  -15.8987  -41.8873 H         1 UNK         0.3000 
    165 H165       -0.0588  -16.8114  -38.9805 H         1 UNK         0.0600 
    166 H166        2.4502  -15.0768  -39.3125 H         1 UNK         0.0600 
    167 H167        1.2655  -14.9529  -38.0112 H         1 UNK         0.0600 
    168 H168        2.2673  -16.3888  -38.1535 H         1 UNK         0.0600 
    169 H169        0.3145  -14.3192  -40.3080 H         1 UNK         0.3000 
    170 H170       -2.2320  -14.6005  -42.7445 H         1 UNK         0.0600 
    171 H171       -3.5269  -14.2150  -40.6422 H         1 UNK         0.0600 
    172 H172       -2.2896  -13.0969  -40.0808 H         1 UNK         0.0600 
    173 H173       -3.2427  -12.7195  -41.5166 H         1 UNK         0.0600 
    174 H174       -0.8649  -12.3159  -42.0134 H         1 UNK         0.3000 
    175 H175        0.6774  -11.9215  -44.4426 H         1 UNK         0.0600 
    176 H176        1.8565  -10.3581  -42.8345 H         1 UNK         0.0600 
    177 H177        0.2180  -10.7343  -42.3519 H         1 UNK         0.0600 
    178 H178        1.5717  -11.5152  -41.5384 H         1 UNK         0.0600 
    179 H179        2.7212  -12.4683  -44.9506 H         1 UNK         0.3000 
    180 H180        5.1978  -12.3190  -44.1087 H         1 UNK         0.0600 
    181 H181        5.7033  -15.0045  -42.7189 H         1 UNK         0.0600 
    182 H182        6.0199  -13.4229  -42.0214 H         1 UNK         0.0600 
    183 H183        6.9285  -13.9551  -43.4214 H         1 UNK         0.0600 
    184 H184        3.9520  -14.6600  -45.2690 H         1 UNK         0.3000 
    185 H185        6.0772  -14.5040  -48.1661 H         1 UNK         0.0600 
    186 H186        5.5996  -16.9469  -48.0616 H         1 UNK         0.0600 
    187 H187        6.8097  -16.4603  -46.8843 H         1 UNK         0.0600 
    188 H188        5.1721  -16.8019  -46.3576 H         1 UNK         0.0600 
    189 H189        4.0108  -14.1226  -48.7712 H         1 UNK         0.3000 
    190 H190       -1.8117  -21.3989  -46.0736 H         1 UNK         0.3000 
    191 H191       -3.4974  -22.1354  -48.1118 H         1 UNK         0.0600 
    192 H192       -4.2915  -21.0661  -46.0743 H         1 UNK         0.0600 
    193 H193       -5.1094  -22.6159  -46.1740 H         1 UNK         0.0600 
    194 H194       -3.7570  -22.4160  -45.0743 H         1 UNK         0.0600 
    195 H195       -1.6705  -24.3492  -46.0533 H         1 UNK         0.3000 
    196 H196       -3.0592  -26.7234  -47.2332 H         1 UNK         0.0600 
    197 H197       -2.0027  -27.9547  -45.3486 H         1 UNK         0.0600 
    198 H198       -3.0227  -26.6539  -44.7526 H         1 UNK         0.0600 
    199 H199       -1.2703  -26.4670  -44.7573 H         1 UNK         0.0600 
    200 H200        0.1403  -25.1938  -46.6443 H         1 UNK         0.3000 
    201 H201        1.6800  -27.2999  -47.7341 H         1 UNK         0.0600 
    202 H202        2.5392  -25.6426  -46.0990 H         1 UNK         0.0600 
    203 H203        2.4039  -24.3576  -47.2972 H         1 UNK         0.0600 
    204 H204        3.5479  -25.6708  -47.5374 H         1 UNK         0.0600 
    205 H205        0.2862  -24.4360  -49.3075 H         1 UNK         0.3000 
    206 H206        1.2754  -25.4098  -51.9580 H         1 UNK         0.0600 
    207 H207        2.7680  -23.5685  -51.2993 H         1 UNK         0.0600 
    208 H208        1.6949  -23.0064  -52.5720 H         1 UNK         0.0600 
    209 H209        1.3995  -22.5383  -50.8998 H         1 UNK         0.0600 
    210 H210       -1.1232  -23.5603  -50.1048 H         1 UNK         0.3000 
    211 H211       -3.2493  -23.1789  -50.3116 H         1 UNK         0.0600 
    212 H212       -3.3715  -25.2818  -52.5348 H         1 UNK         0.0600 
    213 H213       -4.7260  -24.6922  -51.5901 H         1 UNK         0.0600 
    214 H214       -3.4606  -25.6186  -50.8054 H         1 UNK         0.0600 
    215 H215       -1.2449  -21.8829  -52.2320 H         1 UNK         0.3000 
    216 H216       -1.1113  -20.1789  -53.6114 H         1 UNK         0.0600 
    217 H217       -2.7323  -19.0589  -52.0830 H         1 UNK         0.0600 
    218 H218       -4.0704  -19.6196  -53.0697 H         1 UNK         0.0600 
    219 H219       -2.8950  -18.4777  -53.7193 H         1 UNK         0.0600 
    220 H220       -3.4603  -19.2906  -55.4043 H         1 UNK         0.3000 
    221 H221       -3.8003  -21.4325  -57.3008 H         1 UNK         0.0600 
    222 H222       -1.8164  -19.2031  -58.0286 H         1 UNK         0.0600 
    223 H223       -1.4428  -20.9189  -57.8790 H         1 UNK         0.0600 
    224 H224       -2.4934  -20.3606  -59.1685 H         1 UNK         0.0600 
    225 H225       -3.8522  -17.8917  -56.7042 H         1 UNK         0.3000 
    226 H226       -5.7787  -17.2163  -58.6516 H         1 UNK         0.0600 
    227 H227       -4.2991  -15.5628  -57.5432 H         1 UNK         0.0600 
    228 H228       -5.9809  -15.1097  -57.3204 H         1 UNK         0.0600 
    229 H229       -5.0929  -15.8483  -55.9933 H         1 UNK         0.0600 
    230 H230       -6.1599  -18.5336  -55.4145 H         1 UNK         0.3000 
    231 H231       -8.8792  -19.3031  -55.9511 H         1 UNK         0.0600 
    232 H232       -9.7207  -18.4625  -53.7344 H         1 UNK         0.0600 
    233 H233       -9.2649  -17.1093  -54.7592 H         1 UNK         0.0600 
    234 H234       -8.1984  -17.6250  -53.4530 H         1 UNK         0.0600 
    235 H235       -9.3351  -21.1859  -54.6426 H         1 UNK         0.3000 
    236 H236       -6.9383  -22.6452  -53.7688 H         1 UNK         0.0600 
    237 H237       -8.5076  -24.5690  -53.7212 H         1 UNK         0.0600 
    238 H238       -9.8639  -23.5024  -54.0710 H         1 UNK         0.0600 
    239 H239       -8.5861  -23.7345  -55.2637 H         1 UNK         0.0600 
    240 H240       -6.8424  -20.8025  -52.0252 H         1 UNK         0.3000 
    241 H241       -8.5858  -21.1473  -49.7270 H         1 UNK         0.0600 
    242 H242       -5.8177  -22.9495  -50.6599 H         1 UNK         0.3800 
    243 H243       -5.4663  -23.6072  -49.0708 H         1 UNK         0.3800 
    244 H244       -7.8869  -18.9163  -50.1946 H         1 UNK         0.0800 
    245 H245       -7.2188  -19.3693  -48.6598 H         1 UNK         0.0800 
    246 H246       -5.0595  -18.1845  -48.1684 H         1 UNK         0.0800 
    247 H247       -4.5282  -19.8477  -48.2918 H         1 UNK         0.0800 
@<TRIPOS>BOND
     1    1    2 1    
     2    1  127 1    
     3    1  128 1    
     4    1  129 1    
     5    2    3 2    
     6    2    4 am   BACKBONE|DICT|INTERRES
     7    4    5 1    
     8    4  130 1    
     9    5    6 1    
    10    5   65 1    
    11    5  131 1    
    12    6    7 1    
    13    6  132 1    
    14    6  133 1    
    15    7    8 1    
    16    8    9 1    
    17    8  134 1    
    18    8  135 1    
    19    9   10 ar   
    20    9   14 ar   
    21   10   11 ar   
    22   10  136 1    
    23   11   12 ar   
    24   11  126 1    
    25   12   13 ar   
    26   12  137 1    
    27   13   14 ar   
    28   13   15 1    
    29   14  138 1    
    30   15   16 1    
    31   15  139 1    
    32   15  140 1    
    33   16   17 1    
    34   17   18 1    
    35   17  141 1    
    36   17  142 1    
    37   18   19 1    
    38   18   67 1    
    39   18  143 1    
    40   19   20 am   BACKBONE|DICT|INTERRES
    41   19  144 1    
    42   20   21 2    
    43   20   22 1    
    44   22   23 1    
    45   22   24 1    
    46   22  145 1    
    47   23  146 1    
    48   23  147 1    
    49   23  148 1    
    50   24   25 am   BACKBONE|DICT|INTERRES
    51   24  149 1    
    52   25   26 2    
    53   25   27 1    
    54   27   28 1    
    55   27   29 1    
    56   27  150 1    
    57   28  151 1    
    58   28  152 1    
    59   28  153 1    
    60   29   30 am   BACKBONE|DICT|INTERRES
    61   29  154 1    
    62   30   31 2    
    63   30   32 1    
    64   32   33 1    
    65   32   34 1    
    66   32  155 1    
    67   33  156 1    
    68   33  157 1    
    69   33  158 1    
    70   34   35 am   BACKBONE|DICT|INTERRES
    71   34  159 1    
    72   35   36 2    
    73   35   37 1    
    74   37   38 1    
    75   37   39 1    
    76   37  160 1    
    77   38  161 1    
    78   38  162 1    
    79   38  163 1    
    80   39   40 am   BACKBONE|DICT|INTERRES
    81   39  164 1    
    82   40   41 2    
    83   40   42 1    
    84   42   43 1    
    85   42   44 1    
    86   42  165 1    
    87   43  166 1    
    88   43  167 1    
    89   43  168 1    
    90   44   45 am   BACKBONE|DICT|INTERRES
    91   44  169 1    
    92   45   46 2    
    93   45   47 1    
    94   47   48 1    
    95   47   49 1    
    96   47  170 1    
    97   48  171 1    
    98   48  172 1    
    99   48  173 1    
   100   49   50 am   BACKBONE|DICT|INTERRES
   101   49  174 1    
   102   50   51 2    
   103   50   52 1    
   104   52   53 1    
   105   52   54 1    
   106   52  175 1    
   107   53  176 1    
   108   53  177 1    
   109   53  178 1    
   110   54   55 am   BACKBONE|DICT|INTERRES
   111   54  179 1    
   112   55   56 2    
   113   55   57 1    
   114   57   58 1    
   115   57   59 1    
   116   57  180 1    
   117   58  181 1    
   118   58  182 1    
   119   58  183 1    
   120   59   60 am   BACKBONE|DICT|INTERRES
   121   59  184 1    
   122   60   61 2    
   123   60   62 1    
   124   62   63 1    
   125   62   64 1    
   126   62  185 1    
   127   63  186 1    
   128   63  187 1    
   129   63  188 1    
   130   64   65 am   BACKBONE|DICT|INTERRES
   131   64  189 1    
   132   65   66 2    
   133   67   68 2    
   134   67   69 am   BACKBONE|DICT|INTERRES
   135   69   70 1    
   136   69  190 1    
   137   70   71 1    
   138   70   72 1    
   139   70  191 1    
   140   71  192 1    
   141   71  193 1    
   142   71  194 1    
   143   72   73 2    
   144   72   74 am   BACKBONE|DICT|INTERRES
   145   74   75 1    
   146   74  195 1    
   147   75   76 1    
   148   75   77 1    
   149   75  196 1    
   150   76  197 1    
   151   76  198 1    
   152   76  199 1    
   153   77   78 2    
   154   77   79 am   BACKBONE|DICT|INTERRES
   155   79   80 1    
   156   79  200 1    
   157   80   81 1    
   158   80   82 1    
   159   80  201 1    
   160   81  202 1    
   161   81  203 1    
   162   81  204 1    
   163   82   83 2    
   164   82   84 am   BACKBONE|DICT|INTERRES
   165   84   85 1    
   166   84  205 1    
   167   85   86 1    
   168   85   87 1    
   169   85  206 1    
   170   86  207 1    
   171   86  208 1    
   172   86  209 1    
   173   87   88 2    
   174   87   89 am   BACKBONE|DICT|INTERRES
   175   89   90 1    
   176   89  210 1    
   177   90   91 1    
   178   90   92 1    
   179   90  211 1    
   180   91  212 1    
   181   91  213 1    
   182   91  214 1    
   183   92   93 2    
   184   92   94 am   BACKBONE|DICT|INTERRES
   185   94   95 1    
   186   94  215 1    
   187   95   96 1    
   188   95   97 1    
   189   95  216 1    
   190   96  217 1    
   191   96  218 1    
   192   96  219 1    
   193   97   98 2    
   194   97   99 am   BACKBONE|DICT|INTERRES
   195   99  100 1    
   196   99  220 1    
   197  100  101 1    
   198  100  102 1    
   199  100  221 1    
   200  101  222 1    
   201  101  223 1    
   202  101  224 1    
   203  102  103 2    
   204  102  104 am   BACKBONE|DICT|INTERRES
   205  104  105 1    
   206  104  225 1    
   207  105  106 1    
   208  105  107 1    
   209  105  226 1    
   210  106  227 1    
   211  106  228 1    
   212  106  229 1    
   213  107  108 2    
   214  107  109 am   BACKBONE|DICT|INTERRES
   215  109  110 1    
   216  109  230 1    
   217  110  111 1    
   218  110  112 1    
   219  110  231 1    
   220  111  232 1    
   221  111  233 1    
   222  111  234 1    
   223  112  113 2    
   224  112  114 am   BACKBONE|DICT|INTERRES
   225  114  115 1    
   226  114  235 1    
   227  115  116 1    
   228  115  117 1    
   229  115  236 1    
   230  116  237 1    
   231  116  238 1    
   232  116  239 1    
   233  117  118 2    
   234  117  119 am   BACKBONE|DICT|INTERRES
   235  119  120 1    
   236  119  240 1    
   237  120  121 1    
   238  120  124 1    
   239  120  241 1    
   240  121  122 am   BACKBONE|DICT|INTERRES
   241  121  123 2    
   242  122  242 1    
   243  122  243 1    
   244  124  125 1    
   245  124  244 1    
   246  124  245 1    
   247  125  126 1    
   248  126  246 1    
   249  126  247 1    
@<TRIPOS>SUBSTRUCTURE
     1 UNK         1 GROUP             0       ****    0 ROOT    
