@<TRIPOS>MOLECULE
3R540
247   249    1
SMALL
USER_CHARGES


@<TRIPOS>ATOM
      1 CA         -2.8142  -14.5142  -52.1399 C.3       0 UNK        -0.1800 
      2 C          -2.2999  -13.8272  -50.8834 C.2       0 UNK         0.5000 
      3 O          -2.5405  -12.6339  -50.6985 O.2       0 UNK        -0.5000 
      4 N          -1.5855  -14.5683  -50.0309 N.am      1 UNK        -0.5000 
      5 CA         -1.0683  -14.0988  -48.7427 C.3       1 UNK         0.1400 
      6 C6          0.2884  -14.7587  -48.3726 C.3       23 UNK        -0.0398 
      7 S7          0.3404  -16.5765  -48.5490 S.3       23 UNK        -0.2404 
      8 C8          1.4435  -16.7674  -49.9787 C.3       23 UNK        -0.0205 
      9 C9          1.4481  -18.2015  -50.4823 C.ar      23 UNK        -0.0193 
     10 C10         0.7281  -18.5427  -51.6303 C.ar      23 UNK        -0.1150 
     11 C11         0.7550  -19.8503  -52.1202 C.ar      23 UNK        -0.0193 
     12 C12         1.4891  -20.8240  -51.4382 C.ar      23 UNK        -0.1150 
     13 C13         2.1854  -20.5097  -50.2681 C.ar      23 UNK        -0.0193 
     14 C14         2.1800  -19.1856  -49.8097 C.ar      23 UNK        -0.1150 
     15 C15         2.9336  -21.6250  -49.5359 C.3       23 UNK        -0.0205 
     16 S16         2.9723  -21.4743  -47.7153 S.3       23 UNK        -0.2404 
     17 C17         1.2139  -21.2320  -47.2896 C.3       23 UNK        -0.0398 
     18 CA          0.6375  -22.2891  -46.3166 C.3       11 UNK         0.1400 
     19 N           1.4251  -22.4003  -45.0811 N.am      11 UNK        -0.5000 
     20 C           1.6118  -23.5379  -44.3974 C.2       10 UNK         0.5000 
     21 O           1.0995  -24.6106  -44.7206 O.2       10 UNK        -0.5000 
     22 CA          2.4902  -23.4583  -43.1286 C.3       10 UNK         0.1400 
     23 CB          3.1682  -24.7988  -42.7770 C.3       10 UNK        -0.1800 
     24 N           3.4643  -22.3626  -43.1597 N.am      10 UNK        -0.5000 
     25 C           4.5166  -22.2040  -43.9778 C.2       9 UNK         0.5000 
     26 O           4.8752  -23.0402  -44.8071 O.2       9 UNK        -0.5000 
     27 CA          5.2972  -20.8774  -43.8585 C.3       9 UNK         0.1400 
     28 CB          5.1488  -20.0417  -45.1401 C.3       9 UNK        -0.1800 
     29 N           4.8416  -20.0651  -42.7284 N.am      9 UNK        -0.5000 
     30 C           5.3862  -20.0672  -41.5043 C.2       8 UNK         0.5000 
     31 O           6.3914  -20.7109  -41.2023 O.2       8 UNK        -0.5000 
     32 CA          4.6715  -19.2244  -40.4282 C.3       8 UNK         0.1400 
     33 CB          5.2879  -17.8201  -40.3471 C.3       8 UNK        -0.1800 
     34 N           3.2289  -19.1076  -40.6619 N.am      8 UNK        -0.5000 
     35 C           2.3610  -20.1243  -40.5400 C.2       7 UNK         0.5000 
     36 O           2.6848  -21.2519  -40.1687 O.2       7 UNK        -0.5000 
     37 CA          0.8992  -19.8691  -40.9547 C.3       7 UNK         0.1400 
     38 CB          0.0511  -19.4891  -39.7323 C.3       7 UNK        -0.1800 
     39 N           0.7515  -18.8356  -41.9791 N.am      7 UNK        -0.5000 
     40 C           1.2862  -18.8648  -43.2069 C.2       6 UNK         0.5000 
     41 O           1.8912  -19.8364  -43.6612 O.2       6 UNK        -0.5000 
     42 CA          1.1523  -17.5927  -44.0628 C.3       6 UNK         0.1400 
     43 CB          0.0509  -17.7787  -45.1065 C.3       6 UNK        -0.1800 
     44 N           0.8612  -16.3790  -43.2998 N.am      6 UNK        -0.5000 
     45 C           1.6567  -15.8152  -42.3809 C.2       5 UNK         0.5000 
     46 O           2.7299  -16.2954  -42.0148 O.2       5 UNK        -0.5000 
     47 CA          1.1349  -14.5190  -41.7417 C.3       5 UNK         0.1400 
     48 CB          1.3409  -13.3238  -42.6857 C.3       5 UNK        -0.1800 
     49 N          -0.2854  -14.6394  -41.4145 N.am      5 UNK        -0.5000 
     50 C          -0.7549  -15.1710  -40.2777 C.2       4 UNK         0.5000 
     51 O          -0.0369  -15.5483  -39.3514 O.2       4 UNK        -0.5000 
     52 CA         -2.2845  -15.3205  -40.1569 C.3       4 UNK         0.1400 
     53 CB         -2.9010  -14.0573  -39.5371 C.3       4 UNK        -0.1800 
     54 N          -2.9459  -15.5992  -41.4334 N.am      4 UNK        -0.5000 
     55 C          -2.7843  -16.7242  -42.1435 C.2       3 UNK         0.5000 
     56 O          -2.0629  -17.6556  -41.7920 O.2       3 UNK        -0.5000 
     57 CA         -3.5180  -16.8047  -43.4958 C.3       3 UNK         0.1400 
     58 CB         -4.9180  -17.4086  -43.3159 C.3       3 UNK        -0.1800 
     59 N          -3.6247  -15.5264  -44.2080 N.am      3 UNK        -0.5000 
     60 C          -2.5903  -14.7553  -44.5694 C.2       2 UNK         0.5000 
     61 O          -1.4217  -14.9716  -44.2417 O.2       2 UNK        -0.5000 
     62 CA         -2.9101  -13.5120  -45.4134 C.3       2 UNK         0.1400 
     63 CB         -2.7241  -12.2365  -44.5772 C.3       2 UNK        -0.1800 
     64 N          -2.0399  -13.4497  -46.5873 N.am      2 UNK        -0.5000 
     65 C          -2.1346  -14.2731  -47.6401 C.2       1 UNK         0.5000 
     66 O          -3.0182  -15.1261  -47.7551 O.2       1 UNK        -0.5000 
     67 C          -0.8438  -21.9592  -46.0268 C.2       11 UNK         0.5000 
     68 O          -1.6581  -22.0081  -46.9495 O.2       11 UNK        -0.5000 
     69 N          -1.1671  -21.6037  -44.7719 N.am      12 UNK        -0.5000 
     70 CA         -2.4389  -21.0409  -44.2917 C.3       12 UNK         0.1400 
     71 CB         -2.3741  -20.9127  -42.7637 C.3       12 UNK        -0.1800 
     72 C          -3.7303  -21.7774  -44.7010 C.2       12 UNK         0.5000 
     73 O          -4.7893  -21.1510  -44.7357 O.2       12 UNK        -0.5000 
     74 N          -3.6249  -23.0738  -45.0186 N.am      13 UNK        -0.5000 
     75 CA         -4.7167  -23.9107  -45.5157 C.3       13 UNK         0.1400 
     76 CB         -4.2376  -25.3696  -45.5671 C.3       13 UNK        -0.1800 
     77 C          -5.2686  -23.4790  -46.8914 C.2       13 UNK         0.5000 
     78 O          -6.4423  -23.7361  -47.1636 O.2       13 UNK        -0.5000 
     79 N          -4.4341  -22.8465  -47.7303 N.am      14 UNK        -0.5000 
     80 CA         -4.8030  -22.4185  -49.0851 C.3       14 UNK         0.1400 
     81 CB         -4.4535  -23.5375  -50.0839 C.3       14 UNK        -0.1800 
     82 C          -4.1874  -21.0659  -49.4937 C.2       14 UNK         0.5000 
     83 O          -4.3746  -20.6519  -50.6353 O.2       14 UNK        -0.5000 
     84 N          -3.4812  -20.3991  -48.5708 N.am      15 UNK        -0.5000 
     85 CA         -2.6972  -19.1670  -48.7331 C.3       15 UNK         0.1400 
     86 CB         -2.3966  -18.6280  -47.3266 C.3       15 UNK        -0.1800 
     87 C          -3.3292  -18.0499  -49.5855 C.2       15 UNK         0.5000 
     88 O          -2.6413  -17.4323  -50.3996 O.2       15 UNK        -0.5000 
     89 N          -4.6318  -17.8216  -49.3831 N.am      16 UNK        -0.5000 
     90 CA         -5.4059  -16.7693  -50.0378 C.3       16 UNK         0.1400 
     91 CB         -6.6625  -16.4992  -49.1949 C.3       16 UNK        -0.1800 
     92 C          -5.7868  -17.0787  -51.5010 C.2       16 UNK         0.5000 
     93 O          -6.3234  -16.1953  -52.1707 O.2       16 UNK        -0.5000 
     94 N          -5.5369  -18.3083  -51.9776 N.am      17 UNK        -0.5000 
     95 CA         -5.9324  -18.7770  -53.3087 C.3       17 UNK         0.1400 
     96 CB         -5.8586  -20.3091  -53.3493 C.3       17 UNK        -0.1800 
     97 C          -5.1252  -18.1661  -54.4708 C.2       17 UNK         0.5000 
     98 O          -5.5682  -18.2732  -55.6136 O.2       17 UNK        -0.5000 
     99 N          -3.9722  -17.5467  -54.1745 N.am      18 UNK        -0.5000 
    100 CA        -3.1170  -16.7997  -55.1068 C.3       18 UNK         0.1400 
    101 CB        -3.8303  -15.5143  -55.5777 C.3       18 UNK        -0.1800 
    102 C         -2.5990  -17.6623  -56.2780 C.2       18 UNK         0.5000 
    103 O         -2.7340  -17.2858  -57.4433 O.2       18 UNK        -0.5000 
    104 N         -2.0186  -18.8160  -55.9229 N.am      19 UNK        -0.5000 
    105 CA        -1.3975  -19.8205  -56.7963 C.3       19 UNK         0.1400 
    106 CB        -0.2793  -19.2127  -57.6695 C.3       19 UNK        -0.1800 
    107 C         -2.3963  -20.6770  -57.5994 C.2       19 UNK         0.5000 
    108 O         -1.9788  -21.3801  -58.5209 O.2       19 UNK        -0.5000 
    109 N         -3.6803  -20.6522  -57.2139 N.am      20 UNK        -0.5000 
    110 CA        -4.6935  -21.6041  -57.6652 C.3       20 UNK         0.1400 
    111 CB        -6.0852  -20.9460  -57.6188 C.3       20 UNK        -0.1800 
    112 C         -4.5822  -22.8852  -56.8159 C.2       20 UNK         0.5000 
    113 O         -3.7344  -23.7303  -57.1060 O.2       20 UNK        -0.5000 
    114 N         -5.3993  -22.9975  -55.7583 N.am      21 UNK        -0.5000 
    115 CA        -5.4404  -24.1448  -54.8430 C.3       21 UNK         0.1400 
    116 CB        -6.5978  -23.9650  -53.8487 C.3       21 UNK        -0.1800 
    117 C         -4.1198  -24.4025  -54.0892 C.2       21 UNK         0.5000 
    118 O         -3.8177  -25.5573  -53.7868 O.2       21 UNK        -0.5000 
    119 N         -3.3524  -23.3367  -53.8238 N.am      22 UNK        -0.5000 
    120 CA        -1.9962  -23.4095  -53.2582 C.3       22 UNK         0.1400 
    121 C         -0.8723  -23.6843  -54.3024 C.2       22 UNK         0.5000 
    122 N         -1.1611  -23.8037  -55.5937 N.am      22 UNK        -0.7600 
    123 O          0.2911  -23.8084  -53.9306 O.2       22 UNK        -0.5000 
    124 C124       -1.6778  -22.2013  -52.3390 C.3       23 UNK        -0.0398 
    125 S125       -1.7422  -20.5625  -53.1444 S.3       23 UNK        -0.2404 
    126 C126        0.0255  -20.1992  -53.4080 C.3       23 UNK        -0.0205 
    127 H127       -2.4362  -15.5322  -52.2269 H         1 UNK         0.0600 
    128 H128       -3.9032  -14.5519  -52.1303 H         1 UNK         0.0600 
    129 H129       -2.4987  -13.9616  -53.0247 H         1 UNK         0.0600 
    130 H130       -1.5272  -15.5708  -50.1759 H         1 UNK         0.3000 
    131 H131       -0.8776  -13.0262  -48.8216 H         1 UNK         0.0600 
    132 H132        0.5740  -14.5091  -47.3491 H         1 UNK         0.0800 
    133 H133        1.0708  -14.3259  -48.9971 H         1 UNK         0.0800 
    134 H134        2.4553  -16.4704  -49.6993 H         1 UNK         0.0800 
    135 H135        1.1274  -16.0895  -50.7733 H         1 UNK         0.0800 
    136 H136        0.1564  -17.7878  -52.1519 H         1 UNK         0.1150 
    137 H137        1.5177  -21.8347  -51.8211 H         1 UNK         0.1150 
    138 H138        2.7308  -18.9179  -48.9193 H         1 UNK         0.1150 
    139 H139        2.4914  -22.5925  -49.7791 H         1 UNK         0.0800 
    140 H140        3.9596  -21.6540  -49.9042 H         1 UNK         0.0800 
    141 H141        0.6199  -21.2129  -48.2049 H         1 UNK         0.0800 
    142 H142        1.1359  -20.2350  -46.8634 H         1 UNK         0.0800 
    143 H143        0.6499  -23.2492  -46.8367 H         1 UNK         0.0600 
    144 H144        1.8555  -21.5475  -44.7370 H         1 UNK         0.3000 
    145 H145        1.8067  -23.2192  -42.3128 H         1 UNK         0.0600 
    146 H146        3.7791  -24.7074  -41.8789 H         1 UNK         0.0600 
    147 H147        2.4256  -25.5739  -42.5844 H         1 UNK         0.0600 
    148 H148        3.8079  -25.1553  -43.5845 H         1 UNK         0.0600 
    149 H149        3.2717  -21.6043  -42.5212 H         1 UNK         0.3000 
    150 H150        6.3529  -21.1281  -43.7368 H         1 UNK         0.0600 
    151 H151        5.5076  -20.5921  -46.0106 H         1 UNK         0.0600 
    152 H152        5.7274  -19.1199  -45.0792 H         1 UNK         0.0600 
    153 H153        4.1087  -19.7726  -45.3280 H         1 UNK         0.0600 
    154 H154        3.9999  -19.5264  -42.8836 H         1 UNK         0.3000 
    155 H155        4.8217  -19.7179  -39.4656 H         1 UNK         0.0600 
    156 H156        5.1887  -17.2820  -41.2905 H         1 UNK         0.0600 
    157 H157        6.3514  -17.8741  -40.1110 H         1 UNK         0.0600 
    158 H158        4.8115  -17.2233  -39.5690 H         1 UNK         0.0600 
    159 H159        2.8950  -18.2096  -40.9943 H         1 UNK         0.3000 
    160 H160        0.5125  -20.8037  -41.3651 H         1 UNK         0.0600 
    161 H161       -1.0058  -19.4235  -39.9907 H         1 UNK         0.0600 
    162 H162        0.3544  -18.5272  -39.3167 H         1 UNK         0.0600 
    163 H163        0.1443  -20.2349  -38.9418 H         1 UNK         0.0600 
    164 H164        0.1948  -18.0293  -41.7263 H         1 UNK         0.3000 
    165 H165        2.1007  -17.4380  -44.5810 H         1 UNK         0.0600 
    166 H166       -0.1464  -16.8555  -45.6500 H         1 UNK         0.0600 
    167 H167        0.3387  -18.5245  -45.8408 H         1 UNK         0.0600 
    168 H168       -0.8798  -18.1076  -44.6487 H         1 UNK         0.0600 
    169 H169        0.0030  -15.8946  -43.5540 H         1 UNK         0.3000 
    170 H170        1.7083  -14.3334  -40.8309 H         1 UNK         0.0600 
    171 H171        2.3955  -13.2033  -42.9365 H         1 UNK         0.0600 
    172 H172        0.7930  -13.4438  -43.6211 H         1 UNK         0.0600 
    173 H173        1.0089  -12.3951  -42.2215 H         1 UNK         0.0600 
    174 H174       -0.9392  -14.4153  -42.1530 H         1 UNK         0.3000 
    175 H175       -2.4803  -16.1605  -39.4870 H         1 UNK         0.0600 
    176 H176       -3.9708  -14.1821  -39.3686 H         1 UNK         0.0600 
    177 H177       -2.4453  -13.8338  -38.5715 H         1 UNK         0.0600 
    178 H178       -2.7602  -13.1849  -40.1765 H         1 UNK         0.0600 
    179 H179       -3.5528  -14.8816  -41.8011 H         1 UNK         0.3000 
    180 H180       -2.9514  -17.4813  -44.1349 H         1 UNK         0.0600 
    181 H181       -5.5633  -16.7611  -42.7210 H         1 UNK         0.0600 
    182 H182       -4.8649  -18.3746  -42.8115 H         1 UNK         0.0600 
    183 H183       -5.4021  -17.5760  -44.2784 H         1 UNK         0.0600 
    184 H184       -4.5517  -15.2645  -44.5109 H         1 UNK         0.3000 
    185 H185       -3.9480  -13.5584  -45.7500 H         1 UNK         0.0600 
    186 H186       -1.6975  -12.1307  -44.2232 H         1 UNK         0.0600 
    187 H187       -2.9729  -11.3462  -45.1552 H         1 UNK         0.0600 
    188 H188       -3.3735  -12.2458  -43.7008 H         1 UNK         0.0600 
    189 H189       -1.2794  -12.7876  -46.5418 H         1 UNK         0.3000 
    190 H190       -0.4179  -21.6204  -44.0963 H         1 UNK         0.3000 
    191 H191       -2.5156  -20.0343  -44.7034 H         1 UNK         0.0600 
    192 H192       -1.5746  -20.2396  -42.4638 H         1 UNK         0.0600 
    193 H193       -2.2045  -21.8771  -42.2838 H         1 UNK         0.0600 
    194 H194       -3.3002  -20.5007  -42.3601 H         1 UNK         0.0600 
    195 H195       -2.7109  -23.4997  -44.9746 H         1 UNK         0.3000 
    196 H196       -5.5383  -23.8461  -44.7993 H         1 UNK         0.0600 
    197 H197       -5.0351  -26.0316  -45.9073 H         1 UNK         0.0600 
    198 H198       -3.9261  -25.7183  -44.5823 H         1 UNK         0.0600 
    199 H199       -3.3956  -25.4920  -46.2498 H         1 UNK         0.0600 
    200 H200       -3.4709  -22.6932  -47.4457 H         1 UNK         0.3000 
    201 H201       -5.8815  -22.2547  -49.1324 H         1 UNK         0.0600 
    202 H202       -5.0133  -24.4469  -49.8658 H         1 UNK         0.0600 
    203 H203       -3.3924  -23.7854  -50.0517 H         1 UNK         0.0600 
    204 H204       -4.6984  -23.2498  -51.1070 H         1 UNK         0.0600 
    205 H205       -3.3546  -20.8568  -47.6800 H         1 UNK         0.3000 
    206 H206       -1.7536  -19.4390  -49.2109 H         1 UNK         0.0600 
    207 H207       -1.6814  -19.2676  -46.8164 H         1 UNK         0.0600 
    208 H208       -1.9710  -17.6267  -47.3569 H         1 UNK         0.0600 
    209 H209       -3.2974  -18.5679  -46.7148 H         1 UNK         0.0600 
    210 H210       -5.1203  -18.3971  -48.7139 H         1 UNK         0.3000 
    211 H211       -4.8042  -15.8579  -50.0464 H         1 UNK         0.0600 
    212 H212       -7.3063  -17.3779  -49.1399 H         1 UNK         0.0600 
    213 H213       -7.2525  -15.6851  -49.6178 H         1 UNK         0.0600 
    214 H214       -6.3982  -16.2098  -48.1774 H         1 UNK         0.0600 
    215 H215       -5.0787  -18.9915  -51.3796 H         1 UNK         0.3000 
    216 H216       -6.9754  -18.4924  -53.4619 H         1 UNK         0.0600 
    217 H217       -6.2844  -20.6930  -54.2746 H         1 UNK         0.0600 
    218 H218       -6.4235  -20.7510  -52.5285 H         1 UNK         0.0600 
    219 H219       -4.8309  -20.6655  -53.2806 H         1 UNK         0.0600 
    220 H220       -3.6823  -17.5491  -53.2060 H         1 UNK         0.3000 
    221 H221       -2.2356  -16.4959  -54.5405 H         1 UNK         0.0600 
    222 H222       -4.6906  -15.7362  -56.2101 H         1 UNK         0.0600 
    223 H223       -4.1847  -14.9248  -54.7326 H         1 UNK         0.0600 
    224 H224       -3.1546  -14.8824  -56.1550 H         1 UNK         0.0600 
    225 H225       -2.0096  -19.0473  -54.9373 H         1 UNK         0.3000 
    226 H226       -0.9131  -20.5286  -56.1237 H         1 UNK         0.0600 
    227 H227        0.4144  -18.6237  -57.0695 H         1 UNK         0.0600 
    228 H228       -0.6779  -18.5697  -58.4543 H         1 UNK         0.0600 
    229 H229        0.3024  -19.9949  -58.1584 H         1 UNK         0.0600 
    230 H230       -3.9511  -20.0103  -56.4825 H         1 UNK         0.3000 
    231 H231       -4.4997  -21.8832  -58.7030 H         1 UNK         0.0600 
    232 H232       -6.1288  -20.0876  -58.2896 H         1 UNK         0.0600 
    233 H233       -6.3498  -20.5928  -56.6237 H         1 UNK         0.0600 
    234 H234       -6.8587  -21.6448  -57.9399 H         1 UNK         0.0600 
    235 H235       -6.0761  -22.2678  -55.5944 H         1 UNK         0.3000 
    236 H236       -5.6477  -25.0319  -55.4452 H         1 UNK         0.0600 
    237 H237       -6.7017  -24.8442  -53.2115 H         1 UNK         0.0600 
    238 H238       -6.4391  -23.1088  -53.1939 H         1 UNK         0.0600 
    239 H239       -7.5478  -23.8256  -54.3648 H         1 UNK         0.0600 
    240 H240       -3.6657  -22.4225  -54.1107 H         1 UNK         0.3000 
    241 H241       -1.9680  -24.2824  -52.6031 H         1 UNK         0.0600 
    242 H242       -0.4147  -23.9939  -56.2428 H         1 UNK         0.3800 
    243 H243       -2.1138  -23.7579  -55.9377 H         1 UNK         0.3800 
    244 H244       -2.3988  -22.1783  -51.5262 H         1 UNK         0.0800 
    245 H245       -0.7180  -22.3453  -51.8472 H         1 UNK         0.0800 
    246 H246        0.1163  -19.3609  -54.0994 H         1 UNK         0.0800 
    247 H247        0.5074  -21.0437  -53.9019 H         1 UNK         0.0800 
@<TRIPOS>BOND
     1    1    2 1    
     2    1  127 1    
     3    1  128 1    
     4    1  129 1    
     5    2    3 2    
     6    2    4 am   BACKBONE|DICT|INTERRES
     7    4    5 1    
     8    4  130 1    
     9    5    6 1    
    10    5   65 1    
    11    5  131 1    
    12    6    7 1    
    13    6  132 1    
    14    6  133 1    
    15    7    8 1    
    16    8    9 1    
    17    8  134 1    
    18    8  135 1    
    19    9   10 ar   
    20    9   14 ar   
    21   10   11 ar   
    22   10  136 1    
    23   11   12 ar   
    24   11  126 1    
    25   12   13 ar   
    26   12  137 1    
    27   13   14 ar   
    28   13   15 1    
    29   14  138 1    
    30   15   16 1    
    31   15  139 1    
    32   15  140 1    
    33   16   17 1    
    34   17   18 1    
    35   17  141 1    
    36   17  142 1    
    37   18   19 1    
    38   18   67 1    
    39   18  143 1    
    40   19   20 am   BACKBONE|DICT|INTERRES
    41   19  144 1    
    42   20   21 2    
    43   20   22 1    
    44   22   23 1    
    45   22   24 1    
    46   22  145 1    
    47   23  146 1    
    48   23  147 1    
    49   23  148 1    
    50   24   25 am   BACKBONE|DICT|INTERRES
    51   24  149 1    
    52   25   26 2    
    53   25   27 1    
    54   27   28 1    
    55   27   29 1    
    56   27  150 1    
    57   28  151 1    
    58   28  152 1    
    59   28  153 1    
    60   29   30 am   BACKBONE|DICT|INTERRES
    61   29  154 1    
    62   30   31 2    
    63   30   32 1    
    64   32   33 1    
    65   32   34 1    
    66   32  155 1    
    67   33  156 1    
    68   33  157 1    
    69   33  158 1    
    70   34   35 am   BACKBONE|DICT|INTERRES
    71   34  159 1    
    72   35   36 2    
    73   35   37 1    
    74   37   38 1    
    75   37   39 1    
    76   37  160 1    
    77   38  161 1    
    78   38  162 1    
    79   38  163 1    
    80   39   40 am   BACKBONE|DICT|INTERRES
    81   39  164 1    
    82   40   41 2    
    83   40   42 1    
    84   42   43 1    
    85   42   44 1    
    86   42  165 1    
    87   43  166 1    
    88   43  167 1    
    89   43  168 1    
    90   44   45 am   BACKBONE|DICT|INTERRES
    91   44  169 1    
    92   45   46 2    
    93   45   47 1    
    94   47   48 1    
    95   47   49 1    
    96   47  170 1    
    97   48  171 1    
    98   48  172 1    
    99   48  173 1    
   100   49   50 am   BACKBONE|DICT|INTERRES
   101   49  174 1    
   102   50   51 2    
   103   50   52 1    
   104   52   53 1    
   105   52   54 1    
   106   52  175 1    
   107   53  176 1    
   108   53  177 1    
   109   53  178 1    
   110   54   55 am   BACKBONE|DICT|INTERRES
   111   54  179 1    
   112   55   56 2    
   113   55   57 1    
   114   57   58 1    
   115   57   59 1    
   116   57  180 1    
   117   58  181 1    
   118   58  182 1    
   119   58  183 1    
   120   59   60 am   BACKBONE|DICT|INTERRES
   121   59  184 1    
   122   60   61 2    
   123   60   62 1    
   124   62   63 1    
   125   62   64 1    
   126   62  185 1    
   127   63  186 1    
   128   63  187 1    
   129   63  188 1    
   130   64   65 am   BACKBONE|DICT|INTERRES
   131   64  189 1    
   132   65   66 2    
   133   67   68 2    
   134   67   69 am   BACKBONE|DICT|INTERRES
   135   69   70 1    
   136   69  190 1    
   137   70   71 1    
   138   70   72 1    
   139   70  191 1    
   140   71  192 1    
   141   71  193 1    
   142   71  194 1    
   143   72   73 2    
   144   72   74 am   BACKBONE|DICT|INTERRES
   145   74   75 1    
   146   74  195 1    
   147   75   76 1    
   148   75   77 1    
   149   75  196 1    
   150   76  197 1    
   151   76  198 1    
   152   76  199 1    
   153   77   78 2    
   154   77   79 am   BACKBONE|DICT|INTERRES
   155   79   80 1    
   156   79  200 1    
   157   80   81 1    
   158   80   82 1    
   159   80  201 1    
   160   81  202 1    
   161   81  203 1    
   162   81  204 1    
   163   82   83 2    
   164   82   84 am   BACKBONE|DICT|INTERRES
   165   84   85 1    
   166   84  205 1    
   167   85   86 1    
   168   85   87 1    
   169   85  206 1    
   170   86  207 1    
   171   86  208 1    
   172   86  209 1    
   173   87   88 2    
   174   87   89 am   BACKBONE|DICT|INTERRES
   175   89   90 1    
   176   89  210 1    
   177   90   91 1    
   178   90   92 1    
   179   90  211 1    
   180   91  212 1    
   181   91  213 1    
   182   91  214 1    
   183   92   93 2    
   184   92   94 am   BACKBONE|DICT|INTERRES
   185   94   95 1    
   186   94  215 1    
   187   95   96 1    
   188   95   97 1    
   189   95  216 1    
   190   96  217 1    
   191   96  218 1    
   192   96  219 1    
   193   97   98 2    
   194   97   99 am   BACKBONE|DICT|INTERRES
   195   99  100 1    
   196   99  220 1    
   197  100  101 1    
   198  100  102 1    
   199  100  221 1    
   200  101  222 1    
   201  101  223 1    
   202  101  224 1    
   203  102  103 2    
   204  102  104 am   BACKBONE|DICT|INTERRES
   205  104  105 1    
   206  104  225 1    
   207  105  106 1    
   208  105  107 1    
   209  105  226 1    
   210  106  227 1    
   211  106  228 1    
   212  106  229 1    
   213  107  108 2    
   214  107  109 am   BACKBONE|DICT|INTERRES
   215  109  110 1    
   216  109  230 1    
   217  110  111 1    
   218  110  112 1    
   219  110  231 1    
   220  111  232 1    
   221  111  233 1    
   222  111  234 1    
   223  112  113 2    
   224  112  114 am   BACKBONE|DICT|INTERRES
   225  114  115 1    
   226  114  235 1    
   227  115  116 1    
   228  115  117 1    
   229  115  236 1    
   230  116  237 1    
   231  116  238 1    
   232  116  239 1    
   233  117  118 2    
   234  117  119 am   BACKBONE|DICT|INTERRES
   235  119  120 1    
   236  119  240 1    
   237  120  121 1    
   238  120  124 1    
   239  120  241 1    
   240  121  122 am   BACKBONE|DICT|INTERRES
   241  121  123 2    
   242  122  242 1    
   243  122  243 1    
   244  124  125 1    
   245  124  244 1    
   246  124  245 1    
   247  125  126 1    
   248  126  246 1    
   249  126  247 1    
@<TRIPOS>SUBSTRUCTURE
     1 UNK         1 GROUP             0       ****    0 ROOT    
