@<TRIPOS>MOLECULE
3R540
247   249    1
SMALL
USER_CHARGES


@<TRIPOS>ATOM
      1 CA         -5.6419  -18.7283  -44.8082 C.3       0 UNK        -0.1800 
      2 C          -5.9436  -17.7070  -45.8968 C.2       0 UNK         0.5000 
      3 O          -7.0425  -17.1523  -45.9331 O.2       0 UNK        -0.5000 
      4 N          -4.9742  -17.4678  -46.7853 N.am      1 UNK        -0.5000 
      5 CA         -5.0450  -16.4993  -47.8807 C.3       1 UNK         0.1400 
      6 C6         -4.1373  -16.9165  -49.0682 C.3       23 UNK        -0.0398 
      7 S7         -2.3912  -17.2170  -48.6290 S.3       23 UNK        -0.2404 
      8 C8         -1.7024  -17.6251  -50.2621 C.3       23 UNK        -0.0205 
      9 C9         -0.2587  -18.0860  -50.1660 C.ar      23 UNK        -0.0193 
     10 C10         0.7817  -17.1754  -50.3547 C.ar      23 UNK        -0.1150 
     11 C11         2.1134  -17.5921  -50.2931 C.ar      23 UNK        -0.0193 
     12 C12         2.4012  -18.9334  -50.0239 C.ar      23 UNK        -0.1150 
     13 C13         1.3687  -19.8576  -49.8342 C.ar      23 UNK        -0.0193 
     14 C14         0.0399  -19.4279  -49.9146 C.ar      23 UNK        -0.1150 
     15 C15         1.6973  -21.3201  -49.5669 C.3       23 UNK        -0.0205 
     16 S16         1.8045  -21.6754  -47.7838 S.3       23 UNK        -0.2404 
     17 C17         0.0471  -21.9019  -47.3473 C.3       23 UNK        -0.0398 
     18 CA         -0.2628  -23.3114  -46.7888 C.3       11 UNK         0.1400 
     19 N           0.5256  -23.6486  -45.5991 N.am      11 UNK        -0.5000 
     20 C           0.6025  -24.8784  -45.0667 C.2       10 UNK         0.5000 
     21 O           0.0155  -25.8548  -45.5286 O.2       10 UNK        -0.5000 
     22 CA          1.4341  -25.0500  -43.7812 C.3       10 UNK         0.1400 
     23 CB          2.8909  -25.3875  -44.1302 C.3       10 UNK        -0.1800 
     24 N           1.4107  -23.8746  -42.9140 N.am      10 UNK        -0.5000 
     25 C           0.3154  -23.3281  -42.3662 C.2       9 UNK         0.5000 
     26 O          -0.8137  -23.8102  -42.4657 O.2       9 UNK        -0.5000 
     27 CA          0.5165  -21.9738  -41.6540 C.3       9 UNK         0.1400 
     28 CB          0.7473  -22.1840  -40.1506 C.3       9 UNK        -0.1800 
     29 N           1.6306  -21.1953  -42.2147 N.am      9 UNK        -0.5000 
     30 C           1.6776  -20.7577  -43.4806 C.2       8 UNK         0.5000 
     31 O           0.7535  -20.9111  -44.2824 O.2       8 UNK        -0.5000 
     32 CA          3.0063  -20.1448  -43.9513 C.3       8 UNK         0.1400 
     33 CB          4.0033  -21.2608  -44.3046 C.3       8 UNK        -0.1800 
     34 N           2.7902  -19.3281  -45.1422 N.am      8 UNK        -0.5000 
     35 C           2.4900  -18.0270  -45.1185 C.2       7 UNK         0.5000 
     36 O           2.4550  -17.3471  -44.0886 O.2       7 UNK        -0.5000 
     37 CA          2.1296  -17.3927  -46.4719 C.3       7 UNK         0.1400 
     38 CB          0.6088  -17.4055  -46.6684 C.3       7 UNK        -0.1800 
     39 N           2.6033  -16.0141  -46.5433 N.am      7 UNK        -0.5000 
     40 C           3.8823  -15.6586  -46.7183 C.2       6 UNK         0.5000 
     41 O           4.7883  -16.4545  -46.9689 O.2       6 UNK        -0.5000 
     42 CA          4.2065  -14.1630  -46.5555 C.3       6 UNK         0.1400 
     43 CB          3.8011  -13.3661  -47.8046 C.3       6 UNK        -0.1800 
     44 N           3.5482  -13.5980  -45.3779 N.am      6 UNK        -0.5000 
     45 C           3.9125  -13.8356  -44.1110 C.2       5 UNK         0.5000 
     46 O           4.9195  -14.4777  -43.8090 O.2       5 UNK        -0.5000 
     47 CA          3.0121  -13.2923  -42.9795 C.3       5 UNK         0.1400 
     48 CB          3.5705  -11.9765  -42.4028 C.3       5 UNK        -0.1800 
     49 N           1.5862  -13.1739  -43.3212 N.am      5 UNK        -0.5000 
     50 C           0.9949  -12.3273  -44.1738 C.2       4 UNK         0.5000 
     51 O           1.5885  -11.4482  -44.8022 O.2       4 UNK        -0.5000 
     52 CA         -0.5168  -12.5298  -44.3892 C.3       4 UNK         0.1400 
     53 CB         -1.3229  -11.4905  -43.5963 C.3       4 UNK        -0.1800 
     54 N          -0.8909  -12.4483  -45.8012 N.am      4 UNK        -0.5000 
     55 C          -0.3983  -13.2095  -46.7864 C.2       3 UNK         0.5000 
     56 O           0.4293  -14.1042  -46.6009 O.2       3 UNK        -0.5000 
     57 CA         -0.9341  -12.9227  -48.2061 C.3       3 UNK         0.1400 
     58 CB         -0.2858  -13.8233  -49.2687 C.3       3 UNK        -0.1800 
     59 N          -2.3842  -13.0940  -48.2923 N.am      3 UNK        -0.5000 
     60 C          -3.3123  -12.2404  -47.8410 C.2       2 UNK         0.5000 
     61 O          -3.0389  -11.1649  -47.3056 O.2       2 UNK        -0.5000 
     62 CA         -4.7919  -12.6492  -48.0059 C.3       2 UNK         0.1400 
     63 CB         -5.4385  -11.8513  -49.1494 C.3       2 UNK        -0.1800 
     64 N          -5.0060  -14.0792  -48.2562 N.am      2 UNK        -0.5000 
     65 C          -4.7465  -15.0658  -47.3862 C.2       1 UNK         0.5000 
     66 O          -4.2816  -14.8722  -46.2597 O.2       1 UNK        -0.5000 
     67 C          -1.7729  -23.4440  -46.5182 C.2       11 UNK         0.5000 
     68 O          -2.5073  -23.9141  -47.3882 O.2       11 UNK        -0.5000 
     69 N          -2.2048  -23.0435  -45.3149 N.am      12 UNK        -0.5000 
     70 CA         -3.5815  -23.1910  -44.8505 C.3       12 UNK         0.1400 
     71 CB         -3.8181  -22.2805  -43.6362 C.3       12 UNK        -0.1800 
     72 C          -3.9121  -24.6569  -44.5239 C.2       12 UNK         0.5000 
     73 O          -4.9772  -25.1352  -44.9128 O.2       12 UNK        -0.5000 
     74 N          -2.9803  -25.3510  -43.8533 N.am      13 UNK        -0.5000 
     75 CA         -3.1044  -26.7589  -43.4667 C.3       13 UNK         0.1400 
     76 CB         -1.9372  -27.1412  -42.5450 C.3       13 UNK        -0.1800 
     77 C          -3.1842  -27.7189  -44.6694 C.2       13 UNK         0.5000 
     78 O          -3.9989  -28.6422  -44.6556 O.2       13 UNK        -0.5000 
     79 N          -2.3592  -27.4715  -45.6962 N.am      14 UNK        -0.5000 
     80 CA         -2.3382  -28.2315  -46.9491 C.3       14 UNK         0.1400 
     81 CB         -0.9744  -28.0289  -47.6292 C.3       14 UNK        -0.1800 
     82 C          -3.4715  -27.8455  -47.9203 C.2       14 UNK         0.5000 
     83 O          -3.6672  -28.5445  -48.9153 O.2       14 UNK        -0.5000 
     84 N          -4.1676  -26.7332  -47.6383 N.am      15 UNK        -0.5000 
     85 CA         -5.1928  -26.0879  -48.4666 C.3       15 UNK         0.1400 
     86 CB         -6.4326  -26.9912  -48.6306 C.3       15 UNK        -0.1800 
     87 C          -4.6381  -25.5643  -49.8102 C.2       15 UNK         0.5000 
     88 O          -5.3672  -25.4935  -50.8007 O.2       15 UNK        -0.5000 
     89 N          -3.3546  -25.1797  -49.8076 N.am      16 UNK        -0.5000 
     90 CA         -2.6701  -24.5123  -50.9139 C.3       16 UNK         0.1400 
     91 CB         -1.1525  -24.6610  -50.7272 C.3       16 UNK        -0.1800 
     92 C          -3.0572  -23.0253  -51.0014 C.2       16 UNK         0.5000 
     93 O          -3.0356  -22.4511  -52.0900 O.2       16 UNK        -0.5000 
     94 N          -3.4424  -22.4376  -49.8598 N.am      17 UNK        -0.5000 
     95 CA         -3.9208  -21.0647  -49.6901 C.3       17 UNK         0.1400 
     96 CB         -3.8036  -20.7062  -48.1983 C.3       17 UNK        -0.1800 
     97 C          -5.3459  -20.8293  -50.2494 C.2       17 UNK         0.5000 
     98 O          -6.1815  -20.2177  -49.5826 O.2       17 UNK        -0.5000 
     99 N          -5.6061  -21.3290  -51.4626 N.am      18 UNK        -0.5000 
    100 CA        -6.8912  -21.2531  -52.1609 C.3       18 UNK         0.1400 
    101 CB        -6.9878  -22.4465  -53.1244 C.3       18 UNK        -0.1800 
    102 C         -7.0949  -19.9273  -52.9220 C.2       18 UNK         0.5000 
    103 O         -8.2197  -19.6290  -53.3258 O.2       18 UNK        -0.5000 
    104 N         -6.0157  -19.1628  -53.1125 N.am      19 UNK        -0.5000 
    105 CA        -5.9795  -17.8581  -53.7639 C.3       19 UNK         0.1400 
    106 CB        -5.6749  -18.0440  -55.2608 C.3       19 UNK        -0.1800 
    107 C         -4.9023  -17.0069  -53.0768 C.2       19 UNK         0.5000 
    108 O         -4.1233  -17.5376  -52.2841 O.2       19 UNK        -0.5000 
    109 N         -4.8697  -15.7048  -53.3868 N.am      20 UNK        -0.5000 
    110 CA        -3.9036  -14.7499  -52.8322 C.3       20 UNK         0.1400 
    111 CB        -4.4119  -13.3212  -53.0792 C.3       20 UNK        -0.1800 
    112 C         -2.4711  -14.9187  -53.3785 C.2       20 UNK         0.5000 
    113 O         -1.5240  -14.4907  -52.7192 O.2       20 UNK        -0.5000 
    114 N         -2.3341  -15.5198  -54.5677 N.am      21 UNK        -0.5000 
    115 CA        -1.0511  -15.8169  -55.2029 C.3       21 UNK         0.1400 
    116 CB        -1.2935  -16.1553  -56.6822 C.3       21 UNK        -0.1800 
    117 C         -0.3250  -16.9753  -54.4945 C.2       21 UNK         0.5000 
    118 O         -0.9651  -17.9660  -54.1347 O.2       21 UNK        -0.5000 
    119 N          0.9955  -16.8374  -54.3337 N.am      22 UNK        -0.5000 
    120 CA         1.8706  -17.8561  -53.7347 C.3       22 UNK         0.1400 
    121 C          2.0706  -19.0901  -54.6564 C.2       22 UNK         0.5000 
    122 N          2.1908  -20.2823  -54.0880 N.am      22 UNK        -0.7600 
    123 O          2.1637  -18.9720  -55.8766 O.2       22 UNK        -0.5000 
    124 C124        3.2446  -17.2712  -53.3077 C.3       23 UNK        -0.0398 
    125 S125        3.1150  -15.8253  -52.1958 S.3       23 UNK        -0.2404 
    126 C126        3.2348  -16.5954  -50.5458 C.3       23 UNK        -0.0205 
    127 H127       -6.3439  -19.5601  -44.8682 H         1 UNK         0.0600 
    128 H128       -5.7373  -18.2690  -43.8244 H         1 UNK         0.0600 
    129 H129       -4.6323  -19.1299  -44.8996 H         1 UNK         0.0600 
    130 H130       -4.0735  -17.9098  -46.6720 H         1 UNK         0.3000 
    131 H131       -6.0716  -16.4901  -48.2538 H         1 UNK         0.0600 
    132 H132       -4.5325  -17.8306  -49.5123 H         1 UNK         0.0800 
    133 H133       -4.1751  -16.1755  -49.8654 H         1 UNK         0.0800 
    134 H134       -2.2961  -18.4091  -50.7283 H         1 UNK         0.0800 
    135 H135       -1.7776  -16.7550  -50.9158 H         1 UNK         0.0800 
    136 H136        0.5589  -16.1444  -50.5848 H         1 UNK         0.1150 
    137 H137        3.4296  -19.2624  -49.9717 H         1 UNK         0.1150 
    138 H138       -0.7673  -20.1333  -49.7878 H         1 UNK         0.1150 
    139 H139        0.9610  -21.9719  -50.0396 H         1 UNK         0.0800 
    140 H140        2.6548  -21.5705  -50.0260 H         1 UNK         0.0800 
    141 H141       -0.5637  -21.7263  -48.2320 H         1 UNK         0.0800 
    142 H142       -0.2321  -21.1235  -46.6363 H         1 UNK         0.0800 
    143 H143       -0.0096  -24.0406  -47.5609 H         1 UNK         0.0600 
    144 H144        0.9853  -22.8732  -45.1394 H         1 UNK         0.3000 
    145 H145        1.0147  -25.8855  -43.2191 H         1 UNK         0.0600 
    146 H146        3.4764  -25.5875  -43.2326 H         1 UNK         0.0600 
    147 H147        2.9451  -26.2787  -44.7570 H         1 UNK         0.0600 
    148 H148        3.3743  -24.5744  -44.6735 H         1 UNK         0.0600 
    149 H149        2.2928  -23.4080  -42.7680 H         1 UNK         0.3000 
    150 H150       -0.4002  -21.3949  -41.7847 H         1 UNK         0.0600 
    151 H151        1.6646  -22.7415  -39.9571 H         1 UNK         0.0600 
    152 H152       -0.0768  -22.7424  -39.7042 H         1 UNK         0.0600 
    153 H153        0.8148  -21.2315  -39.6247 H         1 UNK         0.0600 
    154 H154        2.4240  -21.0416  -41.6086 H         1 UNK         0.3000 
    155 H155        3.4252  -19.5371  -43.1463 H         1 UNK         0.0600 
    156 H156        3.6159  -21.9176  -45.0851 H         1 UNK         0.0600 
    157 H157        4.2289  -21.8797  -43.4355 H         1 UNK         0.0600 
    158 H158        4.9477  -20.8459  -44.6576 H         1 UNK         0.0600 
    159 H159        2.7176  -19.8321  -46.0152 H         1 UNK         0.3000 
    160 H160        2.5927  -17.9646  -47.2782 H         1 UNK         0.0600 
    161 H161        0.0876  -16.9277  -45.8378 H         1 UNK         0.0600 
    162 H162        0.2323  -18.4254  -46.7566 H         1 UNK         0.0600 
    163 H163        0.3325  -16.8733  -47.5767 H         1 UNK         0.0600 
    164 H164        1.9076  -15.2935  -46.3696 H         1 UNK         0.3000 
    165 H165        5.2868  -14.0647  -46.4294 H         1 UNK         0.0600 
    166 H166        4.0930  -12.3196  -47.7152 H         1 UNK         0.0600 
    167 H167        4.2857  -13.7643  -48.6968 H         1 UNK         0.0600 
    168 H168        2.7251  -13.3989  -47.9713 H         1 UNK         0.0600 
    169 H169        2.7239  -13.0306  -45.5353 H         1 UNK         0.3000 
    170 H170        3.0526  -14.0356  -42.1816 H         1 UNK         0.0600 
    171 H171        4.5820  -12.1204  -42.0211 H         1 UNK         0.0600 
    172 H172        3.6193  -11.1877  -43.1536 H         1 UNK         0.0600 
    173 H173        2.9593  -11.6168  -41.5751 H         1 UNK         0.0600 
    174 H174        1.0019  -13.8771  -42.8901 H         1 UNK         0.3000 
    175 H175       -0.7941  -13.5256  -44.0375 H         1 UNK         0.0600 
    176 H176       -1.0872  -11.5410  -42.5325 H         1 UNK         0.0600 
    177 H177       -1.1088  -10.4752  -43.9329 H         1 UNK         0.0600 
    178 H178       -2.3950  -11.6594  -43.7001 H         1 UNK         0.0600 
    179 H179       -1.5774  -11.7460  -46.0542 H         1 UNK         0.3000 
    180 H180       -0.6855  -11.8871  -48.4465 H         1 UNK         0.0600 
    181 H181       -0.4984  -14.8725  -49.0673 H         1 UNK         0.0600 
    182 H182        0.7971  -13.7029  -49.2884 H         1 UNK         0.0600 
    183 H183       -0.6551  -13.5899  -50.2671 H         1 UNK         0.0600 
    184 H184       -2.7006  -13.9720  -48.6743 H         1 UNK         0.3000 
    185 H185       -5.3029  -12.3915  -47.0760 H         1 UNK         0.0600 
    186 H186       -5.3353  -10.7778  -48.9852 H         1 UNK         0.0600 
    187 H187       -4.9778  -12.0812  -50.1110 H         1 UNK         0.0600 
    188 H188       -6.5049  -12.0638  -49.2270 H         1 UNK         0.0600 
    189 H189       -5.4084  -14.3100  -49.1527 H         1 UNK         0.3000 
    190 H190       -1.5318  -22.6936  -44.6473 H         1 UNK         0.3000 
    191 H191       -4.2527  -22.8670  -45.6485 H         1 UNK         0.0600 
    192 H192       -3.6142  -21.2381  -43.8806 H         1 UNK         0.0600 
    193 H193       -4.8547  -22.3397  -43.3024 H         1 UNK         0.0600 
    194 H194       -3.1857  -22.5554  -42.7917 H         1 UNK         0.0600 
    195 H195       -2.1479  -24.8638  -43.5365 H         1 UNK         0.3000 
    196 H196       -4.0310  -26.8623  -42.8984 H         1 UNK         0.0600 
    197 H197       -2.0509  -28.1611  -42.1756 H         1 UNK         0.0600 
    198 H198       -1.8848  -26.4836  -41.6770 H         1 UNK         0.0600 
    199 H199       -0.9818  -27.0874  -43.0659 H         1 UNK         0.0600 
    200 H200       -1.6659  -26.7323  -45.6083 H         1 UNK         0.3000 
    201 H201       -2.4493  -29.2930  -46.7187 H         1 UNK         0.0600 
    202 H202       -0.8947  -28.6274  -48.5375 H         1 UNK         0.0600 
    203 H203       -0.1572  -28.3272  -46.9721 H         1 UNK         0.0600 
    204 H204       -0.8166  -26.9863  -47.9089 H         1 UNK         0.0600 
    205 H205       -3.9311  -26.2416  -46.7869 H         1 UNK         0.3000 
    206 H206       -5.5067  -25.2029  -47.9110 H         1 UNK         0.0600 
    207 H207       -6.7942  -27.3420  -47.6640 H         1 UNK         0.0600 
    208 H208       -7.2510  -26.4477  -49.1041 H         1 UNK         0.0600 
    209 H209       -6.2221  -27.8643  -49.2485 H         1 UNK         0.0600 
    210 H210       -2.8638  -25.1966  -48.9208 H         1 UNK         0.3000 
    211 H211       -2.9549  -24.9950  -51.8510 H         1 UNK         0.0600 
    212 H212       -0.8085  -24.1701  -49.8170 H         1 UNK         0.0600 
    213 H213       -0.6119  -24.2158  -51.5634 H         1 UNK         0.0600 
    214 H214       -0.8623  -25.7105  -50.6731 H         1 UNK         0.0600 
    215 H215       -3.4136  -23.0017  -49.0183 H         1 UNK         0.3000 
    216 H216       -3.2559  -20.4056  -50.2481 H         1 UNK         0.0600 
    217 H217       -4.1367  -19.6888  -48.0115 H         1 UNK         0.0600 
    218 H218       -2.7729  -20.7700  -47.8526 H         1 UNK         0.0600 
    219 H219       -4.4110  -21.3662  -47.5787 H         1 UNK         0.0600 
    220 H220       -4.8474  -21.8004  -51.9463 H         1 UNK         0.3000 
    221 H221       -7.6982  -21.3395  -51.4303 H         1 UNK         0.0600 
    222 H222       -6.2041  -22.4152  -53.8824 H         1 UNK         0.0600 
    223 H223       -6.8987  -23.3926  -52.5895 H         1 UNK         0.0600 
    224 H224       -7.9474  -22.4560  -53.6429 H         1 UNK         0.0600 
    225 H225       -5.1396  -19.4346  -52.6852 H         1 UNK         0.3000 
    226 H226       -6.9399  -17.3533  -53.6404 H         1 UNK         0.0600 
    227 H227       -5.6671  -17.0883  -55.7858 H         1 UNK         0.0600 
    228 H228       -4.7028  -18.5142  -55.4164 H         1 UNK         0.0600 
    229 H229       -6.4283  -18.6688  -55.7409 H         1 UNK         0.0600 
    230 H230       -5.5429  -15.3359  -54.0433 H         1 UNK         0.3000 
    231 H231       -3.8518  -14.9001  -51.7532 H         1 UNK         0.0600 
    232 H232       -4.4990  -13.1037  -54.1444 H         1 UNK         0.0600 
    233 H233       -3.7323  -12.5847  -52.6481 H         1 UNK         0.0600 
    234 H234       -5.3892  -13.1649  -52.6221 H         1 UNK         0.0600 
    235 H235       -3.1596  -15.8778  -55.0226 H         1 UNK         0.3000 
    236 H236       -0.4271  -14.9218  -55.1527 H         1 UNK         0.0600 
    237 H237       -1.7681  -15.3249  -57.2052 H         1 UNK         0.0600 
    238 H238       -0.3530  -16.3664  -57.1928 H         1 UNK         0.0600 
    239 H239       -1.9316  -17.0330  -56.7946 H         1 UNK         0.0600 
    240 H240        1.4538  -16.0023  -54.6660 H         1 UNK         0.3000 
    241 H241        1.3640  -18.2162  -52.8396 H         1 UNK         0.0600 
    242 H242        2.1195  -20.4008  -53.0898 H         1 UNK         0.3800 
    243 H243        2.3375  -21.0901  -54.6732 H         1 UNK         0.3800 
    244 H244        3.8493  -18.0362  -52.8172 H         1 UNK         0.0800 
    245 H245        3.8103  -16.9612  -54.1880 H         1 UNK         0.0800 
    246 H246        4.2124  -17.0674  -50.4374 H         1 UNK         0.0800 
    247 H247        3.1835  -15.8135  -49.7876 H         1 UNK         0.0800 
@<TRIPOS>BOND
     1    1    2 1    
     2    1  127 1    
     3    1  128 1    
     4    1  129 1    
     5    2    3 2    
     6    2    4 am   BACKBONE|DICT|INTERRES
     7    4    5 1    
     8    4  130 1    
     9    5    6 1    
    10    5   65 1    
    11    5  131 1    
    12    6    7 1    
    13    6  132 1    
    14    6  133 1    
    15    7    8 1    
    16    8    9 1    
    17    8  134 1    
    18    8  135 1    
    19    9   10 ar   
    20    9   14 ar   
    21   10   11 ar   
    22   10  136 1    
    23   11   12 ar   
    24   11  126 1    
    25   12   13 ar   
    26   12  137 1    
    27   13   14 ar   
    28   13   15 1    
    29   14  138 1    
    30   15   16 1    
    31   15  139 1    
    32   15  140 1    
    33   16   17 1    
    34   17   18 1    
    35   17  141 1    
    36   17  142 1    
    37   18   19 1    
    38   18   67 1    
    39   18  143 1    
    40   19   20 am   BACKBONE|DICT|INTERRES
    41   19  144 1    
    42   20   21 2    
    43   20   22 1    
    44   22   23 1    
    45   22   24 1    
    46   22  145 1    
    47   23  146 1    
    48   23  147 1    
    49   23  148 1    
    50   24   25 am   BACKBONE|DICT|INTERRES
    51   24  149 1    
    52   25   26 2    
    53   25   27 1    
    54   27   28 1    
    55   27   29 1    
    56   27  150 1    
    57   28  151 1    
    58   28  152 1    
    59   28  153 1    
    60   29   30 am   BACKBONE|DICT|INTERRES
    61   29  154 1    
    62   30   31 2    
    63   30   32 1    
    64   32   33 1    
    65   32   34 1    
    66   32  155 1    
    67   33  156 1    
    68   33  157 1    
    69   33  158 1    
    70   34   35 am   BACKBONE|DICT|INTERRES
    71   34  159 1    
    72   35   36 2    
    73   35   37 1    
    74   37   38 1    
    75   37   39 1    
    76   37  160 1    
    77   38  161 1    
    78   38  162 1    
    79   38  163 1    
    80   39   40 am   BACKBONE|DICT|INTERRES
    81   39  164 1    
    82   40   41 2    
    83   40   42 1    
    84   42   43 1    
    85   42   44 1    
    86   42  165 1    
    87   43  166 1    
    88   43  167 1    
    89   43  168 1    
    90   44   45 am   BACKBONE|DICT|INTERRES
    91   44  169 1    
    92   45   46 2    
    93   45   47 1    
    94   47   48 1    
    95   47   49 1    
    96   47  170 1    
    97   48  171 1    
    98   48  172 1    
    99   48  173 1    
   100   49   50 am   BACKBONE|DICT|INTERRES
   101   49  174 1    
   102   50   51 2    
   103   50   52 1    
   104   52   53 1    
   105   52   54 1    
   106   52  175 1    
   107   53  176 1    
   108   53  177 1    
   109   53  178 1    
   110   54   55 am   BACKBONE|DICT|INTERRES
   111   54  179 1    
   112   55   56 2    
   113   55   57 1    
   114   57   58 1    
   115   57   59 1    
   116   57  180 1    
   117   58  181 1    
   118   58  182 1    
   119   58  183 1    
   120   59   60 am   BACKBONE|DICT|INTERRES
   121   59  184 1    
   122   60   61 2    
   123   60   62 1    
   124   62   63 1    
   125   62   64 1    
   126   62  185 1    
   127   63  186 1    
   128   63  187 1    
   129   63  188 1    
   130   64   65 am   BACKBONE|DICT|INTERRES
   131   64  189 1    
   132   65   66 2    
   133   67   68 2    
   134   67   69 am   BACKBONE|DICT|INTERRES
   135   69   70 1    
   136   69  190 1    
   137   70   71 1    
   138   70   72 1    
   139   70  191 1    
   140   71  192 1    
   141   71  193 1    
   142   71  194 1    
   143   72   73 2    
   144   72   74 am   BACKBONE|DICT|INTERRES
   145   74   75 1    
   146   74  195 1    
   147   75   76 1    
   148   75   77 1    
   149   75  196 1    
   150   76  197 1    
   151   76  198 1    
   152   76  199 1    
   153   77   78 2    
   154   77   79 am   BACKBONE|DICT|INTERRES
   155   79   80 1    
   156   79  200 1    
   157   80   81 1    
   158   80   82 1    
   159   80  201 1    
   160   81  202 1    
   161   81  203 1    
   162   81  204 1    
   163   82   83 2    
   164   82   84 am   BACKBONE|DICT|INTERRES
   165   84   85 1    
   166   84  205 1    
   167   85   86 1    
   168   85   87 1    
   169   85  206 1    
   170   86  207 1    
   171   86  208 1    
   172   86  209 1    
   173   87   88 2    
   174   87   89 am   BACKBONE|DICT|INTERRES
   175   89   90 1    
   176   89  210 1    
   177   90   91 1    
   178   90   92 1    
   179   90  211 1    
   180   91  212 1    
   181   91  213 1    
   182   91  214 1    
   183   92   93 2    
   184   92   94 am   BACKBONE|DICT|INTERRES
   185   94   95 1    
   186   94  215 1    
   187   95   96 1    
   188   95   97 1    
   189   95  216 1    
   190   96  217 1    
   191   96  218 1    
   192   96  219 1    
   193   97   98 2    
   194   97   99 am   BACKBONE|DICT|INTERRES
   195   99  100 1    
   196   99  220 1    
   197  100  101 1    
   198  100  102 1    
   199  100  221 1    
   200  101  222 1    
   201  101  223 1    
   202  101  224 1    
   203  102  103 2    
   204  102  104 am   BACKBONE|DICT|INTERRES
   205  104  105 1    
   206  104  225 1    
   207  105  106 1    
   208  105  107 1    
   209  105  226 1    
   210  106  227 1    
   211  106  228 1    
   212  106  229 1    
   213  107  108 2    
   214  107  109 am   BACKBONE|DICT|INTERRES
   215  109  110 1    
   216  109  230 1    
   217  110  111 1    
   218  110  112 1    
   219  110  231 1    
   220  111  232 1    
   221  111  233 1    
   222  111  234 1    
   223  112  113 2    
   224  112  114 am   BACKBONE|DICT|INTERRES
   225  114  115 1    
   226  114  235 1    
   227  115  116 1    
   228  115  117 1    
   229  115  236 1    
   230  116  237 1    
   231  116  238 1    
   232  116  239 1    
   233  117  118 2    
   234  117  119 am   BACKBONE|DICT|INTERRES
   235  119  120 1    
   236  119  240 1    
   237  120  121 1    
   238  120  124 1    
   239  120  241 1    
   240  121  122 am   BACKBONE|DICT|INTERRES
   241  121  123 2    
   242  122  242 1    
   243  122  243 1    
   244  124  125 1    
   245  124  244 1    
   246  124  245 1    
   247  125  126 1    
   248  126  246 1    
   249  126  247 1    
@<TRIPOS>SUBSTRUCTURE
     1 UNK         1 GROUP             0       ****    0 ROOT    
