@<TRIPOS>MOLECULE
3R540
247   249    1
SMALL
USER_CHARGES


@<TRIPOS>ATOM
      1 CA         -2.3659  -12.5248  -51.5244 C.3       0 UNK        -0.1800 
      2 C          -1.6220  -13.1368  -50.3460 C.2       0 UNK         0.5000 
      3 O          -0.3920  -13.1835  -50.3574 O.2       0 UNK        -0.5000 
      4 N          -2.3635  -13.6204  -49.3414 N.am      1 UNK        -0.5000 
      5 CA         -1.8349  -14.2463  -48.1263 C.3       1 UNK         0.1400 
      6 C6         -2.9522  -14.9244  -47.2960 C.3       23 UNK        -0.0398 
      7 S7         -3.6986  -16.3498  -48.1598 S.3       23 UNK        -0.2404 
      8 C8         -2.8229  -17.7186  -47.3485 C.3       23 UNK        -0.0205 
      9 C9         -3.3226  -19.0761  -47.8116 C.ar      23 UNK        -0.0193 
     10 C10        -2.8166  -19.6584  -48.9783 C.ar      23 UNK        -0.1150 
     11 C11        -3.2502  -20.9240  -49.3829 C.ar      23 UNK        -0.0193 
     12 C12        -4.1948  -21.6048  -48.6123 C.ar      23 UNK        -0.1150 
     13 C13        -4.6998  -21.0386  -47.4389 C.ar      23 UNK        -0.0193 
     14 C14        -4.2669  -19.7691  -47.0487 C.ar      23 UNK        -0.1150 
     15 C15        -5.6933  -21.8100  -46.5818 C.3       23 UNK        -0.0205 
     16 S16        -4.9236  -22.4860  -45.0715 S.3       23 UNK        -0.2404 
     17 C17        -3.5676  -23.4929  -45.7634 C.3       23 UNK        -0.0398 
     18 CA         -2.1898  -22.7899  -45.6009 C.3       11 UNK         0.1400 
     19 N          -1.7227  -22.7176  -44.2107 N.am      11 UNK        -0.5000 
     20 C          -1.3692  -23.7533  -43.4334 C.2       10 UNK         0.5000 
     21 O          -1.5243  -24.9344  -43.7458 O.2       10 UNK        -0.5000 
     22 CA         -0.6881  -23.4291  -42.0912 C.3       10 UNK         0.1400 
     23 CB          0.8282  -23.6508  -42.2123 C.3       10 UNK        -0.1800 
     24 N          -0.9347  -22.0645  -41.6255 N.am      10 UNK        -0.5000 
     25 C          -2.0937  -21.6394  -41.1054 C.2       9 UNK         0.5000 
     26 O          -3.0705  -22.3673  -40.9246 O.2       9 UNK        -0.5000 
     27 CA         -2.1813  -20.1471  -40.7374 C.3       9 UNK         0.1400 
     28 CB         -1.5815  -19.8980  -39.3453 C.3       9 UNK        -0.1800 
     29 N          -1.5288  -19.2716  -41.7131 N.am      9 UNK        -0.5000 
     30 C          -1.9304  -19.1093  -42.9821 C.2       8 UNK         0.5000 
     31 O          -2.8954  -19.6887  -43.4777 O.2       8 UNK        -0.5000 
     32 CA         -1.0971  -18.1546  -43.8535 C.3       8 UNK         0.1400 
     33 CB         -1.4261  -16.6908  -43.5171 C.3       8 UNK        -0.1800 
     34 N           0.3384  -18.3951  -43.7274 N.am      8 UNK        -0.5000 
     35 C           0.9518  -19.5187  -44.1293 C.2       7 UNK         0.5000 
     36 O           0.3860  -20.4413  -44.7199 O.2       7 UNK        -0.5000 
     37 CA          2.4401  -19.6490  -43.7641 C.3       7 UNK         0.1400 
     38 CB          3.3237  -18.9317  -44.7985 C.3       7 UNK        -0.1800 
     39 N           2.7249  -19.1324  -42.4230 N.am      7 UNK        -0.5000 
     40 C           2.2829  -19.6918  -41.2864 C.2       6 UNK         0.5000 
     41 O           1.6019  -20.7145  -41.2486 O.2       6 UNK        -0.5000 
     42 CA          2.6201  -18.9645  -39.9723 C.3       6 UNK         0.1400 
     43 CB          4.0291  -19.3413  -39.4914 C.3       6 UNK        -0.1800 
     44 N           2.5221  -17.5107  -40.0936 N.am      6 UNK        -0.5000 
     45 C           1.3857  -16.8395  -40.3300 C.2       5 UNK         0.5000 
     46 O           0.2805  -17.3734  -40.4163 O.2       5 UNK        -0.5000 
     47 CA          1.5239  -15.3245  -40.5759 C.3       5 UNK         0.1400 
     48 CB          1.4679  -14.5524  -39.2497 C.3       5 UNK        -0.1800 
     49 N           2.7563  -14.9786  -41.2933 N.am      5 UNK        -0.5000 
     50 C           3.0409  -15.3973  -42.5326 C.2       4 UNK         0.5000 
     51 O           2.2748  -16.0886  -43.2101 O.2       4 UNK        -0.5000 
     52 CA          4.4304  -15.0479  -43.0790 C.3       4 UNK         0.1400 
     53 CB          5.4913  -16.0120  -42.5157 C.3       4 UNK        -0.1800 
     54 N           4.3834  -15.1517  -44.5310 N.am      4 UNK        -0.5000 
     55 C           5.2388  -14.5957  -45.3956 C.2       3 UNK         0.5000 
     56 O           6.2340  -13.9539  -45.0570 O.2       3 UNK        -0.5000 
     57 CA          4.9250  -14.7749  -46.8966 C.3       3 UNK         0.1400 
     58 CB          5.7189  -15.9596  -47.4686 C.3       3 UNK        -0.1800 
     59 N           3.5013  -14.9784  -47.1856 N.am      3 UNK        -0.5000 
     60 C           2.5374  -14.0742  -46.9651 C.2       2 UNK         0.5000 
     61 O           2.7492  -12.9396  -46.5267 O.2       2 UNK        -0.5000 
     62 CA          1.0974  -14.5270  -47.2580 C.3       2 UNK         0.1400 
     63 CB          0.7555  -15.8144  -46.4790 C.3       2 UNK        -0.1800 
     64 N           0.1930  -13.4398  -46.8848 N.am      2 UNK        -0.5000 
     65 C          -1.0709  -13.2110  -47.2653 C.2       1 UNK         0.5000 
     66 O          -1.6595  -12.1826  -46.9290 O.2       1 UNK        -0.5000 
     67 C          -1.0855  -23.3967  -46.4933 C.2       11 UNK         0.5000 
     68 O          -1.3213  -24.3747  -47.2046 O.2       11 UNK        -0.5000 
     69 N           0.1228  -22.8293  -46.3865 N.am      12 UNK        -0.5000 
     70 CA          1.3298  -23.2930  -47.0584 C.3       12 UNK         0.1400 
     71 CB          1.8407  -24.5887  -46.3923 C.3       12 UNK        -0.1800 
     72 C           2.3775  -22.1658  -47.0010 C.2       12 UNK         0.5000 
     73 O           3.1737  -22.1411  -46.0635 O.2       12 UNK        -0.5000 
     74 N           2.3871  -21.2076  -47.9350 N.am      13 UNK        -0.5000 
     75 CA          1.5218  -21.0421  -49.0991 C.3       13 UNK         0.1400 
     76 CB          2.0397  -21.9149  -50.2615 C.3       13 UNK        -0.1800 
     77 C           1.5320  -19.5585  -49.5028 C.2       13 UNK         0.5000 
     78 O           2.3368  -18.7848  -48.9739 O.2       13 UNK        -0.5000 
     79 N           0.6671  -19.1926  -50.4549 N.am      14 UNK        -0.5000 
     80 CA          0.6218  -17.8722  -51.0747 C.3       14 UNK         0.1400 
     81 CB         -0.0836  -16.8697  -50.1480 C.3       14 UNK        -0.1800 
     82 C          -0.1209  -17.9640  -52.4122 C.2       14 UNK         0.5000 
     83 O          -0.9900  -18.8245  -52.5721 O.2       14 UNK        -0.5000 
     84 N           0.1822  -17.0317  -53.3229 N.am      15 UNK        -0.5000 
     85 CA         -0.4862  -16.8531  -54.6159 C.3       15 UNK         0.1400 
     86 CB          0.5214  -16.2578  -55.6159 C.3       15 UNK        -0.1800 
     87 C          -1.7643  -15.9956  -54.4750 C.2       15 UNK         0.5000 
     88 O          -1.9605  -15.0323  -55.2184 O.2       15 UNK        -0.5000 
     89 N          -2.5935  -16.3482  -53.4890 N.am      16 UNK        -0.5000 
     90 CA         -3.8656  -15.7096  -53.1656 C.3       16 UNK         0.1400 
     91 CB         -4.1032  -15.9103  -51.6595 C.3       16 UNK        -0.1800 
     92 C          -5.0186  -16.3204  -53.9829 C.2       16 UNK         0.5000 
     93 O          -4.8046  -17.2367  -54.7773 O.2       16 UNK        -0.5000 
     94 N          -6.2520  -15.8707  -53.7141 N.am      17 UNK        -0.5000 
     95 CA         -7.4805  -16.5102  -54.2068 C.3       17 UNK         0.1400 
     96 CB         -8.6876  -15.6386  -53.8288 C.3       17 UNK        -0.1800 
     97 C          -7.6636  -17.9511  -53.6761 C.2       17 UNK         0.5000 
     98 O          -8.3204  -18.7662  -54.3237 O.2       17 UNK        -0.5000 
     99 N          -7.0455  -18.2401  -52.5225 N.am      18 UNK        -0.5000 
    100 CA        -6.9856  -19.5507  -51.8804 C.3       18 UNK         0.1400 
    101 CB        -6.6684  -19.3438  -50.3893 C.3       18 UNK        -0.1800 
    102 C         -5.9617  -20.5170  -52.5124 C.2       18 UNK         0.5000 
    103 O         -5.9104  -21.6668  -52.0778 O.2       18 UNK        -0.5000 
    104 N         -5.1649  -20.0678  -53.5006 N.am      19 UNK        -0.5000 
    105 CA        -4.0396  -20.7980  -54.1096 C.3       19 UNK         0.1400 
    106 CB        -3.4166  -19.9668  -55.2392 C.3       19 UNK        -0.1800 
    107 C         -4.3432  -22.2224  -54.6107 C.2       19 UNK         0.5000 
    108 O         -3.4381  -23.0558  -54.6181 O.2       19 UNK        -0.5000 
    109 N         -5.6049  -22.4980  -54.9677 N.am      20 UNK        -0.5000 
    110 CA        -6.1044  -23.8269  -55.3282 C.3       20 UNK         0.1400 
    111 CB        -7.5765  -23.7105  -55.7506 C.3       20 UNK        -0.1800 
    112 C         -5.9457  -24.8766  -54.2070 C.2       20 UNK         0.5000 
    113 O         -5.7251  -26.0500  -54.5085 O.2       20 UNK        -0.5000 
    114 N         -6.0164  -24.4410  -52.9400 N.am      21 UNK        -0.5000 
    115 CA        -5.7986  -25.2843  -51.7618 C.3       21 UNK         0.1400 
    116 CB        -6.4314  -24.6101  -50.5348 C.3       21 UNK        -0.1800 
    117 C         -4.3088  -25.5931  -51.5081 C.2       21 UNK         0.5000 
    118 O         -4.0080  -26.5671  -50.8171 O.2       21 UNK        -0.5000 
    119 N         -3.4116  -24.7795  -52.0788 N.am      22 UNK        -0.5000 
    120 CA        -1.9519  -24.9639  -52.0453 C.3       22 UNK         0.1400 
    121 C         -1.4087  -25.7963  -53.2457 C.2       22 UNK         0.5000 
    122 N         -2.2380  -26.2723  -54.1679 N.am      22 UNK        -0.7600 
    123 O         -0.2079  -26.0383  -53.3329 O.2       22 UNK        -0.5000 
    124 C124       -1.2107  -23.6067  -51.9058 C.3       23 UNK        -0.0398 
    125 S125       -1.4780  -22.8429  -50.2709 S.3       23 UNK        -0.2404 
    126 C126       -2.7074  -21.5645  -50.6490 C.3       23 UNK        -0.0205 
    127 H127       -2.1307  -11.4638  -51.6063 H         1 UNK         0.0600 
    128 H128       -3.4462  -12.6289  -51.4207 H         1 UNK         0.0600 
    129 H129       -2.0650  -13.0145  -52.4508 H         1 UNK         0.0600 
    130 H130       -3.3686  -13.5361  -49.3815 H         1 UNK         0.3000 
    131 H131       -1.1574  -15.0288  -48.4543 H         1 UNK         0.0600 
    132 H132       -2.5722  -15.2565  -46.3283 H         1 UNK         0.0800 
    133 H133       -3.7452  -14.2095  -47.0697 H         1 UNK         0.0800 
    134 H134       -1.7523  -17.6390  -47.5388 H         1 UNK         0.0800 
    135 H135       -2.9647  -17.6252  -46.2722 H         1 UNK         0.0800 
    136 H136       -2.0848  -19.1292  -49.5694 H         1 UNK         0.1150 
    137 H137       -4.5181  -22.5883  -48.9192 H         1 UNK         0.1150 
    138 H138       -4.6485  -19.3333  -46.1358 H         1 UNK         0.1150 
    139 H139       -6.5134  -21.1497  -46.2967 H         1 UNK         0.0800 
    140 H140       -6.1421  -22.6250  -47.1520 H         1 UNK         0.0800 
    141 H141       -3.7861  -23.6951  -46.8122 H         1 UNK         0.0800 
    142 H142       -3.5729  -24.4681  -45.2767 H         1 UNK         0.0800 
    143 H143       -2.2975  -21.7577  -45.9381 H         1 UNK         0.0600 
    144 H144       -1.5554  -21.7845  -43.8592 H         1 UNK         0.3000 
    145 H145       -1.0766  -24.1260  -41.3457 H         1 UNK         0.0600 
    146 H146        1.3276  -23.4959  -41.2558 H         1 UNK         0.0600 
    147 H147        1.2753  -22.9713  -42.9396 H         1 UNK         0.0600 
    148 H148        1.0526  -24.6686  -42.5339 H         1 UNK         0.0600 
    149 H149       -0.1485  -21.4220  -41.6728 H         1 UNK         0.3000 
    150 H150       -3.2388  -19.8770  -40.7042 H         1 UNK         0.0600 
    151 H151       -2.0611  -20.5263  -38.5938 H         1 UNK         0.0600 
    152 H152       -1.7177  -18.8612  -39.0373 H         1 UNK         0.0600 
    153 H153       -0.5132  -20.1157  -39.3237 H         1 UNK         0.0600 
    154 H154       -0.7499  -18.7159  -41.3707 H         1 UNK         0.3000 
    155 H155       -1.3612  -18.3396  -44.8944 H         1 UNK         0.0600 
    156 H156       -2.4929  -16.4967  -43.6350 H         1 UNK         0.0600 
    157 H157       -0.9008  -15.9966  -44.1687 H         1 UNK         0.0600 
    158 H158       -1.1614  -16.4422  -42.4896 H         1 UNK         0.0600 
    159 H159        0.8931  -17.6710  -43.2848 H         1 UNK         0.3000 
    160 H160        2.6936  -20.7110  -43.7756 H         1 UNK         0.0600 
    161 H161        3.1641  -19.3412  -45.7957 H         1 UNK         0.0600 
    162 H162        4.3817  -19.0503  -44.5653 H         1 UNK         0.0600 
    163 H163        3.1084  -17.8663  -44.8553 H         1 UNK         0.0600 
    164 H164        3.2265  -18.2594  -42.3712 H         1 UNK         0.3000 
    165 H165        1.9022  -19.2902  -39.2167 H         1 UNK         0.0600 
    166 H166        4.2478  -18.8930  -38.5221 H         1 UNK         0.0600 
    167 H167        4.1259  -20.4219  -39.3775 H         1 UNK         0.0600 
    168 H168        4.7972  -19.0150  -40.1938 H         1 UNK         0.0600 
    169 H169        3.3834  -16.9889  -40.0331 H         1 UNK         0.3000 
    170 H170        0.6772  -15.0118  -41.1908 H         1 UNK         0.0600 
    171 H171        0.5504  -14.7795  -38.7050 H         1 UNK         0.0600 
    172 H172        2.3067  -14.8044  -38.5996 H         1 UNK         0.0600 
    173 H173        1.4854  -13.4757  -39.4193 H         1 UNK         0.0600 
    174 H174        3.4302  -14.4173  -40.7925 H         1 UNK         0.3000 
    175 H175        4.6692  -14.0204  -42.7969 H         1 UNK         0.0600 
    176 H176        5.2874  -17.0449  -42.8005 H         1 UNK         0.0600 
    177 H177        6.4882  -15.7592  -42.8770 H         1 UNK         0.0600 
    178 H178        5.5257  -15.9700  -41.4265 H         1 UNK         0.0600 
    179 H179        3.5628  -15.6296  -44.8794 H         1 UNK         0.3000 
    180 H180        5.2460  -13.8659  -47.4096 H         1 UNK         0.0600 
    181 H181        5.4220  -16.9027  -47.0074 H         1 UNK         0.0600 
    182 H182        6.7888  -15.8329  -47.2973 H         1 UNK         0.0600 
    183 H183        5.5723  -16.0510  -48.5450 H         1 UNK         0.0600 
    184 H184        3.2496  -15.8836  -47.5567 H         1 UNK         0.3000 
    185 H185        1.0331  -14.6979  -48.3333 H         1 UNK         0.0600 
    186 H186        1.3335  -16.6664  -46.8386 H         1 UNK         0.0600 
    187 H187        0.9779  -15.6980  -45.4197 H         1 UNK         0.0600 
    188 H188       -0.2925  -16.0885  -46.5641 H         1 UNK         0.0600 
    189 H189        0.6734  -12.7210  -46.3570 H         1 UNK         0.3000 
    190 H190        0.2393  -22.0198  -45.7786 H         1 UNK         0.3000 
    191 H191        1.0921  -23.5242  -48.0957 H         1 UNK         0.0600 
    192 H192        1.9970  -24.4567  -45.3208 H         1 UNK         0.0600 
    193 H193        2.7892  -24.9035  -46.8288 H         1 UNK         0.0600 
    194 H194        1.1374  -25.4105  -46.5252 H         1 UNK         0.0600 
    195 H195        3.0322  -20.4347  -47.8319 H         1 UNK         0.3000 
    196 H196        0.4976  -21.3079  -48.8359 H         1 UNK         0.0600 
    197 H197        3.0503  -21.6267  -50.5537 H         1 UNK         0.0600 
    198 H198        2.0631  -22.9739  -50.0107 H         1 UNK         0.0600 
    199 H199        1.4065  -21.8135  -51.1434 H         1 UNK         0.0600 
    200 H200        0.0509  -19.8724  -50.8823 H         1 UNK         0.3000 
    201 H201        1.6441  -17.5382  -51.2655 H         1 UNK         0.0600 
    202 H202        0.3604  -16.8662  -49.1546 H         1 UNK         0.0600 
    203 H203       -1.1453  -17.0910  -50.0395 H         1 UNK         0.0600 
    204 H204       -0.0027  -15.8585  -50.5459 H         1 UNK         0.0600 
    205 H205        0.8751  -16.3346  -53.0901 H         1 UNK         0.3000 
    206 H206       -0.7938  -17.8282  -54.9991 H         1 UNK         0.0600 
    207 H207        1.3990  -16.8964  -55.7177 H         1 UNK         0.0600 
    208 H208        0.0780  -16.1594  -56.6076 H         1 UNK         0.0600 
    209 H209        0.8601  -15.2684  -55.3062 H         1 UNK         0.0600 
    210 H210       -2.3680  -17.1896  -52.9737 H         1 UNK         0.3000 
    211 H211       -3.8106  -14.6415  -53.3840 H         1 UNK         0.0600 
    212 H212       -4.2868  -16.9573  -51.4135 H         1 UNK         0.0600 
    213 H213       -4.9540  -15.3295  -51.3024 H         1 UNK         0.0600 
    214 H214       -3.2348  -15.5933  -51.0846 H         1 UNK         0.0600 
    215 H215       -6.3709  -15.1070  -53.0641 H         1 UNK         0.3000 
    216 H216       -7.4227  -16.5649  -55.2959 H         1 UNK         0.0600 
    217 H217       -8.7868  -15.5345  -52.7476 H         1 UNK         0.0600 
    218 H218       -9.6154  -16.0735  -54.2031 H         1 UNK         0.0600 
    219 H219       -8.6029  -14.6397  -54.2571 H         1 UNK         0.0600 
    220 H220       -6.5431  -17.4977  -52.0605 H         1 UNK         0.3000 
    221 H221       -7.9670  -20.0226  -51.9590 H         1 UNK         0.0600 
    222 H222       -5.6842  -18.8964  -50.2427 H         1 UNK         0.0600 
    223 H223       -7.4054  -18.6977  -49.9124 H         1 UNK         0.0600 
    224 H224       -6.6768  -20.2922  -49.8503 H         1 UNK         0.0600 
    225 H225       -5.2851  -19.1144  -53.8203 H         1 UNK         0.3000 
    226 H226       -3.2782  -20.9025  -53.3387 H         1 UNK         0.0600 
    227 H227       -2.9615  -19.0586  -54.8469 H         1 UNK         0.0600 
    228 H228       -2.6257  -20.5187  -55.7492 H         1 UNK         0.0600 
    229 H229       -4.1573  -19.6837  -55.9877 H         1 UNK         0.0600 
    230 H230       -6.2861  -21.7549  -54.9150 H         1 UNK         0.3000 
    231 H231       -5.5271  -24.1750  -56.1872 H         1 UNK         0.0600 
    232 H232       -7.9755  -24.6811  -56.0487 H         1 UNK         0.0600 
    233 H233       -7.6915  -23.0382  -56.6010 H         1 UNK         0.0600 
    234 H234       -8.1992  -23.3347  -54.9377 H         1 UNK         0.0600 
    235 H235       -6.1456  -23.4481  -52.7613 H         1 UNK         0.3000 
    236 H236       -6.3068  -26.2380  -51.9191 H         1 UNK         0.0600 
    237 H237       -7.5004  -24.4531  -50.6790 H         1 UNK         0.0600 
    238 H238       -6.3096  -25.2250  -49.6422 H         1 UNK         0.0600 
    239 H239       -5.9772  -23.6417  -50.3302 H         1 UNK         0.0600 
    240 H240       -3.7428  -24.0434  -52.6876 H         1 UNK         0.3000 
    241 H241       -1.6985  -25.5553  -51.1634 H         1 UNK         0.0600 
    242 H242       -3.2280  -26.0860  -54.1179 H         1 UNK         0.3800 
    243 H243       -1.8685  -26.8143  -54.9329 H         1 UNK         0.3800 
    244 H244       -1.5018  -22.9167  -52.6988 H         1 UNK         0.0800 
    245 H245       -0.1332  -23.7444  -52.0088 H         1 UNK         0.0800 
    246 H246       -3.5274  -22.0175  -51.2036 H         1 UNK         0.0800 
    247 H247       -2.2582  -20.8104  -51.2947 H         1 UNK         0.0800 
@<TRIPOS>BOND
     1    1    2 1    
     2    1  127 1    
     3    1  128 1    
     4    1  129 1    
     5    2    3 2    
     6    2    4 am   BACKBONE|DICT|INTERRES
     7    4    5 1    
     8    4  130 1    
     9    5    6 1    
    10    5   65 1    
    11    5  131 1    
    12    6    7 1    
    13    6  132 1    
    14    6  133 1    
    15    7    8 1    
    16    8    9 1    
    17    8  134 1    
    18    8  135 1    
    19    9   10 ar   
    20    9   14 ar   
    21   10   11 ar   
    22   10  136 1    
    23   11   12 ar   
    24   11  126 1    
    25   12   13 ar   
    26   12  137 1    
    27   13   14 ar   
    28   13   15 1    
    29   14  138 1    
    30   15   16 1    
    31   15  139 1    
    32   15  140 1    
    33   16   17 1    
    34   17   18 1    
    35   17  141 1    
    36   17  142 1    
    37   18   19 1    
    38   18   67 1    
    39   18  143 1    
    40   19   20 am   BACKBONE|DICT|INTERRES
    41   19  144 1    
    42   20   21 2    
    43   20   22 1    
    44   22   23 1    
    45   22   24 1    
    46   22  145 1    
    47   23  146 1    
    48   23  147 1    
    49   23  148 1    
    50   24   25 am   BACKBONE|DICT|INTERRES
    51   24  149 1    
    52   25   26 2    
    53   25   27 1    
    54   27   28 1    
    55   27   29 1    
    56   27  150 1    
    57   28  151 1    
    58   28  152 1    
    59   28  153 1    
    60   29   30 am   BACKBONE|DICT|INTERRES
    61   29  154 1    
    62   30   31 2    
    63   30   32 1    
    64   32   33 1    
    65   32   34 1    
    66   32  155 1    
    67   33  156 1    
    68   33  157 1    
    69   33  158 1    
    70   34   35 am   BACKBONE|DICT|INTERRES
    71   34  159 1    
    72   35   36 2    
    73   35   37 1    
    74   37   38 1    
    75   37   39 1    
    76   37  160 1    
    77   38  161 1    
    78   38  162 1    
    79   38  163 1    
    80   39   40 am   BACKBONE|DICT|INTERRES
    81   39  164 1    
    82   40   41 2    
    83   40   42 1    
    84   42   43 1    
    85   42   44 1    
    86   42  165 1    
    87   43  166 1    
    88   43  167 1    
    89   43  168 1    
    90   44   45 am   BACKBONE|DICT|INTERRES
    91   44  169 1    
    92   45   46 2    
    93   45   47 1    
    94   47   48 1    
    95   47   49 1    
    96   47  170 1    
    97   48  171 1    
    98   48  172 1    
    99   48  173 1    
   100   49   50 am   BACKBONE|DICT|INTERRES
   101   49  174 1    
   102   50   51 2    
   103   50   52 1    
   104   52   53 1    
   105   52   54 1    
   106   52  175 1    
   107   53  176 1    
   108   53  177 1    
   109   53  178 1    
   110   54   55 am   BACKBONE|DICT|INTERRES
   111   54  179 1    
   112   55   56 2    
   113   55   57 1    
   114   57   58 1    
   115   57   59 1    
   116   57  180 1    
   117   58  181 1    
   118   58  182 1    
   119   58  183 1    
   120   59   60 am   BACKBONE|DICT|INTERRES
   121   59  184 1    
   122   60   61 2    
   123   60   62 1    
   124   62   63 1    
   125   62   64 1    
   126   62  185 1    
   127   63  186 1    
   128   63  187 1    
   129   63  188 1    
   130   64   65 am   BACKBONE|DICT|INTERRES
   131   64  189 1    
   132   65   66 2    
   133   67   68 2    
   134   67   69 am   BACKBONE|DICT|INTERRES
   135   69   70 1    
   136   69  190 1    
   137   70   71 1    
   138   70   72 1    
   139   70  191 1    
   140   71  192 1    
   141   71  193 1    
   142   71  194 1    
   143   72   73 2    
   144   72   74 am   BACKBONE|DICT|INTERRES
   145   74   75 1    
   146   74  195 1    
   147   75   76 1    
   148   75   77 1    
   149   75  196 1    
   150   76  197 1    
   151   76  198 1    
   152   76  199 1    
   153   77   78 2    
   154   77   79 am   BACKBONE|DICT|INTERRES
   155   79   80 1    
   156   79  200 1    
   157   80   81 1    
   158   80   82 1    
   159   80  201 1    
   160   81  202 1    
   161   81  203 1    
   162   81  204 1    
   163   82   83 2    
   164   82   84 am   BACKBONE|DICT|INTERRES
   165   84   85 1    
   166   84  205 1    
   167   85   86 1    
   168   85   87 1    
   169   85  206 1    
   170   86  207 1    
   171   86  208 1    
   172   86  209 1    
   173   87   88 2    
   174   87   89 am   BACKBONE|DICT|INTERRES
   175   89   90 1    
   176   89  210 1    
   177   90   91 1    
   178   90   92 1    
   179   90  211 1    
   180   91  212 1    
   181   91  213 1    
   182   91  214 1    
   183   92   93 2    
   184   92   94 am   BACKBONE|DICT|INTERRES
   185   94   95 1    
   186   94  215 1    
   187   95   96 1    
   188   95   97 1    
   189   95  216 1    
   190   96  217 1    
   191   96  218 1    
   192   96  219 1    
   193   97   98 2    
   194   97   99 am   BACKBONE|DICT|INTERRES
   195   99  100 1    
   196   99  220 1    
   197  100  101 1    
   198  100  102 1    
   199  100  221 1    
   200  101  222 1    
   201  101  223 1    
   202  101  224 1    
   203  102  103 2    
   204  102  104 am   BACKBONE|DICT|INTERRES
   205  104  105 1    
   206  104  225 1    
   207  105  106 1    
   208  105  107 1    
   209  105  226 1    
   210  106  227 1    
   211  106  228 1    
   212  106  229 1    
   213  107  108 2    
   214  107  109 am   BACKBONE|DICT|INTERRES
   215  109  110 1    
   216  109  230 1    
   217  110  111 1    
   218  110  112 1    
   219  110  231 1    
   220  111  232 1    
   221  111  233 1    
   222  111  234 1    
   223  112  113 2    
   224  112  114 am   BACKBONE|DICT|INTERRES
   225  114  115 1    
   226  114  235 1    
   227  115  116 1    
   228  115  117 1    
   229  115  236 1    
   230  116  237 1    
   231  116  238 1    
   232  116  239 1    
   233  117  118 2    
   234  117  119 am   BACKBONE|DICT|INTERRES
   235  119  120 1    
   236  119  240 1    
   237  120  121 1    
   238  120  124 1    
   239  120  241 1    
   240  121  122 am   BACKBONE|DICT|INTERRES
   241  121  123 2    
   242  122  242 1    
   243  122  243 1    
   244  124  125 1    
   245  124  244 1    
   246  124  245 1    
   247  125  126 1    
   248  126  246 1    
   249  126  247 1    
@<TRIPOS>SUBSTRUCTURE
     1 UNK         1 GROUP             0       ****    0 ROOT    
