@<TRIPOS>MOLECULE
3R540
247   249    1
SMALL
USER_CHARGES


@<TRIPOS>ATOM
      1 CA         -1.6714  -12.3118  -45.4170 C.3       0 UNK        -0.1800 
      2 C          -0.6210  -12.1334  -46.5037 C.2       0 UNK         0.5000 
      3 O           0.1840  -11.2061  -46.4272 O.2       0 UNK        -0.5000 
      4 N          -0.6118  -13.0250  -47.5057 N.am      1 UNK        -0.5000 
      5 CA          0.3076  -13.0130  -48.6555 C.3       1 UNK         0.1400 
      6 C6         -0.0724  -14.1141  -49.6801 C.3       23 UNK        -0.0398 
      7 S7          0.5666  -13.8001  -51.3623 S.3       23 UNK        -0.2404 
      8 C8          2.0466  -14.8622  -51.4163 C.3       23 UNK        -0.0205 
      9 C9          1.7329  -16.2836  -51.8610 C.ar      23 UNK        -0.0193 
     10 C10         1.8492  -16.6373  -53.2088 C.ar      23 UNK        -0.1150 
     11 C11         1.6348  -17.9565  -53.6213 C.ar      23 UNK        -0.0193 
     12 C12         1.2902  -18.9237  -52.6731 C.ar      23 UNK        -0.1150 
     13 C13         1.1313  -18.5744  -51.3293 C.ar      23 UNK        -0.0193 
     14 C14         1.3675  -17.2571  -50.9270 C.ar      23 UNK        -0.1150 
     15 C15         0.6924  -19.6112  -50.3097 C.3       23 UNK        -0.0205 
     16 S16         2.0913  -20.1747  -49.2903 S.3       23 UNK        -0.2404 
     17 C17         1.3953  -20.0413  -47.6084 C.3       23 UNK        -0.0398 
     18 CA          0.7520  -21.3598  -47.1159 C.3       11 UNK         0.1400 
     19 N           0.6792  -21.4218  -45.6557 N.am      11 UNK        -0.5000 
     20 C           0.3430  -22.5119  -44.9523 C.2       10 UNK         0.5000 
     21 O           0.1025  -23.6076  -45.4604 O.2       10 UNK        -0.5000 
     22 CA          0.2020  -22.3325  -43.4296 C.3       10 UNK         0.1400 
     23 CB          1.5761  -22.3503  -42.7438 C.3       10 UNK        -0.1800 
     24 N          -0.5134  -21.1049  -43.0747 N.am      10 UNK        -0.5000 
     25 C          -1.7937  -20.8622  -43.3920 C.2       9 UNK         0.5000 
     26 O          -2.5168  -21.6694  -43.9755 O.2       9 UNK        -0.5000 
     27 CA         -2.3498  -19.4710  -43.0420 C.3       9 UNK         0.1400 
     28 CB         -2.7342  -19.3959  -41.5570 C.3       9 UNK        -0.1800 
     29 N          -1.4188  -18.3905  -43.3689 N.am      9 UNK        -0.5000 
     30 C          -0.9968  -18.0949  -44.6067 C.2       8 UNK         0.5000 
     31 O          -1.3781  -18.6788  -45.6192 O.2       8 UNK        -0.5000 
     32 CA          0.0802  -17.0052  -44.7352 C.3       8 UNK         0.1400 
     33 CB         -0.5347  -15.6014  -44.6488 C.3       8 UNK        -0.1800 
     34 N           1.1329  -17.1475  -43.7324 N.am      8 UNK        -0.5000 
     35 C           1.9606  -18.1986  -43.6468 C.2       7 UNK         0.5000 
     36 O           1.9410  -19.1517  -44.4244 O.2       7 UNK        -0.5000 
     37 CA          2.9428  -18.2063  -42.4659 C.3       7 UNK         0.1400 
     38 CB          4.1704  -17.3359  -42.7710 C.3       7 UNK        -0.1800 
     39 N           2.3047  -17.7509  -41.2316 N.am      7 UNK        -0.5000 
     40 C           1.3569  -18.4375  -40.5774 C.2       6 UNK         0.5000 
     41 O           0.9486  -19.5458  -40.9258 O.2       6 UNK        -0.5000 
     42 CA          0.7317  -17.7442  -39.3540 C.3       6 UNK         0.1400 
     43 CB          1.6261  -17.9123  -38.1166 C.3       6 UNK        -0.1800 
     44 N           0.4811  -16.3201  -39.5852 N.am      6 UNK        -0.5000 
     45 C          -0.4146  -15.8463  -40.4626 C.2       5 UNK         0.5000 
     46 O          -1.1339  -16.5612  -41.1584 O.2       5 UNK        -0.5000 
     47 CA         -0.4929  -14.3178  -40.6194 C.3       5 UNK         0.1400 
     48 CB         -1.4292  -13.7130  -39.5630 C.3       5 UNK        -0.1800 
     49 N           0.8101  -13.6509  -40.5549 N.am      5 UNK        -0.5000 
     50 C           1.8097  -13.8501  -41.4229 C.2       4 UNK         0.5000 
     51 O           1.7780  -14.6877  -42.3279 O.2       4 UNK        -0.5000 
     52 CA          3.0568  -12.9681  -41.2537 C.3       4 UNK         0.1400 
     53 CB          4.2706  -13.8041  -40.8218 C.3       4 UNK        -0.1800 
     54 N           3.3544  -12.2982  -42.5153 N.am      4 UNK        -0.5000 
     55 C           2.6776  -11.2511  -43.0000 C.2       3 UNK         0.5000 
     56 O           1.8194  -10.6415  -42.3604 O.2       3 UNK        -0.5000 
     57 CA          2.9794  -10.8303  -44.4502 C.3       3 UNK         0.1400 
     58 CB          4.2964  -10.0372  -44.5554 C.3       3 UNK        -0.1800 
     59 N           2.9225  -11.9458  -45.4045 N.am      3 UNK        -0.5000 
     60 C           3.7606  -12.9845  -45.5485 C.2       2 UNK         0.5000 
     61 O           4.7814  -13.1285  -44.8741 O.2       2 UNK        -0.5000 
     62 CA          3.3870  -14.0733  -46.5791 C.3       2 UNK         0.1400 
     63 CB          3.4280  -15.4669  -45.9334 C.3       2 UNK        -0.1800 
     64 N           2.0604  -13.8808  -47.1695 N.am      2 UNK        -0.5000 
     65 C           1.7940  -13.1167  -48.2372 C.2       1 UNK         0.5000 
     66 O           2.6534  -12.4889  -48.8560 O.2       1 UNK        -0.5000 
     67 C          -0.6255  -21.6091  -47.7647 C.2       11 UNK         0.5000 
     68 O          -0.7140  -22.4028  -48.6993 O.2       11 UNK        -0.5000 
     69 N          -1.6806  -20.9704  -47.2371 N.am      12 UNK        -0.5000 
     70 CA         -3.0649  -21.1579  -47.6729 C.3       12 UNK         0.1400 
     71 CB         -3.9872  -20.1639  -46.9535 C.3       12 UNK        -0.1800 
     72 C          -3.5601  -22.6002  -47.4763 C.2       12 UNK         0.5000 
     73 O          -4.2041  -23.1386  -48.3758 O.2       12 UNK        -0.5000 
     74 N          -3.2225  -23.2137  -46.3334 N.am      13 UNK        -0.5000 
     75 CA         -3.5120  -24.6153  -46.0279 C.3       13 UNK         0.1400 
     76 CB         -3.1471  -24.9184  -44.5673 C.3       13 UNK        -0.1800 
     77 C          -2.8044  -25.5869  -46.9900 C.2       13 UNK         0.5000 
     78 O          -3.4481  -26.5032  -47.5031 O.2       13 UNK        -0.5000 
     79 N          -1.5151  -25.3378  -47.2659 N.am      14 UNK        -0.5000 
     80 CA         -0.7165  -26.0751  -48.2514 C.3       14 UNK         0.1400 
     81 CB          0.7505  -25.6292  -48.1593 C.3       14 UNK        -0.1800 
     82 C          -1.2487  -25.9225  -49.6914 C.2       14 UNK         0.5000 
     83 O          -1.2056  -26.8792  -50.4646 O.2       14 UNK        -0.5000 
     84 N          -1.7937  -24.7400  -49.9999 N.am      15 UNK        -0.5000 
     85 CA         -2.4858  -24.3957  -51.2415 C.3       15 UNK         0.1400 
     86 CB         -2.3807  -22.8754  -51.4490 C.3       15 UNK        -0.1800 
     87 C          -3.9550  -24.8764  -51.2914 C.2       15 UNK         0.5000 
     88 O          -4.7006  -24.4172  -52.1559 O.2       15 UNK        -0.5000 
     89 N          -4.3582  -25.7757  -50.3795 N.am      16 UNK        -0.5000 
     90 CA         -5.6740  -26.4191  -50.2865 C.3       16 UNK         0.1400 
     91 CB         -5.9181  -27.3369  -51.5033 C.3       16 UNK        -0.1800 
     92 C          -6.8146  -25.4087  -50.0505 C.2       16 UNK         0.5000 
     93 O          -7.8088  -25.4082  -50.7782 O.2       16 UNK        -0.5000 
     94 N          -6.6222  -24.5555  -49.0353 N.am      17 UNK        -0.5000 
     95 CA         -7.4592  -23.4111  -48.6595 C.3       17 UNK         0.1400 
     96 CB         -8.8918  -23.8437  -48.2810 C.3       17 UNK        -0.1800 
     97 C          -7.4047  -22.2961  -49.7232 C.2       17 UNK         0.5000 
     98 O          -8.4325  -21.7081  -50.0643 O.2       17 UNK        -0.5000 
     99 N          -6.1833  -22.0345  -50.2131 N.am      18 UNK        -0.5000 
    100 CA        -5.8155  -21.0361  -51.2207 C.3       18 UNK         0.1400 
    101 CB        -5.9522  -19.6147  -50.6375 C.3       18 UNK        -0.1800 
    102 C         -6.5613  -21.2208  -52.5593 C.2       18 UNK         0.5000 
    103 O         -7.0688  -20.2501  -53.1273 O.2       18 UNK        -0.5000 
    104 N         -6.6145  -22.4686  -53.0458 N.am      19 UNK        -0.5000 
    105 CA        -7.2137  -22.8449  -54.3254 C.3       19 UNK         0.1400 
    106 CB        -7.2706  -24.3771  -54.4292 C.3       19 UNK        -0.1800 
    107 C         -6.4090  -22.2322  -55.4839 C.2       19 UNK         0.5000 
    108 O         -5.2393  -22.5770  -55.6569 O.2       19 UNK        -0.5000 
    109 N         -7.0224  -21.2790  -56.2011 N.am      20 UNK        -0.5000 
    110 CA        -6.3931  -20.4120  -57.2088 C.3       20 UNK         0.1400 
    111 CB        -6.0143  -21.2199  -58.4678 C.3       20 UNK        -0.1800 
    112 C         -5.2083  -19.6005  -56.6327 C.2       20 UNK         0.5000 
    113 O         -4.2068  -19.3874  -57.3191 O.2       20 UNK        -0.5000 
    114 N         -5.3407  -19.2020  -55.3582 N.am      21 UNK        -0.5000 
    115 CA        -4.3640  -18.5490  -54.4832 C.3       21 UNK         0.1400 
    116 CB        -3.8779  -17.2021  -55.0541 C.3       21 UNK        -0.1800 
    117 C         -3.1860  -19.4587  -54.0878 C.2       21 UNK         0.5000 
    118 O         -2.9567  -19.6572  -52.8948 O.2       21 UNK        -0.5000 
    119 N         -2.4608  -19.9758  -55.0841 N.am      22 UNK        -0.5000 
    120 CA        -1.1873  -20.6914  -54.9130 C.3       22 UNK         0.1400 
    121 C         -1.2992  -22.2423  -54.8889 C.2       22 UNK         0.5000 
    122 N         -2.4559  -22.8503  -55.1110 N.am      22 UNK        -0.7600 
    123 O         -0.3040  -22.9198  -54.6479 O.2       22 UNK        -0.5000 
    124 C124       -0.1348  -20.2378  -55.9586 C.3       23 UNK        -0.0398 
    125 S125        0.1962  -18.4384  -55.9473 S.3       23 UNK        -0.2404 
    126 C126        1.7999  -18.3339  -55.0862 C.3       23 UNK        -0.0205 
    127 H127       -1.1896  -12.5134  -44.4600 H         1 UNK         0.0600 
    128 H128       -2.3505  -13.1352  -45.6386 H         1 UNK         0.0600 
    129 H129       -2.2636  -11.4024  -45.3160 H         1 UNK         0.0600 
    130 H130       -1.3108  -13.7539  -47.5131 H         1 UNK         0.3000 
    131 H131        0.1787  -12.0413  -49.1373 H         1 UNK         0.0600 
    132 H132       -1.1578  -14.1596  -49.7794 H         1 UNK         0.0800 
    133 H133        0.2265  -15.1007  -49.3282 H         1 UNK         0.0800 
    134 H134        2.5429  -14.8759  -50.4455 H         1 UNK         0.0800 
    135 H135        2.7636  -14.4142  -52.1060 H         1 UNK         0.0800 
    136 H136        2.1267  -15.8868  -53.9358 H         1 UNK         0.1150 
    137 H137        1.1431  -19.9481  -52.9810 H         1 UNK         0.1150 
    138 H138        1.2795  -17.0007  -49.8817 H         1 UNK         0.1150 
    139 H139       -0.0968  -19.1833  -49.6904 H         1 UNK         0.0800 
    140 H140        0.2464  -20.4754  -50.8053 H         1 UNK         0.0800 
    141 H141        0.7066  -19.1982  -47.5324 H         1 UNK         0.0800 
    142 H142        2.2363  -19.7863  -46.9629 H         1 UNK         0.0800 
    143 H143        1.4033  -22.1824  -47.4200 H         1 UNK         0.0600 
    144 H144        0.9108  -20.5685  -45.1535 H         1 UNK         0.3000 
    145 H145       -0.3765  -23.1770  -43.0493 H         1 UNK         0.0600 
    146 H146        1.4749  -22.3005  -41.6595 H         1 UNK         0.0600 
    147 H147        2.1177  -23.2673  -42.9787 H         1 UNK         0.0600 
    148 H148        2.1968  -21.5116  -43.0593 H         1 UNK         0.0600 
    149 H149        0.0075  -20.4051  -42.5569 H         1 UNK         0.3000 
    150 H150       -3.2548  -19.3182  -43.6332 H         1 UNK         0.0600 
    151 H151       -3.4305  -20.1926  -41.2921 H         1 UNK         0.0600 
    152 H152       -3.2208  -18.4486  -41.3245 H         1 UNK         0.0600 
    153 H153       -1.8622  -19.4910  -40.9094 H         1 UNK         0.0600 
    154 H154       -1.0931  -17.8236  -42.5905 H         1 UNK         0.3000 
    155 H155        0.5443  -17.1110  -45.7180 H         1 UNK         0.0600 
    156 H156       -1.0349  -15.4388  -43.6943 H         1 UNK         0.0600 
    157 H157       -1.2749  -15.4544  -45.4356 H         1 UNK         0.0600 
    158 H158        0.2251  -14.8282  -44.7603 H         1 UNK         0.0600 
    159 H159        1.2479  -16.3793  -43.0769 H         1 UNK         0.3000 
    160 H160        3.2821  -19.2334  -42.3162 H         1 UNK         0.0600 
    161 H161        3.8930  -16.2998  -42.9627 H         1 UNK         0.0600 
    162 H162        4.6940  -17.7009  -43.6554 H         1 UNK         0.0600 
    163 H163        4.8804  -17.3476  -41.9440 H         1 UNK         0.0600 
    164 H164        2.5446  -16.8258  -40.9087 H         1 UNK         0.3000 
    165 H165       -0.2258  -18.2289  -39.1510 H         1 UNK         0.0600 
    166 H166        1.1528  -17.4929  -37.2287 H         1 UNK         0.0600 
    167 H167        1.8169  -18.9671  -37.9143 H         1 UNK         0.0600 
    168 H168        2.5921  -17.4226  -38.2456 H         1 UNK         0.0600 
    169 H169        1.0339  -15.6624  -39.0557 H         1 UNK         0.3000 
    170 H170       -0.9182  -14.1120  -41.6038 H         1 UNK         0.0600 
    171 H171       -2.4148  -14.1792  -39.6022 H         1 UNK         0.0600 
    172 H172       -1.0408  -13.8504  -38.5531 H         1 UNK         0.0600 
    173 H173       -1.5707  -12.6445  -39.7266 H         1 UNK         0.0600 
    174 H174        0.9153  -12.9422  -39.8433 H         1 UNK         0.3000 
    175 H175        2.8685  -12.2153  -40.4852 H         1 UNK         0.0600 
    176 H176        4.5553  -14.5288  -41.5842 H         1 UNK         0.0600 
    177 H177        5.1352  -13.1680  -40.6314 H         1 UNK         0.0600 
    178 H178        4.0626  -14.3539  -39.9031 H         1 UNK         0.0600 
    179 H179        4.0076  -12.7603  -43.1409 H         1 UNK         0.3000 
    180 H180        2.1764  -10.1554  -44.7506 H         1 UNK         0.0600 
    181 H181        5.1572  -10.6190  -44.2256 H         1 UNK         0.0600 
    182 H182        4.2568   -9.1412  -43.9349 H         1 UNK         0.0600 
    183 H183        4.4811   -9.7149  -45.5802 H         1 UNK         0.0600 
    184 H184        2.0943  -11.9336  -45.9891 H         1 UNK         0.3000 
    185 H185        4.1396  -14.0452  -47.3698 H         1 UNK         0.0600 
    186 H186        4.4359  -15.7169  -45.6002 H         1 UNK         0.0600 
    187 H187        2.7773  -15.5093  -45.0617 H         1 UNK         0.0600 
    188 H188        3.1153  -16.2444  -46.6308 H         1 UNK         0.0600 
    189 H189        1.2902  -14.3339  -46.7018 H         1 UNK         0.3000 
    190 H190       -1.5295  -20.2892  -46.4960 H         1 UNK         0.3000 
    191 H191       -3.1062  -20.9354  -48.7405 H         1 UNK         0.0600 
    192 H192       -3.9602  -20.2981  -45.8722 H         1 UNK         0.0600 
    193 H193       -5.0223  -20.2881  -47.2744 H         1 UNK         0.0600 
    194 H194       -3.7011  -19.1345  -47.1700 H         1 UNK         0.0600 
    195 H195       -2.7405  -22.6806  -45.6147 H         1 UNK         0.3000 
    196 H196       -4.5880  -24.7624  -46.1424 H         1 UNK         0.0600 
    197 H197       -3.3750  -25.9545  -44.3146 H         1 UNK         0.0600 
    198 H198       -3.7104  -24.2848  -43.8821 H         1 UNK         0.0600 
    199 H199       -2.0867  -24.7582  -44.3728 H         1 UNK         0.0600 
    200 H200       -1.0474  -24.5808  -46.7757 H         1 UNK         0.3000 
    201 H201       -0.7661  -27.1346  -47.9922 H         1 UNK         0.0600 
    202 H202        1.1504  -25.7941  -47.1587 H         1 UNK         0.0600 
    203 H203        0.8663  -24.5711  -48.3944 H         1 UNK         0.0600 
    204 H204        1.3737  -26.1905  -48.8564 H         1 UNK         0.0600 
    205 H205       -1.7127  -23.9899  -49.3200 H         1 UNK         0.3000 
    206 H206       -1.9714  -24.8801  -52.0736 H         1 UNK         0.0600 
    207 H207       -1.3405  -22.5615  -51.5366 H         1 UNK         0.0600 
    208 H208       -2.8896  -22.5564  -52.3582 H         1 UNK         0.0600 
    209 H209       -2.8233  -22.3276  -50.6195 H         1 UNK         0.0600 
    210 H210       -3.6960  -26.0497  -49.6646 H         1 UNK         0.3000 
    211 H211       -5.6407  -27.0545  -49.4002 H         1 UNK         0.0600 
    212 H212       -6.0028  -26.7699  -52.4310 H         1 UNK         0.0600 
    213 H213       -6.8411  -27.9051  -51.3835 H         1 UNK         0.0600 
    214 H214       -5.1078  -28.0560  -51.6228 H         1 UNK         0.0600 
    215 H215       -5.7203  -24.5829  -48.5738 H         1 UNK         0.3000 
    216 H216       -7.0040  -22.9903  -47.7617 H         1 UNK         0.0600 
    217 H217       -9.4467  -23.0089  -47.8515 H         1 UNK         0.0600 
    218 H218       -8.8798  -24.6414  -47.5384 H         1 UNK         0.0600 
    219 H219       -9.4562  -24.1957  -49.1445 H         1 UNK         0.0600 
    220 H220       -5.4157  -22.5792  -49.8327 H         1 UNK         0.3000 
    221 H221       -4.7610  -21.1955  -51.4419 H         1 UNK         0.0600 
    222 H222       -6.9912  -19.3626  -50.4235 H         1 UNK         0.0600 
    223 H223       -5.3840  -19.5123  -49.7134 H         1 UNK         0.0600 
    224 H224       -5.5699  -18.8674  -51.3325 H         1 UNK         0.0600 
    225 H225       -6.0929  -23.2010  -52.5695 H         1 UNK         0.3000 
    226 H226       -8.2362  -22.4629  -54.3502 H         1 UNK         0.0600 
    227 H227       -7.8503  -24.8061  -53.6116 H         1 UNK         0.0600 
    228 H228       -7.7407  -24.6875  -55.3629 H         1 UNK         0.0600 
    229 H229       -6.2747  -24.8211  -54.3987 H         1 UNK         0.0600 
    230 H230       -7.9768  -21.0448  -55.9643 H         1 UNK         0.3000 
    231 H231       -7.1473  -19.6801  -57.5012 H         1 UNK         0.0600 
    232 H232       -6.8692  -21.7772  -58.8504 H         1 UNK         0.0600 
    233 H233       -5.2121  -21.9310  -58.2686 H         1 UNK         0.0600 
    234 H234       -5.6740  -20.5605  -59.2670 H         1 UNK         0.0600 
    235 H235       -6.1849  -19.4912  -54.8751 H         1 UNK         0.3000 
    236 H236       -4.9074  -18.3250  -53.5648 H         1 UNK         0.0600 
    237 H237       -3.2425  -16.6859  -54.3334 H         1 UNK         0.0600 
    238 H238       -3.2931  -17.3255  -55.9658 H         1 UNK         0.0600 
    239 H239       -4.7167  -16.5436  -55.2792 H         1 UNK         0.0600 
    240 H240       -2.7618  -19.7916  -56.0358 H         1 UNK         0.3000 
    241 H241       -0.7916  -20.4339  -53.9316 H         1 UNK         0.0600 
    242 H242       -2.4853  -23.8557  -55.0853 H         1 UNK         0.3800 
    243 H243       -3.3175  -22.3501  -55.3023 H         1 UNK         0.3800 
    244 H244        0.8046  -20.7740  -55.8176 H         1 UNK         0.0800 
    245 H245       -0.4751  -20.5025  -56.9611 H         1 UNK         0.0800 
    246 H246        2.4098  -17.5851  -55.5940 H         1 UNK         0.0800 
    247 H247        2.3544  -19.2690  -55.1705 H         1 UNK         0.0800 
@<TRIPOS>BOND
     1    1    2 1    
     2    1  127 1    
     3    1  128 1    
     4    1  129 1    
     5    2    3 2    
     6    2    4 am   BACKBONE|DICT|INTERRES
     7    4    5 1    
     8    4  130 1    
     9    5    6 1    
    10    5   65 1    
    11    5  131 1    
    12    6    7 1    
    13    6  132 1    
    14    6  133 1    
    15    7    8 1    
    16    8    9 1    
    17    8  134 1    
    18    8  135 1    
    19    9   10 ar   
    20    9   14 ar   
    21   10   11 ar   
    22   10  136 1    
    23   11   12 ar   
    24   11  126 1    
    25   12   13 ar   
    26   12  137 1    
    27   13   14 ar   
    28   13   15 1    
    29   14  138 1    
    30   15   16 1    
    31   15  139 1    
    32   15  140 1    
    33   16   17 1    
    34   17   18 1    
    35   17  141 1    
    36   17  142 1    
    37   18   19 1    
    38   18   67 1    
    39   18  143 1    
    40   19   20 am   BACKBONE|DICT|INTERRES
    41   19  144 1    
    42   20   21 2    
    43   20   22 1    
    44   22   23 1    
    45   22   24 1    
    46   22  145 1    
    47   23  146 1    
    48   23  147 1    
    49   23  148 1    
    50   24   25 am   BACKBONE|DICT|INTERRES
    51   24  149 1    
    52   25   26 2    
    53   25   27 1    
    54   27   28 1    
    55   27   29 1    
    56   27  150 1    
    57   28  151 1    
    58   28  152 1    
    59   28  153 1    
    60   29   30 am   BACKBONE|DICT|INTERRES
    61   29  154 1    
    62   30   31 2    
    63   30   32 1    
    64   32   33 1    
    65   32   34 1    
    66   32  155 1    
    67   33  156 1    
    68   33  157 1    
    69   33  158 1    
    70   34   35 am   BACKBONE|DICT|INTERRES
    71   34  159 1    
    72   35   36 2    
    73   35   37 1    
    74   37   38 1    
    75   37   39 1    
    76   37  160 1    
    77   38  161 1    
    78   38  162 1    
    79   38  163 1    
    80   39   40 am   BACKBONE|DICT|INTERRES
    81   39  164 1    
    82   40   41 2    
    83   40   42 1    
    84   42   43 1    
    85   42   44 1    
    86   42  165 1    
    87   43  166 1    
    88   43  167 1    
    89   43  168 1    
    90   44   45 am   BACKBONE|DICT|INTERRES
    91   44  169 1    
    92   45   46 2    
    93   45   47 1    
    94   47   48 1    
    95   47   49 1    
    96   47  170 1    
    97   48  171 1    
    98   48  172 1    
    99   48  173 1    
   100   49   50 am   BACKBONE|DICT|INTERRES
   101   49  174 1    
   102   50   51 2    
   103   50   52 1    
   104   52   53 1    
   105   52   54 1    
   106   52  175 1    
   107   53  176 1    
   108   53  177 1    
   109   53  178 1    
   110   54   55 am   BACKBONE|DICT|INTERRES
   111   54  179 1    
   112   55   56 2    
   113   55   57 1    
   114   57   58 1    
   115   57   59 1    
   116   57  180 1    
   117   58  181 1    
   118   58  182 1    
   119   58  183 1    
   120   59   60 am   BACKBONE|DICT|INTERRES
   121   59  184 1    
   122   60   61 2    
   123   60   62 1    
   124   62   63 1    
   125   62   64 1    
   126   62  185 1    
   127   63  186 1    
   128   63  187 1    
   129   63  188 1    
   130   64   65 am   BACKBONE|DICT|INTERRES
   131   64  189 1    
   132   65   66 2    
   133   67   68 2    
   134   67   69 am   BACKBONE|DICT|INTERRES
   135   69   70 1    
   136   69  190 1    
   137   70   71 1    
   138   70   72 1    
   139   70  191 1    
   140   71  192 1    
   141   71  193 1    
   142   71  194 1    
   143   72   73 2    
   144   72   74 am   BACKBONE|DICT|INTERRES
   145   74   75 1    
   146   74  195 1    
   147   75   76 1    
   148   75   77 1    
   149   75  196 1    
   150   76  197 1    
   151   76  198 1    
   152   76  199 1    
   153   77   78 2    
   154   77   79 am   BACKBONE|DICT|INTERRES
   155   79   80 1    
   156   79  200 1    
   157   80   81 1    
   158   80   82 1    
   159   80  201 1    
   160   81  202 1    
   161   81  203 1    
   162   81  204 1    
   163   82   83 2    
   164   82   84 am   BACKBONE|DICT|INTERRES
   165   84   85 1    
   166   84  205 1    
   167   85   86 1    
   168   85   87 1    
   169   85  206 1    
   170   86  207 1    
   171   86  208 1    
   172   86  209 1    
   173   87   88 2    
   174   87   89 am   BACKBONE|DICT|INTERRES
   175   89   90 1    
   176   89  210 1    
   177   90   91 1    
   178   90   92 1    
   179   90  211 1    
   180   91  212 1    
   181   91  213 1    
   182   91  214 1    
   183   92   93 2    
   184   92   94 am   BACKBONE|DICT|INTERRES
   185   94   95 1    
   186   94  215 1    
   187   95   96 1    
   188   95   97 1    
   189   95  216 1    
   190   96  217 1    
   191   96  218 1    
   192   96  219 1    
   193   97   98 2    
   194   97   99 am   BACKBONE|DICT|INTERRES
   195   99  100 1    
   196   99  220 1    
   197  100  101 1    
   198  100  102 1    
   199  100  221 1    
   200  101  222 1    
   201  101  223 1    
   202  101  224 1    
   203  102  103 2    
   204  102  104 am   BACKBONE|DICT|INTERRES
   205  104  105 1    
   206  104  225 1    
   207  105  106 1    
   208  105  107 1    
   209  105  226 1    
   210  106  227 1    
   211  106  228 1    
   212  106  229 1    
   213  107  108 2    
   214  107  109 am   BACKBONE|DICT|INTERRES
   215  109  110 1    
   216  109  230 1    
   217  110  111 1    
   218  110  112 1    
   219  110  231 1    
   220  111  232 1    
   221  111  233 1    
   222  111  234 1    
   223  112  113 2    
   224  112  114 am   BACKBONE|DICT|INTERRES
   225  114  115 1    
   226  114  235 1    
   227  115  116 1    
   228  115  117 1    
   229  115  236 1    
   230  116  237 1    
   231  116  238 1    
   232  116  239 1    
   233  117  118 2    
   234  117  119 am   BACKBONE|DICT|INTERRES
   235  119  120 1    
   236  119  240 1    
   237  120  121 1    
   238  120  124 1    
   239  120  241 1    
   240  121  122 am   BACKBONE|DICT|INTERRES
   241  121  123 2    
   242  122  242 1    
   243  122  243 1    
   244  124  125 1    
   245  124  244 1    
   246  124  245 1    
   247  125  126 1    
   248  126  246 1    
   249  126  247 1    
@<TRIPOS>SUBSTRUCTURE
     1 UNK         1 GROUP             0       ****    0 ROOT    
