@<TRIPOS>MOLECULE
3R540
247   249    1
SMALL
USER_CHARGES


@<TRIPOS>ATOM
      1 CA          4.2800  -12.7327  -49.6242 C.3       0 UNK        -0.1800 
      2 C           4.4869  -13.6238  -48.4075 C.2       0 UNK         0.5000 
      3 O           5.3940  -13.3769  -47.6128 O.2       0 UNK        -0.5000 
      4 N           3.6507  -14.6587  -48.2647 N.am      1 UNK        -0.5000 
      5 CA          3.6464  -15.6098  -47.1464 C.3       1 UNK         0.1400 
      6 C6          2.7430  -16.8342  -47.4388 C.3       23 UNK        -0.0398 
      7 S7          1.0612  -16.4031  -48.0163 S.3       23 UNK        -0.2404 
      8 C8          0.4035  -18.0345  -48.4858 C.3       23 UNK        -0.0205 
      9 C9          1.1676  -18.6830  -49.6311 C.ar      23 UNK        -0.0193 
     10 C10         1.2620  -18.0453  -50.8683 C.ar      23 UNK        -0.1150 
     11 C11         1.9265  -18.6502  -51.9374 C.ar      23 UNK        -0.0193 
     12 C12         2.4988  -19.9153  -51.7641 C.ar      23 UNK        -0.1150 
     13 C13         2.4072  -20.5688  -50.5305 C.ar      23 UNK        -0.0193 
     14 C14         1.7478  -19.9414  -49.4698 C.ar      23 UNK        -0.1150 
     15 C15         3.0227  -21.9479  -50.3304 C.3       23 UNK        -0.0205 
     16 S16         1.9358  -23.3084  -50.8818 S.3       23 UNK        -0.2404 
     17 C17         0.4452  -23.1102  -49.8435 C.3       23 UNK        -0.0398 
     18 CA          0.3884  -24.0385  -48.6059 C.3       11 UNK         0.1400 
     19 N           1.5920  -23.9827  -47.7675 N.am      11 UNK        -0.5000 
     20 C           1.8468  -24.8434  -46.7720 C.2       10 UNK         0.5000 
     21 O           1.1011  -25.7771  -46.4776 O.2       10 UNK        -0.5000 
     22 CA          3.1121  -24.5979  -45.9293 C.3       10 UNK         0.1400 
     23 CB          4.3073  -25.3456  -46.5382 C.3       10 UNK        -0.1800 
     24 N           3.4727  -23.1878  -45.7415 N.am      10 UNK        -0.5000 
     25 C           2.6848  -22.2321  -45.2282 C.2       9 UNK         0.5000 
     26 O           1.4931  -22.4006  -44.9593 O.2       9 UNK        -0.5000 
     27 CA          3.3519  -20.8591  -45.0178 C.3       9 UNK         0.1400 
     28 CB          3.6127  -20.1517  -46.3533 C.3       9 UNK        -0.1800 
     29 N           2.5677  -19.9630  -44.1685 N.am      9 UNK        -0.5000 
     30 C           2.4988  -20.0374  -42.8370 C.2       8 UNK         0.5000 
     31 O           3.0665  -20.9066  -42.1735 O.2       8 UNK        -0.5000 
     32 CA          1.6955  -18.9421  -42.1087 C.3       8 UNK         0.1400 
     33 CB          2.5102  -17.6375  -42.0111 C.3       8 UNK        -0.1800 
     34 N           0.3438  -18.6838  -42.6244 N.am      8 UNK        -0.5000 
     35 C          -0.0357  -18.1359  -43.7872 C.2       7 UNK         0.5000 
     36 O           0.7306  -17.8511  -44.7101 O.2       7 UNK        -0.5000 
     37 CA         -1.5391  -17.8443  -43.9159 C.3       7 UNK         0.1400 
     38 CB         -1.9865  -16.7394  -42.9386 C.3       7 UNK        -0.1800 
     39 N          -1.8740  -17.4531  -45.2842 N.am      7 UNK        -0.5000 
     40 C          -3.0772  -17.6293  -45.8455 C.2       6 UNK         0.5000 
     41 O          -4.0244  -18.1551  -45.2590 O.2       6 UNK        -0.5000 
     42 CA         -3.2593  -17.0990  -47.2778 C.3       6 UNK         0.1400 
     43 CB         -4.7211  -17.1583  -47.7658 C.3       6 UNK        -0.1800 
     44 N          -2.7588  -15.7314  -47.3652 N.am      6 UNK        -0.5000 
     45 C          -2.3846  -15.1047  -48.4870 C.2       5 UNK         0.5000 
     46 O          -2.3210  -15.6591  -49.5858 O.2       5 UNK        -0.5000 
     47 CA         -1.9884  -13.6156  -48.3700 C.3       5 UNK         0.1400 
     48 CB         -2.5925  -12.7665  -49.5085 C.3       5 UNK        -0.1800 
     49 N          -2.2618  -13.0040  -47.0604 N.am      5 UNK        -0.5000 
     50 C          -3.4549  -12.7738  -46.4851 C.2       4 UNK         0.5000 
     51 O          -4.5327  -13.0640  -47.0033 O.2       4 UNK        -0.5000 
     52 CA         -3.4545  -12.1530  -45.0719 C.3       4 UNK         0.1400 
     53 CB         -3.8092  -13.2230  -44.0263 C.3       4 UNK        -0.1800 
     54 N          -2.1751  -11.5484  -44.6989 N.am      4 UNK        -0.5000 
     55 C          -1.7019  -10.3860  -45.1697 C.2       3 UNK         0.5000 
     56 O          -2.3376   -9.6401  -45.9150 O.2       3 UNK        -0.5000 
     57 CA         -0.2616  -10.0102  -44.7600 C.3       3 UNK         0.1400 
     58 CB         -0.2774   -9.0401  -43.5688 C.3       3 UNK        -0.1800 
     59 N           0.5813  -11.1662  -44.4254 N.am      3 UNK        -0.5000 
     60 C           0.9169  -12.1388  -45.2827 C.2       2 UNK         0.5000 
     61 O           0.5459  -12.1710  -46.4599 O.2       2 UNK        -0.5000 
     62 CA          1.7452  -13.2993  -44.7181 C.3       2 UNK         0.1400 
     63 CB          0.8478  -14.2444  -43.8962 C.3       2 UNK        -0.1800 
     64 N           2.3197  -14.0193  -45.8447 N.am      2 UNK        -0.5000 
     65 C           3.2720  -14.9548  -45.7995 C.2       1 UNK         0.5000 
     66 O           3.8521  -15.2990  -44.7688 O.2       1 UNK        -0.5000 
     67 C          -0.8900  -23.7326  -47.7971 C.2       11 UNK         0.5000 
     68 O          -1.9509  -24.2560  -48.1326 O.2       11 UNK        -0.5000 
     69 N          -0.7843  -22.8935  -46.7559 N.am      12 UNK        -0.5000 
     70 CA         -1.8951  -22.5608  -45.8652 C.3       12 UNK         0.1400 
     71 CB         -1.6374  -21.2087  -45.1878 C.3       12 UNK        -0.1800 
     72 C          -2.1400  -23.6692  -44.8318 C.2       12 UNK         0.5000 
     73 O          -3.2958  -23.9492  -44.5173 O.2       12 UNK        -0.5000 
     74 N          -1.0641  -24.3282  -44.3772 N.am      13 UNK        -0.5000 
     75 CA         -1.1264  -25.5251  -43.5325 C.3       13 UNK         0.1400 
     76 CB          0.2806  -25.8700  -43.0219 C.3       13 UNK        -0.1800 
     77 C          -1.7617  -26.7248  -44.2659 C.2       13 UNK         0.5000 
     78 O          -2.5272  -27.4757  -43.6611 O.2       13 UNK        -0.5000 
     79 N          -1.4720  -26.8474  -45.5688 N.am      14 UNK        -0.5000 
     80 CA         -2.0794  -27.8137  -46.4873 C.3       14 UNK         0.1400 
     81 CB         -1.1708  -27.9491  -47.7199 C.3       14 UNK        -0.1800 
     82 C          -3.5139  -27.4412  -46.9236 C.2       14 UNK         0.5000 
     83 O          -4.1809  -28.2683  -47.5457 O.2       14 UNK        -0.5000 
     84 N          -3.9493  -26.2082  -46.6198 N.am      15 UNK        -0.5000 
     85 CA         -5.2296  -25.5819  -46.9772 C.3       15 UNK         0.1400 
     86 CB         -6.4184  -26.3468  -46.3602 C.3       15 UNK        -0.1800 
     87 C          -5.4079  -25.3239  -48.4904 C.2       15 UNK         0.5000 
     88 O          -6.5262  -25.0760  -48.9427 O.2       15 UNK        -0.5000 
     89 N          -4.3022  -25.3399  -49.2447 N.am      16 UNK        -0.5000 
     90 CA         -4.2440  -25.0130  -50.6678 C.3       16 UNK         0.1400 
     91 CB         -2.9660  -25.6159  -51.2696 C.3       16 UNK        -0.1800 
     92 C          -4.2865  -23.4945  -50.9071 C.2       16 UNK         0.5000 
     93 O          -4.8379  -23.0529  -51.9169 O.2       16 UNK        -0.5000 
     94 N          -3.7444  -22.7128  -49.9589 N.am      17 UNK        -0.5000 
     95 CA         -3.6932  -21.2468  -50.0162 C.3       17 UNK         0.1400 
     96 CB         -2.7566  -20.6991  -48.9321 C.3       17 UNK        -0.1800 
     97 C          -5.0702  -20.5574  -49.9400 C.2       17 UNK         0.5000 
     98 O          -5.1619  -19.3671  -50.2297 O.2       17 UNK        -0.5000 
     99 N          -6.1221  -21.3109  -49.5881 N.am      18 UNK        -0.5000 
    100 CA        -7.5174  -20.8811  -49.6900 C.3       18 UNK         0.1400 
    101 CB        -8.4156  -21.9342  -49.0241 C.3       18 UNK        -0.1800 
    102 C         -7.9552  -20.6350  -51.1498 C.2       18 UNK         0.5000 
    103 O         -8.8066  -19.7777  -51.3876 O.2       18 UNK        -0.5000 
    104 N         -7.3497  -21.3708  -52.0930 N.am      19 UNK        -0.5000 
    105 CA        -7.4804  -21.1549  -53.5311 C.3       19 UNK         0.1400 
    106 CB        -7.5937  -22.5125  -54.2435 C.3       19 UNK        -0.1800 
    107 C         -6.2737  -20.3578  -54.0520 C.2       19 UNK         0.5000 
    108 O         -6.4547  -19.3366  -54.7165 O.2       19 UNK        -0.5000 
    109 N         -5.0602  -20.8191  -53.7201 N.am      20 UNK        -0.5000 
    110 CA        -3.7867  -20.2141  -54.1100 C.3       20 UNK         0.1400 
    111 CB        -2.7130  -21.3172  -54.1608 C.3       20 UNK        -0.1800 
    112 C         -3.4011  -19.0548  -53.1698 C.2       20 UNK         0.5000 
    113 O         -2.3664  -19.1130  -52.5047 O.2       20 UNK        -0.5000 
    114 N         -4.2450  -18.0182  -53.1148 N.am      21 UNK        -0.5000 
    115 CA        -4.0829  -16.8412  -52.2563 C.3       21 UNK         0.1400 
    116 CB        -5.4693  -16.2282  -51.9900 C.3       21 UNK        -0.1800 
    117 C         -3.0788  -15.8249  -52.8462 C.2       21 UNK         0.5000 
    118 O         -3.4118  -14.6529  -53.0320 O.2       21 UNK        -0.5000 
    119 N         -1.8740  -16.3064  -53.1669 N.am      22 UNK        -0.5000 
    120 CA        -0.7569  -15.5483  -53.7506 C.3       22 UNK         0.1400 
    121 C          0.1137  -14.7646  -52.7237 C.2       22 UNK         0.5000 
    122 N         -0.2047  -14.7487  -51.4358 N.am      22 UNK        -0.7600 
    123 O          1.0957  -14.1341  -53.1057 O.2       22 UNK        -0.5000 
    124 C124        0.0868  -16.4128  -54.7357 C.3       23 UNK        -0.0398 
    125 S125        0.4439  -18.1219  -54.1893 S.3       23 UNK        -0.2404 
    126 C126        2.0043  -17.9324  -53.2751 C.3       23 UNK        -0.0205 
    127 H127        5.1859  -12.7074  -50.2297 H         1 UNK         0.0600 
    128 H128        4.0505  -11.7150  -49.3086 H         1 UNK         0.0600 
    129 H129        3.4617  -13.0866  -50.2522 H         1 UNK         0.0600 
    130 H130        2.9272  -14.8124  -48.9527 H         1 UNK         0.3000 
    131 H131        4.6682  -15.9794  -47.0363 H         1 UNK         0.0600 
    132 H132        3.2207  -17.4518  -48.2002 H         1 UNK         0.0800 
    133 H133        2.6538  -17.4625  -46.5526 H         1 UNK         0.0800 
    134 H134       -0.6280  -17.9081  -48.8094 H         1 UNK         0.0800 
    135 H135        0.3813  -18.6791  -47.6056 H         1 UNK         0.0800 
    136 H136        0.8041  -17.0788  -51.0005 H         1 UNK         0.1150 
    137 H137        3.0051  -20.3957  -52.5895 H         1 UNK         0.1150 
    138 H138        1.6542  -20.4559  -48.5267 H         1 UNK         0.1150 
    139 H139        3.9596  -22.0070  -50.8862 H         1 UNK         0.0800 
    140 H140        3.2901  -22.0954  -49.2838 H         1 UNK         0.0800 
    141 H141       -0.4109  -23.3149  -50.4891 H         1 UNK         0.0800 
    142 H142        0.3277  -22.0714  -49.5511 H         1 UNK         0.0800 
    143 H143        0.2979  -25.0637  -48.9711 H         1 UNK         0.0600 
    144 H144        2.2542  -23.2475  -47.9571 H         1 UNK         0.3000 
    145 H145        2.9221  -25.0137  -44.9380 H         1 UNK         0.0600 
    146 H146        5.1843  -25.2811  -45.8938 H         1 UNK         0.0600 
    147 H147        4.0809  -26.4048  -46.6692 H         1 UNK         0.0600 
    148 H148        4.5773  -24.9443  -47.5159 H         1 UNK         0.0600 
    149 H149        4.4335  -22.9540  -45.9468 H         1 UNK         0.3000 
    150 H150        4.3156  -21.0376  -44.5360 H         1 UNK         0.0600 
    151 H151        2.6847  -19.7743  -46.7748 H         1 UNK         0.0600 
    152 H152        4.0756  -20.8111  -47.0883 H         1 UNK         0.0600 
    153 H153        4.2832  -19.3032  -46.2167 H         1 UNK         0.0600 
    154 H154        2.0280  -19.2320  -44.6230 H         1 UNK         0.3000 
    155 H155        1.5471  -19.3011  -41.0890 H         1 UNK         0.0600 
    156 H156        2.7202  -17.2136  -42.9936 H         1 UNK         0.0600 
    157 H157        3.4696  -17.8132  -41.5232 H         1 UNK         0.0600 
    158 H158        1.9816  -16.8838  -41.4275 H         1 UNK         0.0600 
    159 H159       -0.3890  -18.9123  -41.9675 H         1 UNK         0.3000 
    160 H160       -2.0665  -18.7658  -43.6646 H         1 UNK         0.0600 
    161 H161       -1.4799  -15.7961  -43.1366 H         1 UNK         0.0600 
    162 H162       -1.7761  -17.0117  -41.9040 H         1 UNK         0.0600 
    163 H163       -3.0596  -16.5606  -43.0077 H         1 UNK         0.0600 
    164 H164       -1.1022  -17.0752  -45.8201 H         1 UNK         0.3000 
    165 H165       -2.6611  -17.7376  -47.9234 H         1 UNK         0.0600 
    166 H166       -4.8030  -16.8606  -48.8114 H         1 UNK         0.0600 
    167 H167       -5.1209  -18.1702  -47.6914 H         1 UNK         0.0600 
    168 H168       -5.3655  -16.5027  -47.1793 H         1 UNK         0.0600 
    169 H169       -2.7621  -15.2054  -46.5038 H         1 UNK         0.3000 
    170 H170       -0.9039  -13.5915  -48.4850 H         1 UNK         0.0600 
    171 H171       -2.2697  -13.1248  -50.4860 H         1 UNK         0.0600 
    172 H172       -3.6822  -12.7954  -49.5029 H         1 UNK         0.0600 
    173 H173       -2.2827  -11.7246  -49.4292 H         1 UNK         0.0600 
    174 H174       -1.4301  -12.6982  -46.5674 H         1 UNK         0.3000 
    175 H175       -4.2256  -11.3800  -45.0504 H         1 UNK         0.0600 
    176 H176       -4.7751  -13.6807  -44.2447 H         1 UNK         0.0600 
    177 H177       -3.0671  -14.0214  -43.9997 H         1 UNK         0.0600 
    178 H178       -3.8754  -12.7923  -43.0270 H         1 UNK         0.0600 
    179 H179       -1.5889  -12.0796  -44.0730 H         1 UNK         0.3000 
    180 H180        0.1950   -9.5001  -45.6108 H         1 UNK         0.0600 
    181 H181       -0.7018   -9.5040  -42.6775 H         1 UNK         0.0600 
    182 H182       -0.8737   -8.1546  -43.7935 H         1 UNK         0.0600 
    183 H183        0.7285   -8.6982  -43.3242 H         1 UNK         0.0600 
    184 H184        0.9163  -11.2142  -43.4736 H         1 UNK         0.3000 
    185 H185        2.5473  -12.8976  -44.0961 H         1 UNK         0.0600 
    186 H186        0.3649  -13.7206  -43.0708 H         1 UNK         0.0600 
    187 H187        0.0653  -14.6813  -44.5179 H         1 UNK         0.0600 
    188 H188        1.4201  -15.0643  -43.4629 H         1 UNK         0.0600 
    189 H189        1.9157  -13.7655  -46.7381 H         1 UNK         0.3000 
    190 H190        0.1292  -22.5560  -46.4741 H         1 UNK         0.3000 
    191 H191       -2.8067  -22.4686  -46.4579 H         1 UNK         0.0600 
    192 H192       -2.5128  -20.8980  -44.6168 H         1 UNK         0.0600 
    193 H193       -0.7941  -21.2487  -44.4984 H         1 UNK         0.0600 
    194 H194       -1.4335  -20.4306  -45.9234 H         1 UNK         0.0600 
    195 H195       -0.1473  -24.0157  -44.6698 H         1 UNK         0.3000 
    196 H196       -1.7529  -25.2929  -42.6687 H         1 UNK         0.0600 
    197 H197        0.2455  -26.7114  -42.3287 H         1 UNK         0.0600 
    198 H198        0.7258  -25.0286  -42.4905 H         1 UNK         0.0600 
    199 H199        0.9513  -26.1464  -43.8349 H         1 UNK         0.0600 
    200 H200       -0.7547  -26.2445  -45.9600 H         1 UNK         0.3000 
    201 H201       -2.1288  -28.7838  -45.9888 H         1 UNK         0.0600 
    202 H202       -1.5510  -28.7053  -48.4079 H         1 UNK         0.0600 
    203 H203       -0.1613  -28.2474  -47.4360 H         1 UNK         0.0600 
    204 H204       -1.1000  -27.0109  -48.2708 H         1 UNK         0.0600 
    205 H205       -3.3200  -25.6146  -46.0968 H         1 UNK         0.3000 
    206 H206       -5.2087  -24.5939  -46.5157 H         1 UNK         0.0600 
    207 H207       -6.2716  -26.5068  -45.2920 H         1 UNK         0.0600 
    208 H208       -7.3470  -25.7872  -46.4781 H         1 UNK         0.0600 
    209 H209       -6.5643  -27.3197  -46.8298 H         1 UNK         0.0600 
    210 H210       -3.4111  -25.4450  -48.7722 H         1 UNK         0.3000 
    211 H211       -5.1054  -25.4580  -51.1705 H         1 UNK         0.0600 
    212 H212       -2.0683  -25.2195  -50.7943 H         1 UNK         0.0600 
    213 H213       -2.8967  -25.3996  -52.3365 H         1 UNK         0.0600 
    214 H214       -2.9523  -26.7001  -51.1557 H         1 UNK         0.0600 
    215 H215       -3.2951  -23.1640  -49.1698 H         1 UNK         0.3000 
    216 H216       -3.2596  -20.9910  -50.9814 H         1 UNK         0.0600 
    217 H217       -2.5504  -19.6461  -49.1190 H         1 UNK         0.0600 
    218 H218       -1.7961  -21.2086  -48.9325 H         1 UNK         0.0600 
    219 H219       -3.1960  -20.7774  -47.9385 H         1 UNK         0.0600 
    220 H220       -5.9625  -22.2802  -49.3565 H         1 UNK         0.3000 
    221 H221       -7.6242  -19.9405  -49.1456 H         1 UNK         0.0600 
    222 H222       -8.3393  -22.9015  -49.5226 H         1 UNK         0.0600 
    223 H223       -8.1493  -22.0754  -47.9764 H         1 UNK         0.0600 
    224 H224       -9.4626  -21.6300  -49.0554 H         1 UNK         0.0600 
    225 H225       -6.6397  -22.0342  -51.8065 H         1 UNK         0.3000 
    226 H226       -8.3845  -20.5835  -53.7517 H         1 UNK         0.0600 
    227 H227       -7.6762  -22.3806  -55.3230 H         1 UNK         0.0600 
    228 H228       -6.7269  -23.1470  -54.0546 H         1 UNK         0.0600 
    229 H229       -8.4802  -23.0542  -53.9135 H         1 UNK         0.0600 
    230 H230       -4.9951  -21.6533  -53.1426 H         1 UNK         0.3000 
    231 H231       -3.8789  -19.7987  -55.1157 H         1 UNK         0.0600 
    232 H232       -2.5685  -21.7888  -53.1883 H         1 UNK         0.0600 
    233 H233       -1.7504  -20.9112  -54.4748 H         1 UNK         0.0600 
    234 H234       -2.9838  -22.0973  -54.8723 H         1 UNK         0.0600 
    235 H235       -5.0782  -18.0541  -53.6897 H         1 UNK         0.3000 
    236 H236       -3.6824  -17.1679  -51.2945 H         1 UNK         0.0600 
    237 H237       -6.1365  -16.9561  -51.5274 H         1 UNK         0.0600 
    238 H238       -5.3950  -15.3802  -51.3078 H         1 UNK         0.0600 
    239 H239       -5.9389  -15.8766  -52.9093 H         1 UNK         0.0600 
    240 H240       -1.6862  -17.2847  -52.9672 H         1 UNK         0.3000 
    241 H241       -1.1974  -14.7571  -54.3599 H         1 UNK         0.0600 
    242 H242        0.3755  -14.2232  -50.8051 H         1 UNK         0.3800 
    243 H243       -1.0193  -15.2374  -51.0806 H         1 UNK         0.3800 
    244 H244       -0.4740  -16.5079  -55.6662 H         1 UNK         0.0800 
    245 H245        1.0155  -15.9166  -55.0224 H         1 UNK         0.0800 
    246 H246        2.2274  -16.8782  -53.1062 H         1 UNK         0.0800 
    247 H247        2.8235  -18.3267  -53.8779 H         1 UNK         0.0800 
@<TRIPOS>BOND
     1    1    2 1    
     2    1  127 1    
     3    1  128 1    
     4    1  129 1    
     5    2    3 2    
     6    2    4 am   BACKBONE|DICT|INTERRES
     7    4    5 1    
     8    4  130 1    
     9    5    6 1    
    10    5   65 1    
    11    5  131 1    
    12    6    7 1    
    13    6  132 1    
    14    6  133 1    
    15    7    8 1    
    16    8    9 1    
    17    8  134 1    
    18    8  135 1    
    19    9   10 ar   
    20    9   14 ar   
    21   10   11 ar   
    22   10  136 1    
    23   11   12 ar   
    24   11  126 1    
    25   12   13 ar   
    26   12  137 1    
    27   13   14 ar   
    28   13   15 1    
    29   14  138 1    
    30   15   16 1    
    31   15  139 1    
    32   15  140 1    
    33   16   17 1    
    34   17   18 1    
    35   17  141 1    
    36   17  142 1    
    37   18   19 1    
    38   18   67 1    
    39   18  143 1    
    40   19   20 am   BACKBONE|DICT|INTERRES
    41   19  144 1    
    42   20   21 2    
    43   20   22 1    
    44   22   23 1    
    45   22   24 1    
    46   22  145 1    
    47   23  146 1    
    48   23  147 1    
    49   23  148 1    
    50   24   25 am   BACKBONE|DICT|INTERRES
    51   24  149 1    
    52   25   26 2    
    53   25   27 1    
    54   27   28 1    
    55   27   29 1    
    56   27  150 1    
    57   28  151 1    
    58   28  152 1    
    59   28  153 1    
    60   29   30 am   BACKBONE|DICT|INTERRES
    61   29  154 1    
    62   30   31 2    
    63   30   32 1    
    64   32   33 1    
    65   32   34 1    
    66   32  155 1    
    67   33  156 1    
    68   33  157 1    
    69   33  158 1    
    70   34   35 am   BACKBONE|DICT|INTERRES
    71   34  159 1    
    72   35   36 2    
    73   35   37 1    
    74   37   38 1    
    75   37   39 1    
    76   37  160 1    
    77   38  161 1    
    78   38  162 1    
    79   38  163 1    
    80   39   40 am   BACKBONE|DICT|INTERRES
    81   39  164 1    
    82   40   41 2    
    83   40   42 1    
    84   42   43 1    
    85   42   44 1    
    86   42  165 1    
    87   43  166 1    
    88   43  167 1    
    89   43  168 1    
    90   44   45 am   BACKBONE|DICT|INTERRES
    91   44  169 1    
    92   45   46 2    
    93   45   47 1    
    94   47   48 1    
    95   47   49 1    
    96   47  170 1    
    97   48  171 1    
    98   48  172 1    
    99   48  173 1    
   100   49   50 am   BACKBONE|DICT|INTERRES
   101   49  174 1    
   102   50   51 2    
   103   50   52 1    
   104   52   53 1    
   105   52   54 1    
   106   52  175 1    
   107   53  176 1    
   108   53  177 1    
   109   53  178 1    
   110   54   55 am   BACKBONE|DICT|INTERRES
   111   54  179 1    
   112   55   56 2    
   113   55   57 1    
   114   57   58 1    
   115   57   59 1    
   116   57  180 1    
   117   58  181 1    
   118   58  182 1    
   119   58  183 1    
   120   59   60 am   BACKBONE|DICT|INTERRES
   121   59  184 1    
   122   60   61 2    
   123   60   62 1    
   124   62   63 1    
   125   62   64 1    
   126   62  185 1    
   127   63  186 1    
   128   63  187 1    
   129   63  188 1    
   130   64   65 am   BACKBONE|DICT|INTERRES
   131   64  189 1    
   132   65   66 2    
   133   67   68 2    
   134   67   69 am   BACKBONE|DICT|INTERRES
   135   69   70 1    
   136   69  190 1    
   137   70   71 1    
   138   70   72 1    
   139   70  191 1    
   140   71  192 1    
   141   71  193 1    
   142   71  194 1    
   143   72   73 2    
   144   72   74 am   BACKBONE|DICT|INTERRES
   145   74   75 1    
   146   74  195 1    
   147   75   76 1    
   148   75   77 1    
   149   75  196 1    
   150   76  197 1    
   151   76  198 1    
   152   76  199 1    
   153   77   78 2    
   154   77   79 am   BACKBONE|DICT|INTERRES
   155   79   80 1    
   156   79  200 1    
   157   80   81 1    
   158   80   82 1    
   159   80  201 1    
   160   81  202 1    
   161   81  203 1    
   162   81  204 1    
   163   82   83 2    
   164   82   84 am   BACKBONE|DICT|INTERRES
   165   84   85 1    
   166   84  205 1    
   167   85   86 1    
   168   85   87 1    
   169   85  206 1    
   170   86  207 1    
   171   86  208 1    
   172   86  209 1    
   173   87   88 2    
   174   87   89 am   BACKBONE|DICT|INTERRES
   175   89   90 1    
   176   89  210 1    
   177   90   91 1    
   178   90   92 1    
   179   90  211 1    
   180   91  212 1    
   181   91  213 1    
   182   91  214 1    
   183   92   93 2    
   184   92   94 am   BACKBONE|DICT|INTERRES
   185   94   95 1    
   186   94  215 1    
   187   95   96 1    
   188   95   97 1    
   189   95  216 1    
   190   96  217 1    
   191   96  218 1    
   192   96  219 1    
   193   97   98 2    
   194   97   99 am   BACKBONE|DICT|INTERRES
   195   99  100 1    
   196   99  220 1    
   197  100  101 1    
   198  100  102 1    
   199  100  221 1    
   200  101  222 1    
   201  101  223 1    
   202  101  224 1    
   203  102  103 2    
   204  102  104 am   BACKBONE|DICT|INTERRES
   205  104  105 1    
   206  104  225 1    
   207  105  106 1    
   208  105  107 1    
   209  105  226 1    
   210  106  227 1    
   211  106  228 1    
   212  106  229 1    
   213  107  108 2    
   214  107  109 am   BACKBONE|DICT|INTERRES
   215  109  110 1    
   216  109  230 1    
   217  110  111 1    
   218  110  112 1    
   219  110  231 1    
   220  111  232 1    
   221  111  233 1    
   222  111  234 1    
   223  112  113 2    
   224  112  114 am   BACKBONE|DICT|INTERRES
   225  114  115 1    
   226  114  235 1    
   227  115  116 1    
   228  115  117 1    
   229  115  236 1    
   230  116  237 1    
   231  116  238 1    
   232  116  239 1    
   233  117  118 2    
   234  117  119 am   BACKBONE|DICT|INTERRES
   235  119  120 1    
   236  119  240 1    
   237  120  121 1    
   238  120  124 1    
   239  120  241 1    
   240  121  122 am   BACKBONE|DICT|INTERRES
   241  121  123 2    
   242  122  242 1    
   243  122  243 1    
   244  124  125 1    
   245  124  244 1    
   246  124  245 1    
   247  125  126 1    
   248  126  246 1    
   249  126  247 1    
@<TRIPOS>SUBSTRUCTURE
     1 UNK         1 GROUP             0       ****    0 ROOT    
