@<TRIPOS>MOLECULE
3R540
247   249    1
SMALL
USER_CHARGES


@<TRIPOS>ATOM
      1 CA          4.0378  -12.1859  -47.4474 C.3       0 UNK        -0.1800 
      2 C           2.8813  -13.1655  -47.5729 C.2       0 UNK         0.5000 
      3 O           2.4326  -13.7124  -46.5660 O.2       0 UNK        -0.5000 
      4 N           2.3839  -13.3784  -48.7975 N.am      1 UNK        -0.5000 
      5 CA          1.3212  -14.3371  -49.1356 C.3       1 UNK         0.1400 
      6 C6          1.0735  -14.4134  -50.6610 C.3       23 UNK        -0.0398 
      7 S7          2.5693  -14.8135  -51.6344 S.3       23 UNK        -0.2404 
      8 C8          2.8655  -16.5720  -51.2378 C.3       23 UNK        -0.0205 
      9 C9          1.6117  -17.4279  -51.3496 C.ar      23 UNK        -0.0193 
     10 C10         0.9180  -17.5151  -52.5601 C.ar      23 UNK        -0.1150 
     11 C11        -0.2776  -18.2355  -52.6451 C.ar      23 UNK        -0.0193 
     12 C12        -0.7561  -18.9008  -51.5141 C.ar      23 UNK        -0.1150 
     13 C13        -0.0482  -18.8600  -50.3100 C.ar      23 UNK        -0.0193 
     14 C14         1.1329  -18.1176  -50.2325 C.ar      23 UNK        -0.1150 
     15 C15        -0.5415  -19.6527  -49.1110 C.3       23 UNK        -0.0205 
     16 S16        -0.9159  -18.5980  -47.6727 S.3       23 UNK        -0.2404 
     17 C17        -2.0549  -19.6547  -46.7185 C.3       23 UNK        -0.0398 
     18 CA         -1.5131  -21.0764  -46.4351 C.3       11 UNK         0.1400 
     19 N          -0.3561  -21.0856  -45.5349 N.am      11 UNK        -0.5000 
     20 C           0.4593  -22.1395  -45.3840 C.2       10 UNK         0.5000 
     21 O           0.3362  -23.1903  -46.0096 O.2       10 UNK        -0.5000 
     22 CA          1.5388  -22.0333  -44.2969 C.3       10 UNK         0.1400 
     23 CB          2.7630  -21.2564  -44.8043 C.3       10 UNK        -0.1800 
     24 N           1.0133  -21.4035  -43.0877 N.am      10 UNK        -0.5000 
     25 C           0.0908  -21.9507  -42.2839 C.2       9 UNK         0.5000 
     26 O          -0.3891  -23.0692  -42.4773 O.2       9 UNK        -0.5000 
     27 CA         -0.4175  -21.0863  -41.1102 C.3       9 UNK         0.1400 
     28 CB         -0.8494  -21.9258  -39.8899 C.3       9 UNK        -0.1800 
     29 N           0.5164  -20.0235  -40.7221 N.am      9 UNK        -0.5000 
     30 C           1.7411  -20.1640  -40.1899 C.2       8 UNK         0.5000 
     31 O           2.2425  -21.2518  -39.9040 O.2       8 UNK        -0.5000 
     32 CA          2.5696  -18.8819  -39.9680 C.3       8 UNK         0.1400 
     33 CB          3.8071  -18.8887  -40.8805 C.3       8 UNK        -0.1800 
     34 N           1.8155  -17.6480  -40.2048 N.am      8 UNK        -0.5000 
     35 C           0.9176  -17.1236  -39.3598 C.2       7 UNK         0.5000 
     36 O           0.6589  -17.6020  -38.2551 O.2       7 UNK        -0.5000 
     37 CA          0.1535  -15.8776  -39.8460 C.3       7 UNK         0.1400 
     38 CB          0.9746  -14.6051  -39.5898 C.3       7 UNK        -0.1800 
     39 N          -0.2189  -15.9349  -41.2619 N.am      7 UNK        -0.5000 
     40 C          -1.0444  -16.8363  -41.8138 C.2       6 UNK         0.5000 
     41 O          -1.5692  -17.7580  -41.1898 O.2       6 UNK        -0.5000 
     42 CA         -1.2831  -16.7158  -43.3284 C.3       6 UNK         0.1400 
     43 CB         -2.2657  -15.5815  -43.6588 C.3       6 UNK        -0.1800 
     44 N          -0.0231  -16.4990  -44.0328 N.am      6 UNK        -0.5000 
     45 C           0.8499  -17.4747  -44.3120 C.2       5 UNK         0.5000 
     46 O           0.6295  -18.6664  -44.0889 O.2       5 UNK        -0.5000 
     47 CA          2.2036  -17.0529  -44.9144 C.3       5 UNK         0.1400 
     48 CB          2.1633  -17.1413  -46.4445 C.3       5 UNK        -0.1800 
     49 N           2.6166  -15.7047  -44.5169 N.am      5 UNK        -0.5000 
     50 C           3.0127  -15.3812  -43.2789 C.2       4 UNK         0.5000 
     51 O           3.0422  -16.1805  -42.3450 O.2       4 UNK        -0.5000 
     52 CA          3.4023  -13.9145  -43.0223 C.3       4 UNK         0.1400 
     53 CB          4.8424  -13.6537  -43.4882 C.3       4 UNK        -0.1800 
     54 N           2.5132  -12.9315  -43.6431 N.am      4 UNK        -0.5000 
     55 C           1.1837  -12.8643  -43.4972 C.2       3 UNK         0.5000 
     56 O           0.5223  -13.6824  -42.8586 O.2       3 UNK        -0.5000 
     57 CA          0.4659  -11.6985  -44.1876 C.3       3 UNK         0.1400 
     58 CB          1.3383  -10.4375  -44.3489 C.3       3 UNK        -0.1800 
     59 N           0.0004  -12.1340  -45.5000 N.am      3 UNK        -0.5000 
     60 C          -1.2237  -11.9004  -45.9918 C.2       2 UNK         0.5000 
     61 O          -2.1153  -11.3431  -45.3495 O.2       2 UNK        -0.5000 
     62 CA         -1.5073  -12.3231  -47.4482 C.3       2 UNK         0.1400 
     63 CB         -2.1038  -11.1562  -48.2549 C.3       2 UNK        -0.1800 
     64 N          -0.3039  -12.7872  -48.1407 N.am      2 UNK        -0.5000 
     65 C          -0.0121  -14.0670  -48.4028 C.2       1 UNK         0.5000 
     66 O          -0.7338  -15.0104  -48.0851 O.2       1 UNK        -0.5000 
     67 C          -2.6476  -22.0054  -45.9651 C.2       11 UNK         0.5000 
     68 O          -3.3855  -22.5047  -46.8135 O.2       11 UNK        -0.5000 
     69 N          -2.7603  -22.2561  -44.6534 N.am      12 UNK        -0.5000 
     70 CA         -3.7019  -23.2337  -44.1049 C.3       12 UNK         0.1400 
     71 CB         -3.8713  -23.0189  -42.5935 C.3       12 UNK        -0.1800 
     72 C          -3.2567  -24.6722  -44.4233 C.2       12 UNK         0.5000 
     73 O          -4.0774  -25.4776  -44.8626 O.2       12 UNK        -0.5000 
     74 N          -1.9562  -24.9493  -44.2479 N.am      13 UNK        -0.5000 
     75 CA         -1.3233  -26.2284  -44.5750 C.3       13 UNK         0.1400 
     76 CB          0.1081  -26.2430  -44.0169 C.3       13 UNK        -0.1800 
     77 C          -1.3261  -26.5327  -46.0861 C.2       13 UNK         0.5000 
     78 O          -1.6087  -27.6652  -46.4783 O.2       13 UNK        -0.5000 
     79 N          -1.0357  -25.5131  -46.9056 N.am      14 UNK        -0.5000 
     80 CA         -1.0124  -25.5907  -48.3686 C.3       14 UNK         0.1400 
     81 CB         -0.1400  -24.4469  -48.9131 C.3       14 UNK        -0.1800 
     82 C          -2.4088  -25.5435  -49.0199 C.2       14 UNK         0.5000 
     83 O          -2.4980  -25.7138  -50.2362 O.2       14 UNK        -0.5000 
     84 N          -3.4578  -25.2697  -48.2285 N.am      15 UNK        -0.5000 
     85 CA         -4.8576  -25.0976  -48.6354 C.3       15 UNK         0.1400 
     86 CB         -5.4589  -26.4435  -49.0902 C.3       15 UNK        -0.1800 
     87 C          -5.0156  -23.9779  -49.6851 C.2       15 UNK         0.5000 
     88 O          -5.5388  -24.2115  -50.7757 O.2       15 UNK        -0.5000 
     89 N          -4.4819  -22.7948  -49.3467 N.am      16 UNK        -0.5000 
     90 CA         -4.3938  -21.5786  -50.1666 C.3       16 UNK         0.1400 
     91 CB         -5.7995  -21.0122  -50.4510 C.3       16 UNK        -0.1800 
     92 C          -3.5561  -21.7622  -51.4519 C.2       16 UNK         0.5000 
     93 O          -3.7619  -21.0431  -52.4287 O.2       16 UNK        -0.5000 
     94 N          -2.6316  -22.7350  -51.4299 N.am      17 UNK        -0.5000 
     95 CA         -1.8415  -23.2226  -52.5656 C.3       17 UNK         0.1400 
     96 CB         -0.8295  -22.1595  -53.0390 C.3       17 UNK        -0.1800 
     97 C          -2.7297  -23.7874  -53.6971 C.2       17 UNK         0.5000 
     98 O          -2.4247  -23.6121  -54.8789 O.2       17 UNK        -0.5000 
     99 N          -3.8217  -24.4570  -53.2975 N.am      18 UNK        -0.5000 
    100 CA        -4.8403  -25.0865  -54.1352 C.3       18 UNK         0.1400 
    101 CB        -4.2605  -26.3357  -54.8372 C.3       18 UNK        -0.1800 
    102 C         -5.5112  -24.0707  -55.0832 C.2       18 UNK         0.5000 
    103 O         -6.1262  -23.1148  -54.6080 O.2       18 UNK        -0.5000 
    104 N         -5.3916  -24.2939  -56.3980 N.am      19 UNK        -0.5000 
    105 CA        -6.0177  -23.5008  -57.4563 C.3       19 UNK         0.1400 
    106 CB        -5.8886  -24.2673  -58.7823 C.3       19 UNK        -0.1800 
    107 C         -5.4643  -22.0694  -57.6060 C.2       19 UNK         0.5000 
    108 O         -6.1223  -21.2467  -58.2447 O.2       19 UNK        -0.5000 
    109 N         -4.2777  -21.7899  -57.0446 N.am      20 UNK        -0.5000 
    110 CA        -3.6417  -20.4711  -57.0934 C.3       20 UNK         0.1400 
    111 CB        -2.1901  -20.5812  -56.6088 C.3       20 UNK        -0.1800 
    112 C         -4.4115  -19.4070  -56.2880 C.2       20 UNK         0.5000 
    113 O         -4.5624  -18.2818  -56.7666 O.2       20 UNK        -0.5000 
    114 N         -4.9042  -19.7994  -55.1035 N.am      21 UNK        -0.5000 
    115 CA        -5.7133  -19.0461  -54.1380 C.3       21 UNK         0.1400 
    116 CB        -7.0759  -18.6509  -54.7394 C.3       21 UNK        -0.1800 
    117 C         -4.9999  -17.8336  -53.5057 C.2       21 UNK         0.5000 
    118 O         -4.8731  -17.7754  -52.2828 O.2       21 UNK        -0.5000 
    119 N         -4.5668  -16.8853  -54.3450 N.am      22 UNK        -0.5000 
    120 CA        -3.8660  -15.6368  -53.9919 C.3       22 UNK         0.1400 
    121 C         -4.6830  -14.6440  -53.1057 C.2       22 UNK         0.5000 
    122 N         -6.0055  -14.7448  -53.0495 N.am      22 UNK        -0.7600 
    123 O         -4.1215  -13.7429  -52.4883 O.2       22 UNK        -0.5000 
    124 C124       -2.4309  -15.8901  -53.4532 C.3       23 UNK        -0.0398 
    125 S125       -1.3621  -16.6852  -54.7034 S.3       23 UNK        -0.2404 
    126 C126       -1.0504  -18.3166  -53.9555 C.3       23 UNK        -0.0205 
    127 H127        4.3508  -11.8027  -48.4188 H         1 UNK         0.0600 
    128 H128        3.7486  -11.3403  -46.8243 H         1 UNK         0.0600 
    129 H129        4.8935  -12.6762  -46.9835 H         1 UNK         0.0600 
    130 H130        2.8012  -12.9050  -49.5866 H         1 UNK         0.3000 
    131 H131        1.6662  -15.3182  -48.8076 H         1 UNK         0.0600 
    132 H132        0.6959  -13.4569  -51.0267 H         1 UNK         0.0800 
    133 H133        0.2932  -15.1408  -50.8915 H         1 UNK         0.0800 
    134 H134        3.2893  -16.6361  -50.2344 H         1 UNK         0.0800 
    135 H135        3.6249  -16.9641  -51.9154 H         1 UNK         0.0800 
    136 H136        1.2930  -16.9925  -53.4289 H         1 UNK         0.1150 
    137 H137       -1.6742  -19.4664  -51.5792 H         1 UNK         0.1150 
    138 H138        1.6720  -18.0734  -49.2970 H         1 UNK         0.1150 
    139 H139       -1.4307  -20.2227  -49.3822 H         1 UNK         0.0800 
    140 H140        0.2253  -20.3780  -48.8353 H         1 UNK         0.0800 
    141 H141       -2.2925  -19.1447  -45.7836 H         1 UNK         0.0800 
    142 H142       -2.9887  -19.6997  -47.2828 H         1 UNK         0.0800 
    143 H143       -1.1846  -21.5134  -47.3773 H         1 UNK         0.0600 
    144 H144       -0.1658  -20.2398  -45.0049 H         1 UNK         0.3000 
    145 H145        1.8597  -23.0450  -44.0399 H         1 UNK         0.0600 
    146 H146        3.5302  -21.1812  -44.0335 H         1 UNK         0.0600 
    147 H147        3.2113  -21.7593  -45.6620 H         1 UNK         0.0600 
    148 H148        2.5039  -20.2462  -45.1198 H         1 UNK         0.0600 
    149 H149        1.2793  -20.4409  -42.9278 H         1 UNK         0.3000 
    150 H150       -1.3066  -20.5765  -41.4835 H         1 UNK         0.0600 
    151 H151       -1.6715  -22.5949  -40.1431 H         1 UNK         0.0600 
    152 H152       -1.1929  -21.2881  -39.0754 H         1 UNK         0.0600 
    153 H153       -0.0353  -22.5448  -39.5123 H         1 UNK         0.0600 
    154 H154        0.1866  -19.0827  -40.8992 H         1 UNK         0.3000 
    155 H155        2.9109  -18.8888  -38.9308 H         1 UNK         0.0600 
    156 H156        4.4272  -19.7673  -40.6984 H         1 UNK         0.0600 
    157 H157        4.4308  -18.0119  -40.7057 H         1 UNK         0.0600 
    158 H158        3.5277  -18.8971  -41.9351 H         1 UNK         0.0600 
    159 H159        2.0281  -17.1507  -41.0665 H         1 UNK         0.3000 
    160 H160       -0.7693  -15.8094  -39.2664 H         1 UNK         0.0600 
    161 H161        1.9053  -14.6079  -40.1574 H         1 UNK         0.0600 
    162 H162        0.4156  -13.7117  -39.8688 H         1 UNK         0.0600 
    163 H163        1.2330  -14.5120  -38.5342 H         1 UNK         0.0600 
    164 H164        0.1481  -15.1929  -41.8537 H         1 UNK         0.3000 
    165 H165       -1.7277  -17.6511  -43.6755 H         1 UNK         0.0600 
    166 H166       -2.4475  -15.5210  -44.7321 H         1 UNK         0.0600 
    167 H167       -3.2282  -15.7491  -43.1742 H         1 UNK         0.0600 
    168 H168       -1.8987  -14.6099  -43.3282 H         1 UNK         0.0600 
    169 H169        0.2536  -15.5397  -44.1902 H         1 UNK         0.3000 
    170 H170        2.9577  -17.7559  -44.5546 H         1 UNK         0.0600 
    171 H171        1.9854  -18.1674  -46.7681 H         1 UNK         0.0600 
    172 H172        1.3628  -16.5247  -46.8523 H         1 UNK         0.0600 
    173 H173        3.1033  -16.8157  -46.8902 H         1 UNK         0.0600 
    174 H174        2.5878  -14.9795  -45.2314 H         1 UNK         0.3000 
    175 H175        3.3607  -13.7501  -41.9441 H         1 UNK         0.0600 
    176 H176        4.9387  -13.7564  -44.5699 H         1 UNK         0.0600 
    177 H177        5.1709  -12.6508  -43.2152 H         1 UNK         0.0600 
    178 H178        5.5362  -14.3584  -43.0278 H         1 UNK         0.0600 
    179 H179        2.9600  -12.2375  -44.2228 H         1 UNK         0.3000 
    180 H180       -0.3782  -11.4422  -43.5440 H         1 UNK         0.0600 
    181 H181        1.7730  -10.1341  -43.3955 H         1 UNK         0.0600 
    182 H182        2.1531  -10.5872  -45.0575 H         1 UNK         0.0600 
    183 H183        0.7417   -9.5999  -44.7106 H         1 UNK         0.0600 
    184 H184        0.6639  -12.6642  -46.0536 H         1 UNK         0.3000 
    185 H185       -2.2542  -13.1184  -47.4071 H         1 UNK         0.0600 
    186 H186       -3.0400  -10.8094  -47.8156 H         1 UNK         0.0600 
    187 H187       -1.4234  -10.3048  -48.2944 H         1 UNK         0.0600 
    188 H188       -2.3232  -11.4583  -49.2793 H         1 UNK         0.0600 
    189 H189        0.3572  -12.0762  -48.4198 H         1 UNK         0.3000 
    190 H190       -2.0983  -21.8423  -44.0154 H         1 UNK         0.3000 
    191 H191       -4.6756  -23.0721  -44.5730 H         1 UNK         0.0600 
    192 H192       -4.6461  -23.6754  -42.1959 H         1 UNK         0.0600 
    193 H193       -4.1668  -21.9940  -42.3689 H         1 UNK         0.0600 
    194 H194       -2.9553  -23.2336  -42.0459 H         1 UNK         0.0600 
    195 H195       -1.3560  -24.2382  -43.8430 H         1 UNK         0.3000 
    196 H196       -1.8892  -27.0181  -44.0764 H         1 UNK         0.0600 
    197 H197        0.5968  -27.1969  -44.2189 H         1 UNK         0.0600 
    198 H198        0.1107  -26.0974  -42.9365 H         1 UNK         0.0600 
    199 H199        0.7222  -25.4583  -44.4597 H         1 UNK         0.0600 
    200 H200       -0.7334  -24.6309  -46.4979 H         1 UNK         0.3000 
    201 H201       -0.5506  -26.5364  -48.6594 H         1 UNK         0.0600 
    202 H202       -0.5705  -23.4708  -48.6887 H         1 UNK         0.0600 
    203 H203       -0.0285  -24.5159  -49.9957 H         1 UNK         0.0600 
    204 H204        0.8620  -24.4771  -48.4848 H         1 UNK         0.0600 
    205 H205       -3.2712  -25.1141  -47.2472 H         1 UNK         0.3000 
    206 H206       -5.4022  -24.7727  -47.7475 H         1 UNK         0.0600 
    207 H207       -4.9770  -26.8216  -49.9924 H         1 UNK         0.0600 
    208 H208       -5.3567  -27.2013  -48.3134 H         1 UNK         0.0600 
    209 H209       -6.5228  -26.3411  -49.3066 H         1 UNK         0.0600 
    210 H210       -4.0700  -22.7207  -48.4158 H         1 UNK         0.3000 
    211 H211       -3.8616  -20.8446  -49.5607 H         1 UNK         0.0600 
    212 H212       -6.3536  -21.6374  -51.1520 H         1 UNK         0.0600 
    213 H213       -5.7357  -20.0134  -50.8828 H         1 UNK         0.0600 
    214 H214       -6.3856  -20.9297  -49.5359 H         1 UNK         0.0600 
    215 H215       -2.5752  -23.3002  -50.5950 H         1 UNK         0.3000 
    216 H216       -1.2665  -24.0715  -52.1941 H         1 UNK         0.0600 
    217 H217       -1.3251  -21.2742  -53.4327 H         1 UNK         0.0600 
    218 H218       -0.1863  -22.5520  -53.8272 H         1 UNK         0.0600 
    219 H219       -0.1825  -21.8426  -52.2211 H         1 UNK         0.0600 
    220 H220       -4.0270  -24.4748  -52.3050 H         1 UNK         0.3000 
    221 H221       -5.6236  -25.4262  -53.4561 H         1 UNK         0.0600 
    222 H222       -3.4504  -26.0876  -55.5238 H         1 UNK         0.0600 
    223 H223       -3.8639  -27.0398  -54.1055 H         1 UNK         0.0600 
    224 H224       -5.0297  -26.8648  -55.4014 H         1 UNK         0.0600 
    225 H225       -4.8439  -25.0874  -56.6977 H         1 UNK         0.3000 
    226 H226       -7.0797  -23.4092  -57.2191 H         1 UNK         0.0600 
    227 H227       -6.3566  -25.2499  -58.7184 H         1 UNK         0.0600 
    228 H228       -6.3779  -23.7298  -59.5958 H         1 UNK         0.0600 
    229 H229       -4.8444  -24.4089  -59.0641 H         1 UNK         0.0600 
    230 H230       -3.7973  -22.5152  -56.5272 H         1 UNK         0.3000 
    231 H231       -3.6222  -20.1470  -58.1362 H         1 UNK         0.0600 
    232 H232       -2.1404  -20.8957  -55.5671 H         1 UNK         0.0600 
    233 H233       -1.6270  -21.3009  -57.2030 H         1 UNK         0.0600 
    234 H234       -1.6804  -19.6206  -56.6911 H         1 UNK         0.0600 
    235 H235       -4.6857  -20.7405  -54.8026 H         1 UNK         0.3000 
    236 H236       -5.9192  -19.7454  -53.3272 H         1 UNK         0.0600 
    237 H237       -7.6139  -19.5288  -55.0975 H         1 UNK         0.0600 
    238 H238       -7.7050  -18.1673  -53.9911 H         1 UNK         0.0600 
    239 H239       -6.9730  -17.9593  -55.5757 H         1 UNK         0.0600 
    240 H240       -4.6697  -17.0728  -55.3389 H         1 UNK         0.3000 
    241 H241       -3.7565  -15.1019  -54.9357 H         1 UNK         0.0600 
    242 H242       -6.5295  -14.0938  -52.4861 H         1 UNK         0.3800 
    243 H243       -6.4856  -15.4684  -53.5595 H         1 UNK         0.3800 
    244 H244       -2.4630  -16.4838  -52.5388 H         1 UNK         0.0800 
    245 H245       -1.9450  -14.9513  -53.1834 H         1 UNK         0.0800 
    246 H246       -2.0057  -18.8260  -53.8159 H         1 UNK         0.0800 
    247 H247       -0.4747  -18.9213  -54.6564 H         1 UNK         0.0800 
@<TRIPOS>BOND
     1    1    2 1    
     2    1  127 1    
     3    1  128 1    
     4    1  129 1    
     5    2    3 2    
     6    2    4 am   BACKBONE|DICT|INTERRES
     7    4    5 1    
     8    4  130 1    
     9    5    6 1    
    10    5   65 1    
    11    5  131 1    
    12    6    7 1    
    13    6  132 1    
    14    6  133 1    
    15    7    8 1    
    16    8    9 1    
    17    8  134 1    
    18    8  135 1    
    19    9   10 ar   
    20    9   14 ar   
    21   10   11 ar   
    22   10  136 1    
    23   11   12 ar   
    24   11  126 1    
    25   12   13 ar   
    26   12  137 1    
    27   13   14 ar   
    28   13   15 1    
    29   14  138 1    
    30   15   16 1    
    31   15  139 1    
    32   15  140 1    
    33   16   17 1    
    34   17   18 1    
    35   17  141 1    
    36   17  142 1    
    37   18   19 1    
    38   18   67 1    
    39   18  143 1    
    40   19   20 am   BACKBONE|DICT|INTERRES
    41   19  144 1    
    42   20   21 2    
    43   20   22 1    
    44   22   23 1    
    45   22   24 1    
    46   22  145 1    
    47   23  146 1    
    48   23  147 1    
    49   23  148 1    
    50   24   25 am   BACKBONE|DICT|INTERRES
    51   24  149 1    
    52   25   26 2    
    53   25   27 1    
    54   27   28 1    
    55   27   29 1    
    56   27  150 1    
    57   28  151 1    
    58   28  152 1    
    59   28  153 1    
    60   29   30 am   BACKBONE|DICT|INTERRES
    61   29  154 1    
    62   30   31 2    
    63   30   32 1    
    64   32   33 1    
    65   32   34 1    
    66   32  155 1    
    67   33  156 1    
    68   33  157 1    
    69   33  158 1    
    70   34   35 am   BACKBONE|DICT|INTERRES
    71   34  159 1    
    72   35   36 2    
    73   35   37 1    
    74   37   38 1    
    75   37   39 1    
    76   37  160 1    
    77   38  161 1    
    78   38  162 1    
    79   38  163 1    
    80   39   40 am   BACKBONE|DICT|INTERRES
    81   39  164 1    
    82   40   41 2    
    83   40   42 1    
    84   42   43 1    
    85   42   44 1    
    86   42  165 1    
    87   43  166 1    
    88   43  167 1    
    89   43  168 1    
    90   44   45 am   BACKBONE|DICT|INTERRES
    91   44  169 1    
    92   45   46 2    
    93   45   47 1    
    94   47   48 1    
    95   47   49 1    
    96   47  170 1    
    97   48  171 1    
    98   48  172 1    
    99   48  173 1    
   100   49   50 am   BACKBONE|DICT|INTERRES
   101   49  174 1    
   102   50   51 2    
   103   50   52 1    
   104   52   53 1    
   105   52   54 1    
   106   52  175 1    
   107   53  176 1    
   108   53  177 1    
   109   53  178 1    
   110   54   55 am   BACKBONE|DICT|INTERRES
   111   54  179 1    
   112   55   56 2    
   113   55   57 1    
   114   57   58 1    
   115   57   59 1    
   116   57  180 1    
   117   58  181 1    
   118   58  182 1    
   119   58  183 1    
   120   59   60 am   BACKBONE|DICT|INTERRES
   121   59  184 1    
   122   60   61 2    
   123   60   62 1    
   124   62   63 1    
   125   62   64 1    
   126   62  185 1    
   127   63  186 1    
   128   63  187 1    
   129   63  188 1    
   130   64   65 am   BACKBONE|DICT|INTERRES
   131   64  189 1    
   132   65   66 2    
   133   67   68 2    
   134   67   69 am   BACKBONE|DICT|INTERRES
   135   69   70 1    
   136   69  190 1    
   137   70   71 1    
   138   70   72 1    
   139   70  191 1    
   140   71  192 1    
   141   71  193 1    
   142   71  194 1    
   143   72   73 2    
   144   72   74 am   BACKBONE|DICT|INTERRES
   145   74   75 1    
   146   74  195 1    
   147   75   76 1    
   148   75   77 1    
   149   75  196 1    
   150   76  197 1    
   151   76  198 1    
   152   76  199 1    
   153   77   78 2    
   154   77   79 am   BACKBONE|DICT|INTERRES
   155   79   80 1    
   156   79  200 1    
   157   80   81 1    
   158   80   82 1    
   159   80  201 1    
   160   81  202 1    
   161   81  203 1    
   162   81  204 1    
   163   82   83 2    
   164   82   84 am   BACKBONE|DICT|INTERRES
   165   84   85 1    
   166   84  205 1    
   167   85   86 1    
   168   85   87 1    
   169   85  206 1    
   170   86  207 1    
   171   86  208 1    
   172   86  209 1    
   173   87   88 2    
   174   87   89 am   BACKBONE|DICT|INTERRES
   175   89   90 1    
   176   89  210 1    
   177   90   91 1    
   178   90   92 1    
   179   90  211 1    
   180   91  212 1    
   181   91  213 1    
   182   91  214 1    
   183   92   93 2    
   184   92   94 am   BACKBONE|DICT|INTERRES
   185   94   95 1    
   186   94  215 1    
   187   95   96 1    
   188   95   97 1    
   189   95  216 1    
   190   96  217 1    
   191   96  218 1    
   192   96  219 1    
   193   97   98 2    
   194   97   99 am   BACKBONE|DICT|INTERRES
   195   99  100 1    
   196   99  220 1    
   197  100  101 1    
   198  100  102 1    
   199  100  221 1    
   200  101  222 1    
   201  101  223 1    
   202  101  224 1    
   203  102  103 2    
   204  102  104 am   BACKBONE|DICT|INTERRES
   205  104  105 1    
   206  104  225 1    
   207  105  106 1    
   208  105  107 1    
   209  105  226 1    
   210  106  227 1    
   211  106  228 1    
   212  106  229 1    
   213  107  108 2    
   214  107  109 am   BACKBONE|DICT|INTERRES
   215  109  110 1    
   216  109  230 1    
   217  110  111 1    
   218  110  112 1    
   219  110  231 1    
   220  111  232 1    
   221  111  233 1    
   222  111  234 1    
   223  112  113 2    
   224  112  114 am   BACKBONE|DICT|INTERRES
   225  114  115 1    
   226  114  235 1    
   227  115  116 1    
   228  115  117 1    
   229  115  236 1    
   230  116  237 1    
   231  116  238 1    
   232  116  239 1    
   233  117  118 2    
   234  117  119 am   BACKBONE|DICT|INTERRES
   235  119  120 1    
   236  119  240 1    
   237  120  121 1    
   238  120  124 1    
   239  120  241 1    
   240  121  122 am   BACKBONE|DICT|INTERRES
   241  121  123 2    
   242  122  242 1    
   243  122  243 1    
   244  124  125 1    
   245  124  244 1    
   246  124  245 1    
   247  125  126 1    
   248  126  246 1    
   249  126  247 1    
@<TRIPOS>SUBSTRUCTURE
     1 UNK         1 GROUP             0       ****    0 ROOT    
