@<TRIPOS>MOLECULE
3R540
247   249    1
SMALL
USER_CHARGES


@<TRIPOS>ATOM
      1 CA          4.6618  -13.0610  -48.5113 C.3       0 UNK        -0.1800 
      2 C           3.1846  -12.8117  -48.7780 C.2       0 UNK         0.5000 
      3 O           2.8446  -11.9089  -49.5427 O.2       0 UNK        -0.5000 
      4 N           2.3093  -13.5931  -48.1300 N.am      1 UNK        -0.5000 
      5 CA          0.8377  -13.6016  -48.2300 C.3       1 UNK         0.1400 
      6 C6          0.2859  -13.8409  -49.6602 C.3       23 UNK        -0.0398 
      7 S7          0.9569  -15.3496  -50.4416 S.3       23 UNK        -0.2404 
      8 C8         -0.3776  -16.5424  -50.1300 C.3       23 UNK        -0.0205 
      9 C9         -0.1162  -17.8565  -50.8481 C.ar      23 UNK        -0.0193 
     10 C10        -0.5149  -18.0186  -52.1770 C.ar      23 UNK        -0.1150 
     11 C11        -0.2990  -19.2296  -52.8422 C.ar      23 UNK        -0.0193 
     12 C12         0.3396  -20.2771  -52.1697 C.ar      23 UNK        -0.1150 
     13 C13         0.7605  -20.1238  -50.8437 C.ar      23 UNK        -0.0193 
     14 C14         0.5263  -18.9097  -50.1917 C.ar      23 UNK        -0.1150 
     15 C15         1.5280  -21.2388  -50.1392 C.3       23 UNK        -0.0205 
     16 S16         0.6185  -22.8176  -50.0760 S.3       23 UNK        -0.2404 
     17 C17        -0.4834  -22.5969  -48.6395 C.3       23 UNK        -0.0398 
     18 CA         -0.1052  -23.5378  -47.4562 C.3       11 UNK         0.1400 
     19 N           0.3839  -22.7956  -46.2886 N.am      11 UNK        -0.5000 
     20 C           0.9122  -23.3522  -45.1887 C.2       10 UNK         0.5000 
     21 O           1.1206  -24.5586  -45.0676 O.2       10 UNK        -0.5000 
     22 CA          1.2019  -22.4147  -44.0010 C.3       10 UNK         0.1400 
     23 CB          2.5630  -21.7223  -44.1626 C.3       10 UNK        -0.1800 
     24 N           0.1484  -21.4159  -43.8035 N.am      10 UNK        -0.5000 
     25 C          -1.1146  -21.7117  -43.4618 C.2       9 UNK         0.5000 
     26 O          -1.4997  -22.8525  -43.2123 O.2       9 UNK        -0.5000 
     27 CA         -2.1339  -20.5581  -43.4487 C.3       9 UNK         0.1400 
     28 CB         -2.0624  -19.7742  -42.1303 C.3       9 UNK        -0.1800 
     29 N          -1.9607  -19.6430  -44.5752 N.am      9 UNK        -0.5000 
     30 C          -2.1016  -19.9773  -45.8659 C.2       8 UNK         0.5000 
     31 O          -2.4629  -21.0878  -46.2580 O.2       8 UNK        -0.5000 
     32 CA         -1.6977  -18.9056  -46.8923 C.3       8 UNK         0.1400 
     33 CB         -2.8278  -17.8884  -47.1110 C.3       8 UNK        -0.1800 
     34 N          -0.4683  -18.2145  -46.4985 N.am      8 UNK        -0.5000 
     35 C           0.7368  -18.8009  -46.4457 C.2       7 UNK         0.5000 
     36 O           0.9370  -19.9710  -46.7661 O.2       7 UNK        -0.5000 
     37 CA          1.9075  -17.9459  -45.9320 C.3       7 UNK         0.1400 
     38 CB          2.4989  -17.1043  -47.0719 C.3       7 UNK        -0.1800 
     39 N           1.5127  -17.0765  -44.8226 N.am      7 UNK        -0.5000 
     40 C           1.1870  -17.5290  -43.6032 C.2       6 UNK         0.5000 
     41 O           1.2223  -18.7174  -43.2855 O.2       6 UNK        -0.5000 
     42 CA          0.6905  -16.4855  -42.5865 C.3       6 UNK         0.1400 
     43 CB          1.8755  -15.8338  -41.8599 C.3       6 UNK        -0.1800 
     44 N          -0.1548  -15.4472  -43.1847 N.am      6 UNK        -0.5000 
     45 C          -1.3365  -15.6824  -43.7786 C.2       5 UNK         0.5000 
     46 O          -1.7920  -16.8166  -43.9316 O.2       5 UNK        -0.5000 
     47 CA         -2.1249  -14.4725  -44.3280 C.3       5 UNK         0.1400 
     48 CB         -3.6528  -14.6814  -44.2644 C.3       5 UNK        -0.1800 
     49 N          -1.7437  -13.1873  -43.7305 N.am      5 UNK        -0.5000 
     50 C          -1.8744  -12.8206  -42.4454 C.2       4 UNK         0.5000 
     51 O          -2.4018  -13.5272  -41.5848 O.2       4 UNK        -0.5000 
     52 CA         -1.3039  -11.4376  -42.0555 C.3       4 UNK         0.1400 
     53 CB         -0.9314  -11.3577  -40.5603 C.3       4 UNK        -0.1800 
     54 N          -0.1688  -10.9914  -42.8749 N.am      4 UNK        -0.5000 
     55 C           0.9971  -11.6217  -43.0745 C.2       3 UNK         0.5000 
     56 O           1.2324  -12.7632  -42.6755 O.2       3 UNK        -0.5000 
     57 CA          2.0523  -10.8521  -43.8972 C.3       3 UNK         0.1400 
     58 CB          3.4218  -11.5555  -43.9015 C.3       3 UNK        -0.1800 
     59 N           1.6250  -10.6673  -45.2825 N.am      3 UNK        -0.5000 
     60 C           0.6807   -9.8240  -45.7225 C.2       2 UNK         0.5000 
     61 O           0.0886   -9.0259  -44.9944 O.2       2 UNK        -0.5000 
     62 CA          0.3194   -9.9039  -47.2200 C.3       2 UNK         0.1400 
     63 CB          0.9750   -8.7505  -47.9939 C.3       2 UNK        -0.1800 
     64 N           0.7103  -11.1724  -47.8412 N.am      2 UNK        -0.5000 
     65 C           0.1790  -12.3710  -47.5706 C.2       1 UNK         0.5000 
     66 O          -0.7573  -12.5327  -46.7880 O.2       1 UNK        -0.5000 
     67 C          -1.2641  -24.4877  -47.0741 C.2       11 UNK         0.5000 
     68 O          -1.2427  -25.6628  -47.4432 O.2       11 UNK        -0.5000 
     69 N          -2.2322  -23.9808  -46.2966 N.am      12 UNK        -0.5000 
     70 CA         -3.3548  -24.7548  -45.7623 C.3       12 UNK         0.1400 
     71 CB         -4.3749  -23.8100  -45.1123 C.3       12 UNK        -0.1800 
     72 C          -2.9175  -25.8676  -44.7921 C.2       12 UNK         0.5000 
     73 O          -3.4238  -26.9847  -44.8944 O.2       12 UNK        -0.5000 
     74 N          -1.9504  -25.5724  -43.9123 N.am      13 UNK        -0.5000 
     75 CA         -1.3329  -26.5348  -42.9935 C.3       13 UNK         0.1400 
     76 CB         -0.4155  -25.7924  -42.0108 C.3       13 UNK        -0.1800 
     77 C          -0.5618  -27.6569  -43.7178 C.2       13 UNK         0.5000 
     78 O          -0.5470  -28.7912  -43.2392 O.2       13 UNK        -0.5000 
     79 N           0.0209  -27.3332  -44.8798 N.am      14 UNK        -0.5000 
     80 CA          0.6643  -28.2731  -45.8005 C.3       14 UNK         0.1400 
     81 CB          1.6642  -27.5004  -46.6774 C.3       14 UNK        -0.1800 
     82 C          -0.3353  -29.0704  -46.6698 C.2       14 UNK         0.5000 
     83 O           0.1027  -29.8920  -47.4761 O.2       14 UNK        -0.5000 
     84 N          -1.6441  -28.8230  -46.4994 N.am      15 UNK        -0.5000 
     85 CA         -2.7755  -29.4335  -47.2054 C.3       15 UNK         0.1400 
     86 CB         -2.8452  -30.9531  -46.9446 C.3       15 UNK        -0.1800 
     87 C          -2.8300  -29.0671  -48.7030 C.2       15 UNK         0.5000 
     88 O          -3.2991  -29.8643  -49.5176 O.2       15 UNK        -0.5000 
     89 N          -2.3720  -27.8559  -49.0368 N.am      16 UNK        -0.5000 
     90 CA         -2.3770  -27.2851  -50.3791 C.3       16 UNK         0.1400 
     91 CB         -0.9792  -27.4528  -51.0040 C.3       16 UNK        -0.1800 
     92 C          -2.8227  -25.8195  -50.2677 C.2       16 UNK         0.5000 
     93 O          -2.0662  -24.9174  -50.6251 O.2       16 UNK        -0.5000 
     94 N          -4.0233  -25.6180  -49.7016 N.am      17 UNK        -0.5000 
     95 CA         -4.6101  -24.3236  -49.3428 C.3       17 UNK         0.1400 
     96 CB         -6.0372  -24.5416  -48.8184 C.3       17 UNK        -0.1800 
     97 C          -4.5945  -23.2894  -50.4829 C.2       17 UNK         0.5000 
     98 O          -4.9963  -23.6001  -51.6070 O.2       17 UNK        -0.5000 
     99 N          -4.1100  -22.0870  -50.1574 N.am      18 UNK        -0.5000 
    100 CA        -3.9105  -20.9874  -51.0922 C.3       18 UNK         0.1400 
    101 CB        -3.0236  -19.9358  -50.4138 C.3       18 UNK        -0.1800 
    102 C         -5.2354  -20.3445  -51.5288 C.2       18 UNK         0.5000 
    103 O         -6.1533  -20.2090  -50.7166 O.2       18 UNK        -0.5000 
    104 N         -5.2739  -19.8939  -52.7870 N.am      19 UNK        -0.5000 
    105 CA        -6.3489  -19.0650  -53.3354 C.3       19 UNK         0.1400 
    106 CB        -6.4547  -19.3357  -54.8453 C.3       19 UNK        -0.1800 
    107 C         -6.1119  -17.5622  -53.0807 C.2       19 UNK         0.5000 
    108 O         -7.0049  -16.7599  -53.3538 O.2       19 UNK        -0.5000 
    109 N         -4.8998  -17.2023  -52.6249 N.am      20 UNK        -0.5000 
    110 CA        -4.3337  -15.8604  -52.4183 C.3       20 UNK         0.1400 
    111 CB        -5.1697  -15.0219  -51.4343 C.3       20 UNK        -0.1800 
    112 C         -4.0715  -15.1079  -53.7367 C.2       20 UNK         0.5000 
    113 O         -2.9659  -14.6063  -53.9431 O.2       20 UNK        -0.5000 
    114 N         -5.0572  -15.1229  -54.6435 N.am      21 UNK        -0.5000 
    115 CA        -4.9768  -14.6430  -56.0263 C.3       21 UNK         0.1400 
    116 CB        -6.3778  -14.7150  -56.6526 C.3       21 UNK        -0.1800 
    117 C         -3.9574  -15.4162  -56.8908 C.2       21 UNK         0.5000 
    118 O         -3.5389  -14.9103  -57.9328 O.2       21 UNK        -0.5000 
    119 N         -3.5596  -16.6099  -56.4306 N.am      22 UNK        -0.5000 
    120 CA        -2.4316  -17.3944  -56.9496 C.3       22 UNK         0.1400 
    121 C         -1.0307  -16.7408  -56.7409 C.2       22 UNK         0.5000 
    122 N         -0.8744  -15.7470  -55.8719 N.am      22 UNK        -0.7600 
    123 O         -0.0674  -17.1436  -57.3868 O.2       22 UNK        -0.5000 
    124 C124       -2.4680  -18.8555  -56.4229 C.3       23 UNK        -0.0398 
    125 S125       -2.4576  -18.9979  -54.5967 S.3       23 UNK        -0.2404 
    126 C126       -0.6995  -19.3832  -54.3026 C.3       23 UNK        -0.0205 
    127 H127        4.8157  -13.8871  -47.8167 H         1 UNK         0.0600 
    128 H128        5.1222  -12.1688  -48.0870 H         1 UNK         0.0600 
    129 H129        5.1744  -13.3008  -49.4428 H         1 UNK         0.0600 
    130 H130        2.6861  -14.2911  -47.5062 H         1 UNK         0.3000 
    131 H131        0.5189  -14.4529  -47.6274 H         1 UNK         0.0600 
    132 H132       -0.8037  -13.9029  -49.6436 H         1 UNK         0.0800 
    133 H133        0.5234  -12.9969  -50.3094 H         1 UNK         0.0800 
    134 H134       -0.4670  -16.7093  -49.0563 H         1 UNK         0.0800 
    135 H135       -1.3298  -16.1268  -50.4621 H         1 UNK         0.0800 
    136 H136       -0.9915  -17.1994  -52.6973 H         1 UNK         0.1150 
    137 H137        0.5314  -21.2090  -52.6827 H         1 UNK         0.1150 
    138 H138        0.8641  -18.7746  -49.1778 H         1 UNK         0.1150 
    139 H139        1.8144  -20.9462  -49.1280 H         1 UNK         0.0800 
    140 H140        2.4605  -21.4025  -50.6805 H         1 UNK         0.0800 
    141 H141       -1.4993  -22.7732  -48.9960 H         1 UNK         0.0800 
    142 H142       -0.4739  -21.5505  -48.3371 H         1 UNK         0.0800 
    143 H143        0.7169  -24.1865  -47.7661 H         1 UNK         0.0600 
    144 H144        0.3142  -21.7836  -46.3297 H         1 UNK         0.3000 
    145 H145        1.2463  -23.0284  -43.0992 H         1 UNK         0.0600 
    146 H146        3.3635  -22.4573  -44.2546 H         1 UNK         0.0600 
    147 H147        2.7926  -21.0977  -43.2993 H         1 UNK         0.0600 
    148 H148        2.5959  -21.0919  -45.0502 H         1 UNK         0.0600 
    149 H149        0.4106  -20.4432  -43.9241 H         1 UNK         0.3000 
    150 H150       -3.1311  -20.9951  -43.5292 H         1 UNK         0.0600 
    151 H151       -1.0892  -19.3037  -41.9919 H         1 UNK         0.0600 
    152 H152       -2.2342  -20.4310  -41.2766 H         1 UNK         0.0600 
    153 H153       -2.8192  -18.9902  -42.0967 H         1 UNK         0.0600 
    154 H154       -1.7090  -18.6848  -44.3473 H         1 UNK         0.3000 
    155 H155       -1.5113  -19.4093  -47.8423 H         1 UNK         0.0600 
    156 H156       -2.5838  -17.1884  -47.9094 H         1 UNK         0.0600 
    157 H157       -3.0344  -17.3120  -46.2106 H         1 UNK         0.0600 
    158 H158       -3.7548  -18.3896  -47.3919 H         1 UNK         0.0600 
    159 H159       -0.5658  -17.2714  -46.1559 H         1 UNK         0.3000 
    160 H160        2.6854  -18.6232  -45.5732 H         1 UNK         0.0600 
    161 H161        1.7538  -16.4456  -47.5150 H         1 UNK         0.0600 
    162 H162        2.8775  -17.7449  -47.8697 H         1 UNK         0.0600 
    163 H163        3.3329  -16.4946  -46.7243 H         1 UNK         0.0600 
    164 H164        1.4632  -16.0845  -44.9978 H         1 UNK         0.3000 
    165 H165        0.0875  -17.0124  -41.8441 H         1 UNK         0.0600 
    166 H166        2.5020  -16.5863  -41.3793 H         1 UNK         0.0600 
    167 H167        2.5073  -15.2682  -42.5459 H         1 UNK         0.0600 
    168 H168        1.5328  -15.1511  -41.0820 H         1 UNK         0.0600 
    169 H169        0.1658  -14.4897  -43.0805 H         1 UNK         0.3000 
    170 H170       -1.8567  -14.4093  -45.3820 H         1 UNK         0.0600 
    171 H171       -4.1853  -13.8170  -44.6608 H         1 UNK         0.0600 
    172 H172       -3.9985  -14.8511  -43.2446 H         1 UNK         0.0600 
    173 H173       -3.9577  -15.5448  -44.8557 H         1 UNK         0.0600 
    174 H174       -1.2910  -12.5405  -44.3631 H         1 UNK         0.3000 
    175 H175       -2.1075  -10.7220  -42.2344 H         1 UNK         0.0600 
    176 H176       -0.1665  -12.0892  -40.2970 H         1 UNK         0.0600 
    177 H177       -1.7985  -11.5468  -39.9263 H         1 UNK         0.0600 
    178 H178       -0.5534  -10.3690  -40.3001 H         1 UNK         0.0600 
    179 H179       -0.2822  -10.0914  -43.3319 H         1 UNK         0.3000 
    180 H180        2.1797   -9.8714  -43.4342 H         1 UNK         0.0600 
    181 H181        3.3718  -12.5364  -44.3762 H         1 UNK         0.0600 
    182 H182        3.7894  -11.7009  -42.8848 H         1 UNK         0.0600 
    183 H183        4.1673  -10.9638  -44.4331 H         1 UNK         0.0600 
    184 H184        2.0392  -11.2895  -45.9596 H         1 UNK         0.3000 
    185 H185       -0.7648   -9.8038  -47.3021 H         1 UNK         0.0600 
    186 H186        0.6878   -7.7847  -47.5761 H         1 UNK         0.0600 
    187 H187        2.0636   -8.8129  -47.9619 H         1 UNK         0.0600 
    188 H188        0.6697   -8.7545  -49.0405 H         1 UNK         0.0600 
    189 H189        1.4870  -11.1470  -48.4979 H         1 UNK         0.3000 
    190 H190       -2.2011  -22.9933  -46.0577 H         1 UNK         0.3000 
    191 H191       -3.8455  -25.2484  -46.6024 H         1 UNK         0.0600 
    192 H192       -4.7341  -23.0675  -45.8253 H         1 UNK         0.0600 
    193 H193       -5.2433  -24.3626  -44.7519 H         1 UNK         0.0600 
    194 H194       -3.9488  -23.2781  -44.2621 H         1 UNK         0.0600 
    195 H195       -1.6315  -24.6087  -43.8430 H         1 UNK         0.3000 
    196 H196       -2.1343  -27.0045  -42.4196 H         1 UNK         0.0600 
    197 H197        0.0210  -26.4818  -41.2871 H         1 UNK         0.0600 
    198 H198       -0.9663  -25.0373  -41.4497 H         1 UNK         0.0600 
    199 H199        0.4059  -25.2945  -42.5257 H         1 UNK         0.0600 
    200 H200        0.0123  -26.3608  -45.1680 H         1 UNK         0.3000 
    201 H201        1.2275  -29.0010  -45.2132 H         1 UNK         0.0600 
    202 H202        2.2222  -28.1757  -47.3269 H         1 UNK         0.0600 
    203 H203        2.3915  -26.9644  -46.0672 H         1 UNK         0.0600 
    204 H204        1.1635  -26.7727  -47.3157 H         1 UNK         0.0600 
    205 H205       -1.9042  -28.1144  -45.8236 H         1 UNK         0.3000 
    206 H206       -3.6705  -28.9927  -46.7648 H         1 UNK         0.0600 
    207 H207       -2.8064  -31.1719  -45.8775 H         1 UNK         0.0600 
    208 H208       -3.7770  -31.3721  -47.3262 H         1 UNK         0.0600 
    209 H209       -2.0272  -31.4877  -47.4278 H         1 UNK         0.0600 
    210 H210       -2.0035  -27.2432  -48.3124 H         1 UNK         0.3000 
    211 H211       -3.1062  -27.7934  -51.0133 H         1 UNK         0.0600 
    212 H212       -0.9456  -27.0293  -52.0085 H         1 UNK         0.0600 
    213 H213       -0.2126  -26.9552  -50.4082 H         1 UNK         0.0600 
    214 H214       -0.7084  -28.5056  -51.0842 H         1 UNK         0.0600 
    215 H215       -4.5667  -26.4318  -49.4550 H         1 UNK         0.3000 
    216 H216       -4.0094  -23.9246  -48.5252 H         1 UNK         0.0600 
    217 H217       -6.6795  -24.9865  -49.5795 H         1 UNK         0.0600 
    218 H218       -6.4912  -23.5964  -48.5174 H         1 UNK         0.0600 
    219 H219       -6.0453  -25.1959  -47.9465 H         1 UNK         0.0600 
    220 H220       -3.8621  -21.9008  -49.1975 H         1 UNK         0.3000 
    221 H221       -3.3879  -21.3711  -51.9717 H         1 UNK         0.0600 
    222 H222       -3.4868  -19.5450  -49.5082 H         1 UNK         0.0600 
    223 H223       -2.0546  -20.3544  -50.1449 H         1 UNK         0.0600 
    224 H224       -2.8419  -19.0907  -51.0766 H         1 UNK         0.0600 
    225 H225       -4.4803  -20.0545  -53.3933 H         1 UNK         0.3000 
    226 H226       -7.2996  -19.3357  -52.8711 H         1 UNK         0.0600 
    227 H227       -6.6452  -20.3905  -55.0439 H         1 UNK         0.0600 
    228 H228       -7.2757  -18.7704  -55.2883 H         1 UNK         0.0600 
    229 H229       -5.5427  -19.0546  -55.3726 H         1 UNK         0.0600 
    230 H230       -4.2460  -17.9556  -52.4728 H         1 UNK         0.3000 
    231 H231       -3.3593  -16.0240  -51.9556 H         1 UNK         0.0600 
    232 H232       -6.1526  -14.7742  -51.8354 H         1 UNK         0.0600 
    233 H233       -4.6675  -14.0812  -51.2053 H         1 UNK         0.0600 
    234 H234       -5.3149  -15.5508  -50.4923 H         1 UNK         0.0600 
    235 H235       -5.9253  -15.5746  -54.3677 H         1 UNK         0.3000 
    236 H236       -4.6596  -13.5987  -56.0015 H         1 UNK         0.0600 
    237 H237       -6.7529  -15.7391  -56.6789 H         1 UNK         0.0600 
    238 H238       -7.0917  -14.1107  -56.0926 H         1 UNK         0.0600 
    239 H239       -6.3695  -14.3406  -57.6771 H         1 UNK         0.0600 
    240 H240       -3.9534  -16.9367  -55.5622 H         1 UNK         0.3000 
    241 H241       -2.5650  -17.4471  -58.0317 H         1 UNK         0.0600 
    242 H242       -1.6491  -15.4034  -55.3165 H         1 UNK         0.3800 
    243 H243        0.0378  -15.3359  -55.7559 H         1 UNK         0.3800 
    244 H244       -1.6477  -19.4391  -56.8446 H         1 UNK         0.0800 
    245 H245       -3.3762  -19.3405  -56.7827 H         1 UNK         0.0800 
    246 H246       -0.4999  -20.3961  -54.6554 H         1 UNK         0.0800 
    247 H247       -0.0689  -18.7199  -54.8945 H         1 UNK         0.0800 
@<TRIPOS>BOND
     1    1    2 1    
     2    1  127 1    
     3    1  128 1    
     4    1  129 1    
     5    2    3 2    
     6    2    4 am   BACKBONE|DICT|INTERRES
     7    4    5 1    
     8    4  130 1    
     9    5    6 1    
    10    5   65 1    
    11    5  131 1    
    12    6    7 1    
    13    6  132 1    
    14    6  133 1    
    15    7    8 1    
    16    8    9 1    
    17    8  134 1    
    18    8  135 1    
    19    9   10 ar   
    20    9   14 ar   
    21   10   11 ar   
    22   10  136 1    
    23   11   12 ar   
    24   11  126 1    
    25   12   13 ar   
    26   12  137 1    
    27   13   14 ar   
    28   13   15 1    
    29   14  138 1    
    30   15   16 1    
    31   15  139 1    
    32   15  140 1    
    33   16   17 1    
    34   17   18 1    
    35   17  141 1    
    36   17  142 1    
    37   18   19 1    
    38   18   67 1    
    39   18  143 1    
    40   19   20 am   BACKBONE|DICT|INTERRES
    41   19  144 1    
    42   20   21 2    
    43   20   22 1    
    44   22   23 1    
    45   22   24 1    
    46   22  145 1    
    47   23  146 1    
    48   23  147 1    
    49   23  148 1    
    50   24   25 am   BACKBONE|DICT|INTERRES
    51   24  149 1    
    52   25   26 2    
    53   25   27 1    
    54   27   28 1    
    55   27   29 1    
    56   27  150 1    
    57   28  151 1    
    58   28  152 1    
    59   28  153 1    
    60   29   30 am   BACKBONE|DICT|INTERRES
    61   29  154 1    
    62   30   31 2    
    63   30   32 1    
    64   32   33 1    
    65   32   34 1    
    66   32  155 1    
    67   33  156 1    
    68   33  157 1    
    69   33  158 1    
    70   34   35 am   BACKBONE|DICT|INTERRES
    71   34  159 1    
    72   35   36 2    
    73   35   37 1    
    74   37   38 1    
    75   37   39 1    
    76   37  160 1    
    77   38  161 1    
    78   38  162 1    
    79   38  163 1    
    80   39   40 am   BACKBONE|DICT|INTERRES
    81   39  164 1    
    82   40   41 2    
    83   40   42 1    
    84   42   43 1    
    85   42   44 1    
    86   42  165 1    
    87   43  166 1    
    88   43  167 1    
    89   43  168 1    
    90   44   45 am   BACKBONE|DICT|INTERRES
    91   44  169 1    
    92   45   46 2    
    93   45   47 1    
    94   47   48 1    
    95   47   49 1    
    96   47  170 1    
    97   48  171 1    
    98   48  172 1    
    99   48  173 1    
   100   49   50 am   BACKBONE|DICT|INTERRES
   101   49  174 1    
   102   50   51 2    
   103   50   52 1    
   104   52   53 1    
   105   52   54 1    
   106   52  175 1    
   107   53  176 1    
   108   53  177 1    
   109   53  178 1    
   110   54   55 am   BACKBONE|DICT|INTERRES
   111   54  179 1    
   112   55   56 2    
   113   55   57 1    
   114   57   58 1    
   115   57   59 1    
   116   57  180 1    
   117   58  181 1    
   118   58  182 1    
   119   58  183 1    
   120   59   60 am   BACKBONE|DICT|INTERRES
   121   59  184 1    
   122   60   61 2    
   123   60   62 1    
   124   62   63 1    
   125   62   64 1    
   126   62  185 1    
   127   63  186 1    
   128   63  187 1    
   129   63  188 1    
   130   64   65 am   BACKBONE|DICT|INTERRES
   131   64  189 1    
   132   65   66 2    
   133   67   68 2    
   134   67   69 am   BACKBONE|DICT|INTERRES
   135   69   70 1    
   136   69  190 1    
   137   70   71 1    
   138   70   72 1    
   139   70  191 1    
   140   71  192 1    
   141   71  193 1    
   142   71  194 1    
   143   72   73 2    
   144   72   74 am   BACKBONE|DICT|INTERRES
   145   74   75 1    
   146   74  195 1    
   147   75   76 1    
   148   75   77 1    
   149   75  196 1    
   150   76  197 1    
   151   76  198 1    
   152   76  199 1    
   153   77   78 2    
   154   77   79 am   BACKBONE|DICT|INTERRES
   155   79   80 1    
   156   79  200 1    
   157   80   81 1    
   158   80   82 1    
   159   80  201 1    
   160   81  202 1    
   161   81  203 1    
   162   81  204 1    
   163   82   83 2    
   164   82   84 am   BACKBONE|DICT|INTERRES
   165   84   85 1    
   166   84  205 1    
   167   85   86 1    
   168   85   87 1    
   169   85  206 1    
   170   86  207 1    
   171   86  208 1    
   172   86  209 1    
   173   87   88 2    
   174   87   89 am   BACKBONE|DICT|INTERRES
   175   89   90 1    
   176   89  210 1    
   177   90   91 1    
   178   90   92 1    
   179   90  211 1    
   180   91  212 1    
   181   91  213 1    
   182   91  214 1    
   183   92   93 2    
   184   92   94 am   BACKBONE|DICT|INTERRES
   185   94   95 1    
   186   94  215 1    
   187   95   96 1    
   188   95   97 1    
   189   95  216 1    
   190   96  217 1    
   191   96  218 1    
   192   96  219 1    
   193   97   98 2    
   194   97   99 am   BACKBONE|DICT|INTERRES
   195   99  100 1    
   196   99  220 1    
   197  100  101 1    
   198  100  102 1    
   199  100  221 1    
   200  101  222 1    
   201  101  223 1    
   202  101  224 1    
   203  102  103 2    
   204  102  104 am   BACKBONE|DICT|INTERRES
   205  104  105 1    
   206  104  225 1    
   207  105  106 1    
   208  105  107 1    
   209  105  226 1    
   210  106  227 1    
   211  106  228 1    
   212  106  229 1    
   213  107  108 2    
   214  107  109 am   BACKBONE|DICT|INTERRES
   215  109  110 1    
   216  109  230 1    
   217  110  111 1    
   218  110  112 1    
   219  110  231 1    
   220  111  232 1    
   221  111  233 1    
   222  111  234 1    
   223  112  113 2    
   224  112  114 am   BACKBONE|DICT|INTERRES
   225  114  115 1    
   226  114  235 1    
   227  115  116 1    
   228  115  117 1    
   229  115  236 1    
   230  116  237 1    
   231  116  238 1    
   232  116  239 1    
   233  117  118 2    
   234  117  119 am   BACKBONE|DICT|INTERRES
   235  119  120 1    
   236  119  240 1    
   237  120  121 1    
   238  120  124 1    
   239  120  241 1    
   240  121  122 am   BACKBONE|DICT|INTERRES
   241  121  123 2    
   242  122  242 1    
   243  122  243 1    
   244  124  125 1    
   245  124  244 1    
   246  124  245 1    
   247  125  126 1    
   248  126  246 1    
   249  126  247 1    
@<TRIPOS>SUBSTRUCTURE
     1 UNK         1 GROUP             0       ****    0 ROOT    
