@<TRIPOS>MOLECULE
3R540
247   249    1
SMALL
USER_CHARGES


@<TRIPOS>ATOM
      1 CA          3.4194  -17.0175  -46.9400 C.3       0 UNK        -0.1800 
      2 C           3.3100  -15.6807  -47.6587 C.2       0 UNK         0.5000 
      3 O           2.2180  -15.1206  -47.7359 O.2       0 UNK        -0.5000 
      4 N           4.4316  -15.1689  -48.1845 N.am      1 UNK        -0.5000 
      5 CA          4.4922  -13.9105  -48.9425 C.3       1 UNK         0.1400 
      6 C6          5.8220  -13.7277  -49.7241 C.3       23 UNK        -0.0398 
      7 S7          6.4297  -15.1949  -50.6252 S.3       23 UNK        -0.2404 
      8 C8          5.2750  -15.3117  -52.0303 C.3       23 UNK        -0.0205 
      9 C9          3.9871  -16.0289  -51.6507 C.ar      23 UNK        -0.0193 
     10 C10         2.7488  -15.4013  -51.8145 C.ar      23 UNK        -0.1150 
     11 C11         1.5713  -16.0611  -51.4544 C.ar      23 UNK        -0.0193 
     12 C12         1.6421  -17.3467  -50.9153 C.ar      23 UNK        -0.1150 
     13 C13         2.8694  -18.0003  -50.7623 C.ar      23 UNK        -0.0193 
     14 C14         4.0360  -17.3303  -51.1393 C.ar      23 UNK        -0.1150 
     15 C15         2.9801  -19.4069  -50.1712 C.3       23 UNK        -0.0205 
     16 S16         1.5802  -20.5147  -50.5576 S.3       23 UNK        -0.2404 
     17 C17         0.3636  -20.0462  -49.2789 C.3       23 UNK        -0.0398 
     18 CA          0.0351  -21.2065  -48.3119 C.3       11 UNK         0.1400 
     19 N          -0.5004  -20.7087  -47.0427 N.am      11 UNK        -0.5000 
     20 C          -0.8003  -21.4689  -45.9806 C.2       10 UNK         0.5000 
     21 O          -0.6148  -22.6840  -45.9268 O.2       10 UNK        -0.5000 
     22 CA         -1.4762  -20.7549  -44.8003 C.3       10 UNK         0.1400 
     23 CB         -0.4345  -20.0666  -43.9059 C.3       10 UNK        -0.1800 
     24 N          -2.4803  -19.7895  -45.2533 N.am      10 UNK        -0.5000 
     25 C          -3.6408  -20.1391  -45.8285 C.2       9 UNK         0.5000 
     26 O          -4.0025  -21.3044  -45.9833 O.2       9 UNK        -0.5000 
     27 CA         -4.5187  -19.0049  -46.3812 C.3       9 UNK         0.1400 
     28 CB         -5.4210  -18.4121  -45.2901 C.3       9 UNK        -0.1800 
     29 N          -3.7271  -17.9487  -47.0148 N.am      9 UNK        -0.5000 
     30 C          -3.0646  -18.1103  -48.1702 C.2       8 UNK         0.5000 
     31 O          -3.0909  -19.1523  -48.8227 O.2       8 UNK        -0.5000 
     32 CA         -2.2057  -16.9360  -48.6748 C.3       8 UNK         0.1400 
     33 CB         -3.0396  -16.0178  -49.5792 C.3       8 UNK        -0.1800 
     34 N          -1.6167  -16.1325  -47.6067 N.am      8 UNK        -0.5000 
     35 C          -0.7818  -16.5762  -46.6580 C.2       7 UNK         0.5000 
     36 O          -0.3978  -17.7453  -46.5796 O.2       7 UNK        -0.5000 
     37 CA         -0.3503  -15.5547  -45.5831 C.3       7 UNK         0.1400 
     38 CB         -0.5596  -14.0826  -46.0050 C.3       7 UNK        -0.1800 
     39 N          -1.0022  -15.7888  -44.2894 N.am      7 UNK        -0.5000 
     40 C          -2.3155  -15.9318  -44.0470 C.2       6 UNK         0.5000 
     41 O          -3.1833  -15.9505  -44.9202 O.2       6 UNK        -0.5000 
     42 CA         -2.7326  -16.0638  -42.5706 C.3       6 UNK         0.1400 
     43 CB         -2.6688  -17.5265  -42.1096 C.3       6 UNK        -0.1800 
     44 N          -1.9031  -15.2531  -41.6795 N.am      6 UNK        -0.5000 
     45 C          -1.9873  -13.9208  -41.5620 C.2       5 UNK         0.5000 
     46 O          -2.8152  -13.2285  -42.1549 O.2       5 UNK        -0.5000 
     47 CA         -0.9616  -13.2524  -40.6276 C.3       5 UNK         0.1400 
     48 CB         -1.4896  -13.2117  -39.1853 C.3       5 UNK        -0.1800 
     49 N           0.3430  -13.9211  -40.6470 N.am      5 UNK        -0.5000 
     50 C           1.1904  -13.8771  -41.6826 C.2       4 UNK         0.5000 
     51 O           0.9583  -13.2769  -42.7338 O.2       4 UNK        -0.5000 
     52 CA          2.5135  -14.6471  -41.5317 C.3       4 UNK         0.1400 
     53 CB          2.5035  -15.9141  -42.4027 C.3       4 UNK        -0.1800 
     54 N           3.6386  -13.8046  -41.9266 N.am      4 UNK        -0.5000 
     55 C           4.0745  -12.7372  -41.2489 C.2       3 UNK         0.5000 
     56 O           3.6515  -12.4207  -40.1359 O.2       3 UNK        -0.5000 
     57 CA          5.1414  -11.8555  -41.9267 C.3       3 UNK         0.1400 
     58 CB          6.5566  -12.4303  -41.7217 C.3       3 UNK        -0.1800 
     59 N           4.8771  -11.5500  -43.3418 N.am      3 UNK        -0.5000 
     60 C           4.9087  -12.3683  -44.4026 C.2       2 UNK         0.5000 
     61 O           5.1368  -13.5805  -44.3336 O.2       2 UNK        -0.5000 
     62 CA          4.6428  -11.7178  -45.7707 C.3       2 UNK         0.1400 
     63 CB          5.6916  -10.6316  -46.0906 C.3       2 UNK        -0.1800 
     64 N           4.6801  -12.7617  -46.7874 N.am      2 UNK        -0.5000 
     65 C           4.2538  -12.6723  -48.0517 C.2       1 UNK         0.5000 
     66 O           3.7188  -11.6699  -48.5276 O.2       1 UNK        -0.5000 
     67 C          -0.9106  -22.2360  -48.9652 C.2       11 UNK         0.5000 
     68 O          -0.4820  -23.3436  -49.2908 O.2       11 UNK        -0.5000 
     69 N          -2.1935  -21.8705  -49.0933 N.am      12 UNK        -0.5000 
     70 CA         -3.2324  -22.7222  -49.6633 C.3       12 UNK         0.1400 
     71 CB         -4.4992  -21.8957  -49.8949 C.3       12 UNK        -0.1800 
     72 C          -3.5471  -23.9588  -48.8063 C.2       12 UNK         0.5000 
     73 O          -3.8714  -25.0039  -49.3710 O.2       12 UNK        -0.5000 
     74 N          -3.4509  -23.8332  -47.4756 N.am      13 UNK        -0.5000 
     75 CA         -3.5921  -24.9456  -46.5358 C.3       13 UNK         0.1400 
     76 CB         -3.7394  -24.4136  -45.1031 C.3       13 UNK        -0.1800 
     77 C          -2.4202  -25.9368  -46.6365 C.2       13 UNK         0.5000 
     78 O          -2.6567  -27.1438  -46.6746 O.2       13 UNK        -0.5000 
     79 N          -1.1872  -25.4170  -46.7316 N.am      14 UNK        -0.5000 
     80 CA          0.0354  -26.2007  -46.9340 C.3       14 UNK         0.1400 
     81 CB          1.2627  -25.2894  -46.7824 C.3       14 UNK        -0.1800 
     82 C           0.0595  -26.9306  -48.2907 C.2       14 UNK         0.5000 
     83 O           0.5239  -28.0688  -48.3627 O.2       14 UNK        -0.5000 
     84 N          -0.4834  -26.2806  -49.3289 N.am      15 UNK        -0.5000 
     85 CA         -0.6957  -26.8491  -50.6619 C.3       15 UNK         0.1400 
     86 CB         -0.9432  -25.6990  -51.6513 C.3       15 UNK        -0.1800 
     87 C          -1.8578  -27.8641  -50.7261 C.2       15 UNK         0.5000 
     88 O          -1.9876  -28.5571  -51.7357 O.2       15 UNK        -0.5000 
     89 N          -2.6889  -27.9155  -49.6728 N.am      16 UNK        -0.5000 
     90 CA         -3.9118  -28.7142  -49.5252 C.3       16 UNK         0.1400 
     91 CB         -3.5933  -30.2237  -49.5310 C.3       16 UNK        -0.1800 
     92 C          -5.0215  -28.3250  -50.5271 C.2       16 UNK         0.5000 
     93 O          -5.8712  -29.1526  -50.8612 O.2       16 UNK        -0.5000 
     94 N          -4.9979  -27.0657  -50.9791 N.am      17 UNK        -0.5000 
     95 CA         -5.9748  -26.4769  -51.8906 C.3       17 UNK         0.1400 
     96 CB         -5.2554  -25.4754  -52.8091 C.3       17 UNK        -0.1800 
     97 C          -7.1022  -25.7743  -51.1180 C.2       17 UNK         0.5000 
     98 O          -8.2588  -25.8513  -51.5316 O.2       17 UNK        -0.5000 
     99 N          -6.7341  -25.0887  -50.0225 N.am      18 UNK        -0.5000 
    100 CA        -7.5924  -24.3158  -49.1104 C.3       18 UNK         0.1400 
    101 CB        -8.5420  -25.2560  -48.3413 C.3       18 UNK        -0.1800 
    102 C         -8.3426  -23.1299  -49.7672 C.2       18 UNK         0.5000 
    103 O         -9.2924  -22.6077  -49.1827 O.2       18 UNK        -0.5000 
    104 N         -7.8971  -22.7098  -50.9595 N.am      19 UNK        -0.5000 
    105 CA        -8.5020  -21.6518  -51.7735 C.3       19 UNK         0.1400 
    106 CB        -8.0145  -21.8237  -53.2215 C.3       19 UNK        -0.1800 
    107 C         -8.2024  -20.2212  -51.2806 C.2       19 UNK         0.5000 
    108 O         -8.8760  -19.2877  -51.7175 O.2       19 UNK        -0.5000 
    109 N         -7.1935  -20.0768  -50.4077 N.am      20 UNK        -0.5000 
    110 CA        -6.6447  -18.8234  -49.8769 C.3       20 UNK         0.1400 
    111 CB        -7.6543  -18.1195  -48.9479 C.3       20 UNK        -0.1800 
    112 C         -6.0878  -17.9137  -50.9904 C.2       20 UNK         0.5000 
    113 O         -6.4791  -16.7517  -51.1120 O.2       20 UNK        -0.5000 
    114 N         -5.1813  -18.4837  -51.7894 N.am      21 UNK        -0.5000 
    115 CA        -4.4732  -17.8368  -52.8872 C.3       21 UNK         0.1400 
    116 CB        -5.1690  -18.1953  -54.2110 C.3       21 UNK        -0.1800 
    117 C         -3.0140  -18.3171  -52.8770 C.2       21 UNK         0.5000 
    118 O         -2.7046  -19.3231  -52.2337 O.2       21 UNK        -0.5000 
    119 N         -2.1454  -17.5965  -53.5953 N.am      22 UNK        -0.5000 
    120 CA        -0.7045  -17.8918  -53.6969 C.3       22 UNK         0.1400 
    121 C         -0.3416  -19.1654  -54.5209 C.2       22 UNK         0.5000 
    122 N         -1.2704  -19.7873  -55.2373 N.am      22 UNK        -0.7600 
    123 O          0.8081  -19.5951  -54.5152 O.2       22 UNK        -0.5000 
    124 C124        0.1138  -16.6750  -54.2092 C.3       23 UNK        -0.0398 
    125 S125       -0.2147  -15.0784  -53.3771 S.3       23 UNK        -0.2404 
    126 C126        0.2145  -15.3956  -51.6335 C.3       23 UNK        -0.0205 
    127 H127        4.3686  -17.5115  -47.1485 H         1 UNK         0.0600 
    128 H128        2.6140  -17.6801  -47.2578 H         1 UNK         0.0600 
    129 H129        3.3347  -16.8715  -45.8632 H         1 UNK         0.0600 
    130 H130        5.2992  -15.6814  -48.1169 H         1 UNK         0.3000 
    131 H131        3.6792  -13.9307  -49.6691 H         1 UNK         0.0600 
    132 H132        5.7295  -12.9026  -50.4325 H         1 UNK         0.0800 
    133 H133        6.6235  -13.4408  -49.0403 H         1 UNK         0.0800 
    134 H134        5.0739  -14.3151  -52.4261 H         1 UNK         0.0800 
    135 H135        5.7573  -15.8701  -52.8336 H         1 UNK         0.0800 
    136 H136        2.6966  -14.4013  -52.2215 H         1 UNK         0.1150 
    137 H137        0.7266  -17.8342  -50.6264 H         1 UNK         0.1150 
    138 H138        4.9944  -17.8155  -51.0182 H         1 UNK         0.1150 
    139 H139        3.8820  -19.8866  -50.5545 H         1 UNK         0.0800 
    140 H140        3.1124  -19.3371  -49.0912 H         1 UNK         0.0800 
    141 H141       -0.5360  -19.6720  -49.7712 H         1 UNK         0.0800 
    142 H142        0.7624  -19.2033  -48.7126 H         1 UNK         0.0800 
    143 H143        0.9653  -21.7241  -48.0675 H         1 UNK         0.0600 
    144 H144       -0.6490  -19.7074  -46.9703 H         1 UNK         0.3000 
    145 H145       -1.9783  -21.5175  -44.2012 H         1 UNK         0.0600 
    146 H146       -0.8764  -19.7683  -42.9577 H         1 UNK         0.0600 
    147 H147        0.3878  -20.7437  -43.6706 H         1 UNK         0.0600 
    148 H148       -0.0056  -19.1823  -44.3771 H         1 UNK         0.0600 
    149 H149       -2.2204  -18.8143  -45.2353 H         1 UNK         0.3000 
    150 H150       -5.1705  -19.4455  -47.1358 H         1 UNK         0.0600 
    151 H151       -6.0588  -19.1818  -44.8537 H         1 UNK         0.0600 
    152 H152       -6.0749  -17.6407  -45.6972 H         1 UNK         0.0600 
    153 H153       -4.8451  -17.9687  -44.4795 H         1 UNK         0.0600 
    154 H154       -3.6197  -17.0822  -46.4947 H         1 UNK         0.3000 
    155 H155       -1.3868  -17.3532  -49.2628 H         1 UNK         0.0600 
    156 H156       -3.9086  -15.6168  -49.0556 H         1 UNK         0.0600 
    157 H157       -3.4036  -16.5598  -50.4500 H         1 UNK         0.0600 
    158 H158       -2.4538  -15.1749  -49.9454 H         1 UNK         0.0600 
    159 H159       -1.9054  -15.1664  -47.5614 H         1 UNK         0.3000 
    160 H160        0.7188  -15.7073  -45.4304 H         1 UNK         0.0600 
    161 H161       -1.6150  -13.8201  -46.0846 H         1 UNK         0.0600 
    162 H162       -0.0873  -13.8733  -46.9656 H         1 UNK         0.0600 
    163 H163       -0.1104  -13.4063  -45.2779 H         1 UNK         0.0600 
    164 H164       -0.3844  -15.7900  -43.4929 H         1 UNK         0.3000 
    165 H165       -3.7688  -15.7274  -42.4912 H         1 UNK         0.0600 
    166 H166       -3.1388  -17.6484  -41.1336 H         1 UNK         0.0600 
    167 H167       -3.1855  -18.1911  -42.8022 H         1 UNK         0.0600 
    168 H168       -1.6384  -17.8690  -42.0248 H         1 UNK         0.0600 
    169 H169       -1.2069  -15.7383  -41.1336 H         1 UNK         0.3000 
    170 H170       -0.8247  -12.2235  -40.9679 H         1 UNK         0.0600 
    171 H171       -2.4517  -12.6998  -39.1365 H         1 UNK         0.0600 
    172 H172       -1.6299  -14.2135  -38.7775 H         1 UNK         0.0600 
    173 H173       -0.8040  -12.6746  -38.5296 H         1 UNK         0.0600 
    174 H174        0.6090  -14.4201  -39.8100 H         1 UNK         0.3000 
    175 H175        2.6474  -14.9410  -40.4885 H         1 UNK         0.0600 
    176 H176        2.3984  -15.6744  -43.4618 H         1 UNK         0.0600 
    177 H177        3.4262  -16.4818  -42.2806 H         1 UNK         0.0600 
    178 H178        1.6787  -16.5730  -42.1287 H         1 UNK         0.0600 
    179 H179        4.0418  -13.9677  -42.8447 H         1 UNK         0.3000 
    180 H180        5.1119  -10.8920  -41.4153 H         1 UNK         0.0600 
    181 H181        7.3144  -11.7740  -42.1495 H         1 UNK         0.0600 
    182 H182        6.6699  -13.4150  -42.1755 H         1 UNK         0.0600 
    183 H183        6.7808  -12.5366  -40.6596 H         1 UNK         0.0600 
    184 H184        4.6420  -10.5825  -43.5152 H         1 UNK         0.3000 
    185 H185        3.6441  -11.2772  -45.7507 H         1 UNK         0.0600 
    186 H186        5.6743   -9.8289  -45.3529 H         1 UNK         0.0600 
    187 H187        6.7013  -11.0439  -46.1039 H         1 UNK         0.0600 
    188 H188        5.5084  -10.1702  -47.0608 H         1 UNK         0.0600 
    189 H189        5.0482  -13.6429  -46.4490 H         1 UNK         0.3000 
    190 H190       -2.4728  -20.9264  -48.8374 H         1 UNK         0.3000 
    191 H191       -2.8779  -23.0730  -50.6345 H         1 UNK         0.0600 
    192 H192       -4.2884  -21.0345  -50.5280 H         1 UNK         0.0600 
    193 H193       -5.2533  -22.4947  -50.4010 H         1 UNK         0.0600 
    194 H194       -4.9196  -21.5347  -48.9550 H         1 UNK         0.0600 
    195 H195       -3.2572  -22.9220  -47.0758 H         1 UNK         0.3000 
    196 H196       -4.5071  -25.4866  -46.7871 H         1 UNK         0.0600 
    197 H197       -3.8412  -25.2329  -44.3904 H         1 UNK         0.0600 
    198 H198       -4.6267  -23.7881  -45.0059 H         1 UNK         0.0600 
    199 H199       -2.8763  -23.8205  -44.8010 H         1 UNK         0.0600 
    200 H200       -1.0692  -24.4104  -46.6508 H         1 UNK         0.3000 
    201 H201        0.0777  -26.9596  -46.1502 H         1 UNK         0.0600 
    202 H202        1.2945  -24.8342  -45.7924 H         1 UNK         0.0600 
    203 H203        1.2617  -24.4854  -47.5189 H         1 UNK         0.0600 
    204 H204        2.1873  -25.8533  -46.9115 H         1 UNK         0.0600 
    205 H205       -0.7568  -25.3107  -49.2004 H         1 UNK         0.3000 
    206 H206        0.2144  -27.3714  -50.9635 H         1 UNK         0.0600 
    207 H207       -0.1166  -24.9882  -51.6469 H         1 UNK         0.0600 
    208 H208       -1.0447  -26.0728  -52.6709 H         1 UNK         0.0600 
    209 H209       -1.8557  -25.1536  -51.4105 H         1 UNK         0.0600 
    210 H210       -2.4864  -27.3062  -48.8905 H         1 UNK         0.3000 
    211 H211       -4.3077  -28.4697  -48.5388 H         1 UNK         0.0600 
    212 H212       -3.2666  -30.5668  -50.5128 H         1 UNK         0.0600 
    213 H213       -4.4712  -30.8096  -49.2569 H         1 UNK         0.0600 
    214 H214       -2.8088  -30.4626  -48.8128 H         1 UNK         0.0600 
    215 H215       -4.3032  -26.4374  -50.5876 H         1 UNK         0.3000 
    216 H216       -6.4202  -27.2546  -52.5147 H         1 UNK         0.0600 
    217 H217       -4.4864  -25.9716  -53.4016 H         1 UNK         0.0600 
    218 H218       -4.7741  -24.6768  -52.2430 H         1 UNK         0.0600 
    219 H219       -5.9542  -25.0114  -53.5066 H         1 UNK         0.0600 
    220 H220       -5.7501  -25.1133  -49.7728 H         1 UNK         0.3000 
    221 H221       -6.9182  -23.8671  -48.3793 H         1 UNK         0.0600 
    222 H222       -9.2901  -25.7009  -48.9981 H         1 UNK         0.0600 
    223 H223       -7.9913  -26.0661  -47.8630 H         1 UNK         0.0600 
    224 H224       -9.0750  -24.7208  -47.5546 H         1 UNK         0.0600 
    225 H225       -7.1358  -23.2185  -51.3818 H         1 UNK         0.3000 
    226 H226       -9.5861  -21.7823  -51.7592 H         1 UNK         0.0600 
    227 H227       -8.2753  -22.8079  -53.6117 H         1 UNK         0.0600 
    228 H228       -8.4718  -21.0839  -53.8800 H         1 UNK         0.0600 
    229 H229       -6.9327  -21.7065  -53.2990 H         1 UNK         0.0600 
    230 H230       -6.7218  -20.9193  -50.1183 H         1 UNK         0.3000 
    231 H231       -5.7864  -19.1035  -49.2697 H         1 UNK         0.0600 
    232 H232       -7.2026  -17.2469  -48.4745 H         1 UNK         0.0600 
    233 H233       -7.9852  -18.7854  -48.1509 H         1 UNK         0.0600 
    234 H234       -8.5372  -17.7784  -49.4889 H         1 UNK         0.0600 
    235 H235       -4.8388  -19.4105  -51.5739 H         1 UNK         0.3000 
    236 H236       -4.4757  -16.7530  -52.7533 H         1 UNK         0.0600 
    237 H237       -6.2076  -17.8634  -54.2100 H         1 UNK         0.0600 
    238 H238       -4.6772  -17.7172  -55.0588 H         1 UNK         0.0600 
    239 H239       -5.1642  -19.2716  -54.3889 H         1 UNK         0.0600 
    240 H240       -2.4667  -16.7845  -54.1023 H         1 UNK         0.3000 
    241 H241       -0.3642  -18.1101  -52.6852 H         1 UNK         0.0600 
    242 H242       -1.0207  -20.6094  -55.7641 H         1 UNK         0.3800 
    243 H243       -2.2190  -19.4509  -55.2521 H         1 UNK         0.3800 
    244 H244        1.1832  -16.8798  -54.1316 H         1 UNK         0.0800 
    245 H245       -0.0797  -16.5235  -55.2725 H         1 UNK         0.0800 
    246 H246        0.2048  -14.4520  -51.0864 H         1 UNK         0.0800 
    247 H247       -0.5730  -16.0090  -51.1968 H         1 UNK         0.0800 
@<TRIPOS>BOND
     1    1    2 1    
     2    1  127 1    
     3    1  128 1    
     4    1  129 1    
     5    2    3 2    
     6    2    4 am   BACKBONE|DICT|INTERRES
     7    4    5 1    
     8    4  130 1    
     9    5    6 1    
    10    5   65 1    
    11    5  131 1    
    12    6    7 1    
    13    6  132 1    
    14    6  133 1    
    15    7    8 1    
    16    8    9 1    
    17    8  134 1    
    18    8  135 1    
    19    9   10 ar   
    20    9   14 ar   
    21   10   11 ar   
    22   10  136 1    
    23   11   12 ar   
    24   11  126 1    
    25   12   13 ar   
    26   12  137 1    
    27   13   14 ar   
    28   13   15 1    
    29   14  138 1    
    30   15   16 1    
    31   15  139 1    
    32   15  140 1    
    33   16   17 1    
    34   17   18 1    
    35   17  141 1    
    36   17  142 1    
    37   18   19 1    
    38   18   67 1    
    39   18  143 1    
    40   19   20 am   BACKBONE|DICT|INTERRES
    41   19  144 1    
    42   20   21 2    
    43   20   22 1    
    44   22   23 1    
    45   22   24 1    
    46   22  145 1    
    47   23  146 1    
    48   23  147 1    
    49   23  148 1    
    50   24   25 am   BACKBONE|DICT|INTERRES
    51   24  149 1    
    52   25   26 2    
    53   25   27 1    
    54   27   28 1    
    55   27   29 1    
    56   27  150 1    
    57   28  151 1    
    58   28  152 1    
    59   28  153 1    
    60   29   30 am   BACKBONE|DICT|INTERRES
    61   29  154 1    
    62   30   31 2    
    63   30   32 1    
    64   32   33 1    
    65   32   34 1    
    66   32  155 1    
    67   33  156 1    
    68   33  157 1    
    69   33  158 1    
    70   34   35 am   BACKBONE|DICT|INTERRES
    71   34  159 1    
    72   35   36 2    
    73   35   37 1    
    74   37   38 1    
    75   37   39 1    
    76   37  160 1    
    77   38  161 1    
    78   38  162 1    
    79   38  163 1    
    80   39   40 am   BACKBONE|DICT|INTERRES
    81   39  164 1    
    82   40   41 2    
    83   40   42 1    
    84   42   43 1    
    85   42   44 1    
    86   42  165 1    
    87   43  166 1    
    88   43  167 1    
    89   43  168 1    
    90   44   45 am   BACKBONE|DICT|INTERRES
    91   44  169 1    
    92   45   46 2    
    93   45   47 1    
    94   47   48 1    
    95   47   49 1    
    96   47  170 1    
    97   48  171 1    
    98   48  172 1    
    99   48  173 1    
   100   49   50 am   BACKBONE|DICT|INTERRES
   101   49  174 1    
   102   50   51 2    
   103   50   52 1    
   104   52   53 1    
   105   52   54 1    
   106   52  175 1    
   107   53  176 1    
   108   53  177 1    
   109   53  178 1    
   110   54   55 am   BACKBONE|DICT|INTERRES
   111   54  179 1    
   112   55   56 2    
   113   55   57 1    
   114   57   58 1    
   115   57   59 1    
   116   57  180 1    
   117   58  181 1    
   118   58  182 1    
   119   58  183 1    
   120   59   60 am   BACKBONE|DICT|INTERRES
   121   59  184 1    
   122   60   61 2    
   123   60   62 1    
   124   62   63 1    
   125   62   64 1    
   126   62  185 1    
   127   63  186 1    
   128   63  187 1    
   129   63  188 1    
   130   64   65 am   BACKBONE|DICT|INTERRES
   131   64  189 1    
   132   65   66 2    
   133   67   68 2    
   134   67   69 am   BACKBONE|DICT|INTERRES
   135   69   70 1    
   136   69  190 1    
   137   70   71 1    
   138   70   72 1    
   139   70  191 1    
   140   71  192 1    
   141   71  193 1    
   142   71  194 1    
   143   72   73 2    
   144   72   74 am   BACKBONE|DICT|INTERRES
   145   74   75 1    
   146   74  195 1    
   147   75   76 1    
   148   75   77 1    
   149   75  196 1    
   150   76  197 1    
   151   76  198 1    
   152   76  199 1    
   153   77   78 2    
   154   77   79 am   BACKBONE|DICT|INTERRES
   155   79   80 1    
   156   79  200 1    
   157   80   81 1    
   158   80   82 1    
   159   80  201 1    
   160   81  202 1    
   161   81  203 1    
   162   81  204 1    
   163   82   83 2    
   164   82   84 am   BACKBONE|DICT|INTERRES
   165   84   85 1    
   166   84  205 1    
   167   85   86 1    
   168   85   87 1    
   169   85  206 1    
   170   86  207 1    
   171   86  208 1    
   172   86  209 1    
   173   87   88 2    
   174   87   89 am   BACKBONE|DICT|INTERRES
   175   89   90 1    
   176   89  210 1    
   177   90   91 1    
   178   90   92 1    
   179   90  211 1    
   180   91  212 1    
   181   91  213 1    
   182   91  214 1    
   183   92   93 2    
   184   92   94 am   BACKBONE|DICT|INTERRES
   185   94   95 1    
   186   94  215 1    
   187   95   96 1    
   188   95   97 1    
   189   95  216 1    
   190   96  217 1    
   191   96  218 1    
   192   96  219 1    
   193   97   98 2    
   194   97   99 am   BACKBONE|DICT|INTERRES
   195   99  100 1    
   196   99  220 1    
   197  100  101 1    
   198  100  102 1    
   199  100  221 1    
   200  101  222 1    
   201  101  223 1    
   202  101  224 1    
   203  102  103 2    
   204  102  104 am   BACKBONE|DICT|INTERRES
   205  104  105 1    
   206  104  225 1    
   207  105  106 1    
   208  105  107 1    
   209  105  226 1    
   210  106  227 1    
   211  106  228 1    
   212  106  229 1    
   213  107  108 2    
   214  107  109 am   BACKBONE|DICT|INTERRES
   215  109  110 1    
   216  109  230 1    
   217  110  111 1    
   218  110  112 1    
   219  110  231 1    
   220  111  232 1    
   221  111  233 1    
   222  111  234 1    
   223  112  113 2    
   224  112  114 am   BACKBONE|DICT|INTERRES
   225  114  115 1    
   226  114  235 1    
   227  115  116 1    
   228  115  117 1    
   229  115  236 1    
   230  116  237 1    
   231  116  238 1    
   232  116  239 1    
   233  117  118 2    
   234  117  119 am   BACKBONE|DICT|INTERRES
   235  119  120 1    
   236  119  240 1    
   237  120  121 1    
   238  120  124 1    
   239  120  241 1    
   240  121  122 am   BACKBONE|DICT|INTERRES
   241  121  123 2    
   242  122  242 1    
   243  122  243 1    
   244  124  125 1    
   245  124  244 1    
   246  124  245 1    
   247  125  126 1    
   248  126  246 1    
   249  126  247 1    
@<TRIPOS>SUBSTRUCTURE
     1 UNK         1 GROUP             0       ****    0 ROOT    
