@<TRIPOS>MOLECULE
3R540
247   249    1
SMALL
USER_CHARGES


@<TRIPOS>ATOM
      1 CA          0.6875  -16.5572  -50.1441 C.3       0 UNK        -0.1800 
      2 C           0.1229  -16.0681  -48.8191 C.2       0 UNK         0.5000 
      3 O          -0.1648  -16.8772  -47.9374 O.2       0 UNK        -0.5000 
      4 N          -0.0246  -14.7452  -48.6672 N.am      1 UNK        -0.5000 
      5 CA         -0.7015  -14.0788  -47.5425 C.3       1 UNK         0.1400 
      6 C6         -0.9656  -12.5754  -47.8158 C.3       23 UNK        -0.0398 
      7 S7         -1.6756  -12.1726  -49.4523 S.3       23 UNK        -0.2404 
      8 C8         -3.2647  -13.0690  -49.4659 C.3       23 UNK        -0.0205 
      9 C9         -3.1420  -14.4290  -50.1404 C.ar      23 UNK        -0.0193 
     10 C10        -2.8228  -14.5076  -51.5001 C.ar      23 UNK        -0.1150 
     11 C11        -2.6752  -15.7478  -52.1263 C.ar      23 UNK        -0.0193 
     12 C12        -2.8644  -16.9153  -51.3851 C.ar      23 UNK        -0.1150 
     13 C13        -3.2000  -16.8553  -50.0311 C.ar      23 UNK        -0.0193 
     14 C14        -3.3416  -15.6076  -49.4148 C.ar      23 UNK        -0.1150 
     15 C15        -3.3521  -18.1379  -49.2277 C.3       23 UNK        -0.0205 
     16 S16        -4.9999  -18.2756  -48.4611 S.3       23 UNK        -0.2404 
     17 C17        -5.0125  -19.9503  -47.7209 C.3       23 UNK        -0.0398 
     18 CA         -3.6702  -20.4560  -47.1339 C.3       11 UNK         0.1400 
     19 N          -3.0777  -19.4898  -46.2099 N.am      11 UNK        -0.5000 
     20 C          -1.8889  -19.5835  -45.6005 C.2       10 UNK         0.5000 
     21 O          -1.1521  -20.5688  -45.6744 O.2       10 UNK        -0.5000 
     22 CA         -1.4702  -18.3738  -44.7417 C.3       10 UNK         0.1400 
     23 CB         -2.1992  -17.0695  -45.1317 C.3       10 UNK        -0.1800 
     24 N          -1.6324  -18.5782  -43.3004 N.am      10 UNK        -0.5000 
     25 C          -2.7011  -19.0707  -42.6500 C.2       9 UNK         0.5000 
     26 O          -3.6389  -19.6632  -43.1858 O.2       9 UNK        -0.5000 
     27 CA         -2.7593  -18.7898  -41.1342 C.3       9 UNK         0.1400 
     28 CB         -2.1465  -19.9500  -40.3360 C.3       9 UNK        -0.1800 
     29 N          -2.0981  -17.5344  -40.7581 N.am      9 UNK        -0.5000 
     30 C          -2.4627  -16.3130  -41.1821 C.2       8 UNK         0.5000 
     31 O          -3.4751  -16.1051  -41.8516 O.2       8 UNK        -0.5000 
     32 CA         -1.5534  -15.1202  -40.8157 C.3       8 UNK         0.1400 
     33 CB         -2.3140  -14.1019  -39.9505 C.3       8 UNK        -0.1800 
     34 N          -0.3140  -15.4833  -40.1227 N.am      8 UNK        -0.5000 
     35 C           0.7417  -16.0992  -40.6688 C.2       7 UNK         0.5000 
     36 O           0.7773  -16.5070  -41.8329 O.2       7 UNK        -0.5000 
     37 CA          1.9175  -16.3521  -39.7102 C.3       7 UNK         0.1400 
     38 CB          1.6669  -17.6162  -38.8718 C.3       7 UNK        -0.1800 
     39 N           3.1895  -16.4962  -40.4138 N.am      7 UNK        -0.5000 
     40 C           3.9271  -15.4674  -40.8618 C.2       6 UNK         0.5000 
     41 O           3.5693  -14.2933  -40.7556 O.2       6 UNK        -0.5000 
     42 CA          5.3012  -15.7671  -41.4984 C.3       6 UNK         0.1400 
     43 CB          6.4400  -15.1140  -40.6916 C.3       6 UNK        -0.1800 
     44 N           5.5481  -17.1998  -41.6291 N.am      6 UNK        -0.5000 
     45 C           6.3813  -17.7916  -42.4873 C.2       5 UNK         0.5000 
     46 O           7.1490  -17.1859  -43.2363 O.2       5 UNK        -0.5000 
     47 CA          6.3267  -19.3319  -42.5289 C.3       5 UNK         0.1400 
     48 CB          6.8880  -19.9602  -41.2381 C.3       5 UNK        -0.1800 
     49 N           4.9910  -19.8522  -42.8514 N.am      5 UNK        -0.5000 
     50 C           3.8486  -19.7598  -42.1558 C.2       4 UNK         0.5000 
     51 O           3.7692  -19.2600  -41.0311 O.2       4 UNK        -0.5000 
     52 CA          2.5772  -20.2515  -42.8782 C.3       4 UNK         0.1400 
     53 CB          1.3165  -20.1491  -42.0038 C.3       4 UNK        -0.1800 
     54 N           2.3472  -19.4961  -44.1104 N.am      4 UNK        -0.5000 
     55 C           2.9958  -19.6826  -45.2672 C.2       3 UNK         0.5000 
     56 O           3.8220  -20.5806  -45.4373 O.2       3 UNK        -0.5000 
     57 CA          2.7173  -18.6908  -46.4146 C.3       3 UNK         0.1400 
     58 CB          1.8312  -19.3510  -47.4829 C.3       3 UNK        -0.1800 
     59 N           2.1263  -17.4077  -46.0064 N.am      3 UNK        -0.5000 
     60 C           2.7173  -16.5026  -45.2057 C.2       2 UNK         0.5000 
     61 O           3.8155  -16.6834  -44.6804 O.2       2 UNK        -0.5000 
     62 CA          1.9706  -15.1747  -44.9726 C.3       2 UNK         0.1400 
     63 CB          2.9026  -14.0157  -44.5738 C.3       2 UNK        -0.1800 
     64 N           1.2141  -14.8022  -46.1641 N.am      2 UNK        -0.5000 
     65 C          -0.0083  -14.2597  -46.1710 C.2       1 UNK         0.5000 
     66 O          -0.5999  -13.9090  -45.1495 O.2       1 UNK        -0.5000 
     67 C          -3.8558  -21.8587  -46.5220 C.2       11 UNK         0.5000 
     68 O          -3.8354  -22.8354  -47.2705 O.2       11 UNK        -0.5000 
     69 N          -4.0028  -21.9452  -45.1909 N.am      12 UNK        -0.5000 
     70 CA         -4.1125  -23.2049  -44.4544 C.3       12 UNK         0.1400 
     71 CB         -4.5050  -22.9155  -42.9979 C.3       12 UNK        -0.1800 
     72 C          -2.8202  -24.0400  -44.5101 C.2       12 UNK         0.5000 
     73 O          -2.8952  -25.2614  -44.6437 O.2       12 UNK        -0.5000 
     74 N          -1.6610  -23.3689  -44.4470 N.am      13 UNK        -0.5000 
     75 CA         -0.3436  -23.9986  -44.5613 C.3       13 UNK         0.1400 
     76 CB          0.7184  -23.0750  -43.9557 C.3       13 UNK        -0.1800 
     77 C           0.0075  -24.3417  -46.0182 C.2       13 UNK         0.5000 
     78 O           0.6846  -25.3401  -46.2629 O.2       13 UNK        -0.5000 
     79 N          -0.4909  -23.5284  -46.9592 N.am      14 UNK        -0.5000 
     80 CA         -0.3729  -23.7506  -48.4013 C.3       14 UNK         0.1400 
     81 CB         -0.5988  -22.4149  -49.1282 C.3       14 UNK        -0.1800 
     82 C          -1.3469  -24.8223  -48.9363 C.2       14 UNK         0.5000 
     83 O          -1.2832  -25.1429  -50.1226 O.2       14 UNK        -0.5000 
     84 N          -2.2609  -25.3160  -48.0846 N.am      15 UNK        -0.5000 
     85 CA         -3.3401  -26.2672  -48.3826 C.3       15 UNK         0.1400 
     86 CB         -2.7592  -27.6653  -48.6773 C.3       15 UNK        -0.1800 
     87 C          -4.2896  -25.7637  -49.4928 C.2       15 UNK         0.5000 
     88 O          -4.7720  -26.5536  -50.3056 O.2       15 UNK        -0.5000 
     89 N          -4.4950  -24.4384  -49.5218 N.am      16 UNK        -0.5000 
     90 CA         -5.2329  -23.6460  -50.5100 C.3       16 UNK         0.1400 
     91 CB         -6.7288  -24.0171  -50.5087 C.3       16 UNK        -0.1800 
     92 C          -4.6383  -23.6543  -51.9366 C.2       16 UNK         0.5000 
     93 O          -5.2433  -23.0618  -52.8305 O.2       16 UNK        -0.5000 
     94 N          -3.4629  -24.2686  -52.1458 N.am      17 UNK        -0.5000 
     95 CA         -2.8151  -24.3717  -53.4572 C.3       17 UNK         0.1400 
     96 CB         -1.6503  -25.3695  -53.3885 C.3       17 UNK        -0.1800 
     97 C          -2.3351  -23.0104  -53.9873 C.2       17 UNK         0.5000 
     98 O          -2.4585  -22.7446  -55.1824 O.2       17 UNK        -0.5000 
     99 N          -1.8446  -22.1545  -53.0791 N.am      18 UNK        -0.5000 
    100 CA        -1.4636  -20.7731  -53.3745 C.3       18 UNK         0.1400 
    101 CB        -0.7311  -20.1676  -52.1664 C.3       18 UNK        -0.1800 
    102 C         -2.6774  -19.9110  -53.7601 C.2       18 UNK         0.5000 
    103 O         -2.5886  -19.1232  -54.7001 O.2       18 UNK        -0.5000 
    104 N         -3.7944  -20.0989  -53.0416 N.am      19 UNK        -0.5000 
    105 CA        -5.0602  -19.4041  -53.2806 C.3       19 UNK         0.1400 
    106 CB        -6.0230  -19.6662  -52.1132 C.3       19 UNK        -0.1800 
    107 C         -5.6929  -19.8059  -54.6227 C.2       19 UNK         0.5000 
    108 O         -6.1694  -18.9405  -55.3568 O.2       19 UNK        -0.5000 
    109 N         -5.6385  -21.1064  -54.9418 N.am      20 UNK        -0.5000 
    110 CA        -6.0572  -21.6649  -56.2268 C.3       20 UNK         0.1400 
    111 CB        -6.0192  -23.1986  -56.1494 C.3       20 UNK        -0.1800 
    112 C         -5.2080  -21.1560  -57.4080 C.2       20 UNK         0.5000 
    113 O         -5.7439  -20.9822  -58.5032 O.2       20 UNK        -0.5000 
    114 N         -3.9118  -20.9146  -57.1651 N.am      21 UNK        -0.5000 
    115 CA        -2.9815  -20.3516  -58.1393 C.3       21 UNK         0.1400 
    116 CB        -1.5321  -20.6018  -57.6933 C.3       21 UNK        -0.1800 
    117 C         -3.2372  -18.8569  -58.4043 C.2       21 UNK         0.5000 
    118 O         -3.3381  -18.4720  -59.5708 O.2       21 UNK        -0.5000 
    119 N         -3.3278  -18.0403  -57.3424 N.am      22 UNK        -0.5000 
    120 CA        -3.5512  -16.5878  -57.4675 C.3       22 UNK         0.1400 
    121 C         -5.0180  -16.1666  -57.7726 C.2       22 UNK         0.5000 
    122 N         -6.0249  -16.9686  -57.4515 N.am      22 UNK        -0.7600 
    123 O         -5.2444  -15.0975  -58.3335 O.2       22 UNK        -0.5000 
    124 C124       -2.9218  -15.7707  -56.3097 C.3       23 UNK        -0.0398 
    125 S125       -3.7271  -15.9499  -54.6797 S.3       23 UNK        -0.2404 
    126 C126       -2.2759  -15.8269  -53.5908 C.3       23 UNK        -0.0205 
    127 H127        1.7283  -16.8566  -50.0240 H         1 UNK         0.0600 
    128 H128        0.6353  -15.7848  -50.9117 H         1 UNK         0.0600 
    129 H129        0.1197  -17.4188  -50.4950 H         1 UNK         0.0600 
    130 H130        0.2293  -14.1336  -49.4301 H         1 UNK         0.3000 
    131 H131       -1.6715  -14.5636  -47.4332 H         1 UNK         0.0600 
    132 H132       -0.0340  -12.0129  -47.7302 H         1 UNK         0.0800 
    133 H133       -1.6316  -12.1656  -47.0541 H         1 UNK         0.0800 
    134 H134       -3.9955  -12.4741  -50.0152 H         1 UNK         0.0800 
    135 H135       -3.6500  -13.1625  -48.4495 H         1 UNK         0.0800 
    136 H136       -2.6696  -13.5993  -52.0659 H         1 UNK         0.1150 
    137 H137       -2.7343  -17.8721  -51.8625 H         1 UNK         0.1150 
    138 H138       -3.5922  -15.5608  -48.3647 H         1 UNK         0.1150 
    139 H139       -3.1840  -19.0091  -49.8620 H         1 UNK         0.0800 
    140 H140       -2.5748  -18.1482  -48.4643 H         1 UNK         0.0800 
    141 H141       -5.3650  -20.6394  -48.4905 H         1 UNK         0.0800 
    142 H142       -5.7832  -19.9496  -46.9476 H         1 UNK         0.0800 
    143 H143       -2.9632  -20.5741  -47.9547 H         1 UNK         0.0600 
    144 H144       -3.6225  -18.6551  -46.0490 H         1 UNK         0.3000 
    145 H145       -0.4057  -18.2263  -44.9226 H         1 UNK         0.0600 
    146 H146       -1.7771  -16.2220  -44.5934 H         1 UNK         0.0600 
    147 H147       -2.1066  -16.8569  -46.1966 H         1 UNK         0.0600 
    148 H148       -3.2621  -17.1021  -44.8892 H         1 UNK         0.0600 
    149 H149       -0.9294  -18.1291  -42.7293 H         1 UNK         0.3000 
    150 H150       -3.8129  -18.7067  -40.8600 H         1 UNK         0.0600 
    151 H151       -2.6105  -20.8996  -40.6060 H         1 UNK         0.0600 
    152 H152       -2.2947  -19.8110  -39.2650 H         1 UNK         0.0600 
    153 H153       -1.0762  -20.0446  -40.5147 H         1 UNK         0.0600 
    154 H154       -1.2656  -17.6091  -40.1939 H         1 UNK         0.3000 
    155 H155       -1.2813  -14.6327  -41.7546 H         1 UNK         0.0600 
    156 H156       -2.6103  -14.5307  -38.9924 H         1 UNK         0.0600 
    157 H157       -3.2208  -13.7590  -40.4508 H         1 UNK         0.0600 
    158 H158       -1.7051  -13.2199  -39.7511 H         1 UNK         0.0600 
    159 H159       -0.2633  -15.2130  -39.1508 H         1 UNK         0.3000 
    160 H160        1.9937  -15.5030  -39.0273 H         1 UNK         0.0600 
    161 H161        1.5775  -18.5069  -39.4929 H         1 UNK         0.0600 
    162 H162        0.7489  -17.5294  -38.2896 H         1 UNK         0.0600 
    163 H163        2.4804  -17.7859  -38.1661 H         1 UNK         0.0600 
    164 H164        3.4690  -17.4531  -40.5963 H         1 UNK         0.3000 
    165 H165        5.2847  -15.3299  -42.4985 H         1 UNK         0.0600 
    166 H166        7.4043  -15.2489  -41.1815 H         1 UNK         0.0600 
    167 H167        6.2825  -14.0400  -40.5855 H         1 UNK         0.0600 
    168 H168        6.5112  -15.5375  -39.6892 H         1 UNK         0.0600 
    169 H169        4.9507  -17.8190  -41.0923 H         1 UNK         0.3000 
    170 H170        6.9722  -19.6471  -43.3502 H         1 UNK         0.0600 
    171 H171        7.9107  -19.6265  -41.0591 H         1 UNK         0.0600 
    172 H172        6.3022  -19.6940  -40.3582 H         1 UNK         0.0600 
    173 H173        6.9088  -21.0477  -41.3084 H         1 UNK         0.0600 
    174 H174        4.9016  -20.2328  -43.7888 H         1 UNK         0.3000 
    175 H175        2.7357  -21.3029  -43.1226 H         1 UNK         0.0600 
    176 H176        1.1113  -19.1190  -41.7181 H         1 UNK         0.0600 
    177 H177        0.4384  -20.5236  -42.5287 H         1 UNK         0.0600 
    178 H178        1.4248  -20.7326  -41.0888 H         1 UNK         0.0600 
    179 H179        1.7374  -18.6967  -44.0367 H         1 UNK         0.3000 
    180 H180        3.6833  -18.4705  -46.8733 H         1 UNK         0.0600 
    181 H181        1.7994  -18.7532  -48.3926 H         1 UNK         0.0600 
    182 H182        0.8081  -19.4832  -47.1332 H         1 UNK         0.0600 
    183 H183        2.2112  -20.3347  -47.7622 H         1 UNK         0.0600 
    184 H184        1.2337  -17.1792  -46.4317 H         1 UNK         0.3000 
    185 H185        1.2807  -15.3584  -44.1474 H         1 UNK         0.0600 
    186 H186        2.3398  -13.0971  -44.4075 H         1 UNK         0.0600 
    187 H187        3.4318  -14.2377  -43.6479 H         1 UNK         0.0600 
    188 H188        3.6489  -13.8184  -45.3439 H         1 UNK         0.0600 
    189 H189        1.6247  -15.0568  -47.0517 H         1 UNK         0.3000 
    190 H190       -3.9777  -21.0944  -44.6365 H         1 UNK         0.3000 
    191 H191       -4.9105  -23.7934  -44.9122 H         1 UNK         0.0600 
    192 H192       -4.6517  -23.8424  -42.4421 H         1 UNK         0.0600 
    193 H193       -5.4367  -22.3523  -42.9442 H         1 UNK         0.0600 
    194 H194       -3.7363  -22.3411  -42.4800 H         1 UNK         0.0600 
    195 H195       -1.6797  -22.3575  -44.4097 H         1 UNK         0.3000 
    196 H196       -0.3464  -24.9297  -43.9903 H         1 UNK         0.0600 
    197 H197        0.7503  -22.1121  -44.4666 H         1 UNK         0.0600 
    198 H198        0.5218  -22.8968  -42.8989 H         1 UNK         0.0600 
    199 H199        1.7119  -23.5191  -44.0305 H         1 UNK         0.0600 
    200 H200       -1.0031  -22.7083  -46.6616 H         1 UNK         0.3000 
    201 H201        0.6418  -24.0897  -48.6196 H         1 UNK         0.0600 
    202 H202       -1.6359  -22.0898  -49.0571 H         1 UNK         0.0600 
    203 H203       -0.3580  -22.5082  -50.1873 H         1 UNK         0.0600 
    204 H204        0.0329  -21.6251  -48.7210 H         1 UNK         0.0600 
    205 H205       -2.2596  -24.9483  -47.1435 H         1 UNK         0.3000 
    206 H206       -3.9425  -26.3406  -47.4760 H         1 UNK         0.0600 
    207 H207       -2.1004  -27.9946  -47.8738 H         1 UNK         0.0600 
    208 H208       -3.5525  -28.4078  -48.7701 H         1 UNK         0.0600 
    209 H209       -2.1879  -27.6787  -49.6061 H         1 UNK         0.0600 
    210 H210       -4.0835  -23.8967  -48.7637 H         1 UNK         0.3000 
    211 H211       -5.1558  -22.6130  -50.1688 H         1 UNK         0.0600 
    212 H212       -7.3046  -23.3271  -51.1267 H         1 UNK         0.0600 
    213 H213       -7.1449  -23.9724  -49.5023 H         1 UNK         0.0600 
    214 H214       -6.8984  -25.0209  -50.8990 H         1 UNK         0.0600 
    215 H215       -2.9915  -24.7192  -51.3700 H         1 UNK         0.3000 
    216 H216       -3.5516  -24.7623  -54.1626 H         1 UNK         0.0600 
    217 H217       -0.8481  -25.0111  -52.7427 H         1 UNK         0.0600 
    218 H218       -1.2225  -25.5349  -54.3780 H         1 UNK         0.0600 
    219 H219       -1.9796  -26.3371  -53.0093 H         1 UNK         0.0600 
    220 H220       -1.7684  -22.4639  -52.1222 H         1 UNK         0.3000 
    221 H221       -0.7763  -20.7817  -54.2232 H         1 UNK         0.0600 
    222 H222        0.1802  -20.7214  -51.9404 H         1 UNK         0.0600 
    223 H223       -1.3534  -20.1650  -51.2710 H         1 UNK         0.0600 
    224 H224       -0.4392  -19.1356  -52.3661 H         1 UNK         0.0600 
    225 H225       -3.7945  -20.8069  -52.3248 H         1 UNK         0.3000 
    226 H226       -4.8570  -18.3325  -53.3143 H         1 UNK         0.0600 
    227 H227       -6.2770  -20.7220  -52.0205 H         1 UNK         0.0600 
    228 H228       -5.5907  -19.3403  -51.1685 H         1 UNK         0.0600 
    229 H229       -6.9550  -19.1164  -52.2490 H         1 UNK         0.0600 
    230 H230       -5.2885  -21.7654  -54.2518 H         1 UNK         0.3000 
    231 H231       -7.0898  -21.3571  -56.4035 H         1 UNK         0.0600 
    232 H232       -5.0107  -23.5663  -55.9586 H         1 UNK         0.0600 
    233 H233       -6.3612  -23.6456  -57.0836 H         1 UNK         0.0600 
    234 H234       -6.6660  -23.5696  -55.3541 H         1 UNK         0.0600 
    235 H235       -3.5380  -21.1323  -56.2499 H         1 UNK         0.3000 
    236 H236       -3.1257  -20.8822  -59.0830 H         1 UNK         0.0600 
    237 H237       -1.3357  -21.6675  -57.5748 H         1 UNK         0.0600 
    238 H238       -0.8271  -20.2218  -58.4335 H         1 UNK         0.0600 
    239 H239       -1.3044  -20.1140  -56.7464 H         1 UNK         0.0600 
    240 H240       -3.2194  -18.4118  -56.4022 H         1 UNK         0.3000 
    241 H241       -2.9935  -16.2721  -58.3520 H         1 UNK         0.0600 
    242 H242       -6.9668  -16.6844  -57.6659 H         1 UNK         0.3800 
    243 H243       -5.8742  -17.7961  -56.8818 H         1 UNK         0.3800 
    244 H244       -2.9234  -14.7093  -56.5634 H         1 UNK         0.0800 
    245 H245       -1.8701  -16.0455  -56.2188 H         1 UNK         0.0800 
    246 H246       -1.6923  -14.9460  -53.8630 H         1 UNK         0.0800 
    247 H247       -1.6269  -16.6888  -53.7540 H         1 UNK         0.0800 
@<TRIPOS>BOND
     1    1    2 1    
     2    1  127 1    
     3    1  128 1    
     4    1  129 1    
     5    2    3 2    
     6    2    4 am   BACKBONE|DICT|INTERRES
     7    4    5 1    
     8    4  130 1    
     9    5    6 1    
    10    5   65 1    
    11    5  131 1    
    12    6    7 1    
    13    6  132 1    
    14    6  133 1    
    15    7    8 1    
    16    8    9 1    
    17    8  134 1    
    18    8  135 1    
    19    9   10 ar   
    20    9   14 ar   
    21   10   11 ar   
    22   10  136 1    
    23   11   12 ar   
    24   11  126 1    
    25   12   13 ar   
    26   12  137 1    
    27   13   14 ar   
    28   13   15 1    
    29   14  138 1    
    30   15   16 1    
    31   15  139 1    
    32   15  140 1    
    33   16   17 1    
    34   17   18 1    
    35   17  141 1    
    36   17  142 1    
    37   18   19 1    
    38   18   67 1    
    39   18  143 1    
    40   19   20 am   BACKBONE|DICT|INTERRES
    41   19  144 1    
    42   20   21 2    
    43   20   22 1    
    44   22   23 1    
    45   22   24 1    
    46   22  145 1    
    47   23  146 1    
    48   23  147 1    
    49   23  148 1    
    50   24   25 am   BACKBONE|DICT|INTERRES
    51   24  149 1    
    52   25   26 2    
    53   25   27 1    
    54   27   28 1    
    55   27   29 1    
    56   27  150 1    
    57   28  151 1    
    58   28  152 1    
    59   28  153 1    
    60   29   30 am   BACKBONE|DICT|INTERRES
    61   29  154 1    
    62   30   31 2    
    63   30   32 1    
    64   32   33 1    
    65   32   34 1    
    66   32  155 1    
    67   33  156 1    
    68   33  157 1    
    69   33  158 1    
    70   34   35 am   BACKBONE|DICT|INTERRES
    71   34  159 1    
    72   35   36 2    
    73   35   37 1    
    74   37   38 1    
    75   37   39 1    
    76   37  160 1    
    77   38  161 1    
    78   38  162 1    
    79   38  163 1    
    80   39   40 am   BACKBONE|DICT|INTERRES
    81   39  164 1    
    82   40   41 2    
    83   40   42 1    
    84   42   43 1    
    85   42   44 1    
    86   42  165 1    
    87   43  166 1    
    88   43  167 1    
    89   43  168 1    
    90   44   45 am   BACKBONE|DICT|INTERRES
    91   44  169 1    
    92   45   46 2    
    93   45   47 1    
    94   47   48 1    
    95   47   49 1    
    96   47  170 1    
    97   48  171 1    
    98   48  172 1    
    99   48  173 1    
   100   49   50 am   BACKBONE|DICT|INTERRES
   101   49  174 1    
   102   50   51 2    
   103   50   52 1    
   104   52   53 1    
   105   52   54 1    
   106   52  175 1    
   107   53  176 1    
   108   53  177 1    
   109   53  178 1    
   110   54   55 am   BACKBONE|DICT|INTERRES
   111   54  179 1    
   112   55   56 2    
   113   55   57 1    
   114   57   58 1    
   115   57   59 1    
   116   57  180 1    
   117   58  181 1    
   118   58  182 1    
   119   58  183 1    
   120   59   60 am   BACKBONE|DICT|INTERRES
   121   59  184 1    
   122   60   61 2    
   123   60   62 1    
   124   62   63 1    
   125   62   64 1    
   126   62  185 1    
   127   63  186 1    
   128   63  187 1    
   129   63  188 1    
   130   64   65 am   BACKBONE|DICT|INTERRES
   131   64  189 1    
   132   65   66 2    
   133   67   68 2    
   134   67   69 am   BACKBONE|DICT|INTERRES
   135   69   70 1    
   136   69  190 1    
   137   70   71 1    
   138   70   72 1    
   139   70  191 1    
   140   71  192 1    
   141   71  193 1    
   142   71  194 1    
   143   72   73 2    
   144   72   74 am   BACKBONE|DICT|INTERRES
   145   74   75 1    
   146   74  195 1    
   147   75   76 1    
   148   75   77 1    
   149   75  196 1    
   150   76  197 1    
   151   76  198 1    
   152   76  199 1    
   153   77   78 2    
   154   77   79 am   BACKBONE|DICT|INTERRES
   155   79   80 1    
   156   79  200 1    
   157   80   81 1    
   158   80   82 1    
   159   80  201 1    
   160   81  202 1    
   161   81  203 1    
   162   81  204 1    
   163   82   83 2    
   164   82   84 am   BACKBONE|DICT|INTERRES
   165   84   85 1    
   166   84  205 1    
   167   85   86 1    
   168   85   87 1    
   169   85  206 1    
   170   86  207 1    
   171   86  208 1    
   172   86  209 1    
   173   87   88 2    
   174   87   89 am   BACKBONE|DICT|INTERRES
   175   89   90 1    
   176   89  210 1    
   177   90   91 1    
   178   90   92 1    
   179   90  211 1    
   180   91  212 1    
   181   91  213 1    
   182   91  214 1    
   183   92   93 2    
   184   92   94 am   BACKBONE|DICT|INTERRES
   185   94   95 1    
   186   94  215 1    
   187   95   96 1    
   188   95   97 1    
   189   95  216 1    
   190   96  217 1    
   191   96  218 1    
   192   96  219 1    
   193   97   98 2    
   194   97   99 am   BACKBONE|DICT|INTERRES
   195   99  100 1    
   196   99  220 1    
   197  100  101 1    
   198  100  102 1    
   199  100  221 1    
   200  101  222 1    
   201  101  223 1    
   202  101  224 1    
   203  102  103 2    
   204  102  104 am   BACKBONE|DICT|INTERRES
   205  104  105 1    
   206  104  225 1    
   207  105  106 1    
   208  105  107 1    
   209  105  226 1    
   210  106  227 1    
   211  106  228 1    
   212  106  229 1    
   213  107  108 2    
   214  107  109 am   BACKBONE|DICT|INTERRES
   215  109  110 1    
   216  109  230 1    
   217  110  111 1    
   218  110  112 1    
   219  110  231 1    
   220  111  232 1    
   221  111  233 1    
   222  111  234 1    
   223  112  113 2    
   224  112  114 am   BACKBONE|DICT|INTERRES
   225  114  115 1    
   226  114  235 1    
   227  115  116 1    
   228  115  117 1    
   229  115  236 1    
   230  116  237 1    
   231  116  238 1    
   232  116  239 1    
   233  117  118 2    
   234  117  119 am   BACKBONE|DICT|INTERRES
   235  119  120 1    
   236  119  240 1    
   237  120  121 1    
   238  120  124 1    
   239  120  241 1    
   240  121  122 am   BACKBONE|DICT|INTERRES
   241  121  123 2    
   242  122  242 1    
   243  122  243 1    
   244  124  125 1    
   245  124  244 1    
   246  124  245 1    
   247  125  126 1    
   248  126  246 1    
   249  126  247 1    
@<TRIPOS>SUBSTRUCTURE
     1 UNK         1 GROUP             0       ****    0 ROOT    
