@<TRIPOS>MOLECULE
3R540
247   249    1
SMALL
USER_CHARGES


@<TRIPOS>ATOM
      1 CA          1.1990  -12.6548  -46.7759 C.3       0 UNK        -0.1800 
      2 C           2.7129  -12.7912  -46.7518 C.2       0 UNK         0.5000 
      3 O           3.4193  -11.8142  -47.0004 O.2       0 UNK        -0.5000 
      4 N           3.2108  -13.9985  -46.4518 N.am      1 UNK        -0.5000 
      5 CA          4.6301  -14.3846  -46.5073 C.3       1 UNK         0.1400 
      6 C6          4.8459  -15.9017  -46.2699 C.3       23 UNK        -0.0398 
      7 S7          3.6351  -16.9696  -47.1144 S.3       23 UNK        -0.2404 
      8 C8          4.3332  -17.1038  -48.7862 C.3       23 UNK        -0.0205 
      9 C9          3.5071  -18.0754  -49.6126 C.ar      23 UNK        -0.0193 
     10 C10         2.5867  -17.6166  -50.5597 C.ar      23 UNK        -0.1150 
     11 C11         1.7999  -18.5238  -51.2776 C.ar      23 UNK        -0.0193 
     12 C12         1.9197  -19.8933  -51.0222 C.ar      23 UNK        -0.1150 
     13 C13         2.8367  -20.3643  -50.0780 C.ar      23 UNK        -0.0193 
     14 C14         3.6457  -19.4478  -49.3985 C.ar      23 UNK        -0.1150 
     15 C15         2.9308  -21.8610  -49.7937 C.3       23 UNK        -0.0205 
     16 S16         3.1531  -22.2722  -48.0256 S.3       23 UNK        -0.2404 
     17 C17         1.7513  -21.3979  -47.2435 C.3       23 UNK        -0.0398 
     18 CA          0.5729  -22.3323  -46.8990 C.3       11 UNK         0.1400 
     19 N          -0.3281  -21.7280  -45.9165 N.am      11 UNK        -0.5000 
     20 C          -1.3171  -22.3856  -45.2958 C.2       10 UNK         0.5000 
     21 O          -1.5478  -23.5842  -45.4559 O.2       10 UNK        -0.5000 
     22 CA         -2.2250  -21.5585  -44.3708 C.3       10 UNK         0.1400 
     23 CB         -1.5552  -21.3452  -43.0055 C.3       10 UNK        -0.1800 
     24 N          -2.5923  -20.2661  -44.9510 N.am      10 UNK        -0.5000 
     25 C          -3.3342  -20.1193  -46.0589 C.2       9 UNK         0.5000 
     26 O          -3.8067  -21.0616  -46.6952 O.2       9 UNK        -0.5000 
     27 CA         -3.5491  -18.6820  -46.5662 C.3       9 UNK         0.1400 
     28 CB         -4.5964  -17.9544  -45.7112 C.3       9 UNK        -0.1800 
     29 N          -2.3153  -17.8965  -46.6016 N.am      9 UNK        -0.5000 
     30 C          -1.2303  -18.2084  -47.3250 C.2       8 UNK         0.5000 
     31 O          -1.1519  -19.1941  -48.0543 O.2       8 UNK        -0.5000 
     32 CA         -0.0025  -17.3020  -47.1574 C.3       8 UNK         0.1400 
     33 CB         -0.1306  -16.0166  -47.9874 C.3       8 UNK        -0.1800 
     34 N           0.2349  -16.9617  -45.7563 N.am      8 UNK        -0.5000 
     35 C           0.6238  -17.8411  -44.8228 C.2       7 UNK         0.5000 
     36 O           0.8352  -19.0346  -45.0415 O.2       7 UNK        -0.5000 
     37 CA          0.7449  -17.2913  -43.3918 C.3       7 UNK         0.1400 
     38 CB          2.0324  -16.4658  -43.2327 C.3       7 UNK        -0.1800 
     39 N          -0.4128  -16.4758  -43.0197 N.am      7 UNK        -0.5000 
     40 C          -1.6580  -16.9580  -42.8794 C.2       6 UNK         0.5000 
     41 O          -1.9527  -18.1429  -43.0295 O.2       6 UNK        -0.5000 
     42 CA         -2.7744  -15.9476  -42.5553 C.3       6 UNK         0.1400 
     43 CB         -2.9127  -15.7723  -41.0359 C.3       6 UNK        -0.1800 
     44 N          -2.5779  -14.6368  -43.1723 N.am      6 UNK        -0.5000 
     45 C          -2.4531  -14.4007  -44.4860 C.2       5 UNK         0.5000 
     46 O          -2.5177  -15.2750  -45.3504 O.2       5 UNK        -0.5000 
     47 CA         -2.1624  -12.9458  -44.8986 C.3       5 UNK         0.1400 
     48 CB         -3.4642  -12.2316  -45.2895 C.3       5 UNK        -0.1800 
     49 N          -1.4720  -12.1587  -43.8697 N.am      5 UNK        -0.5000 
     50 C          -0.2634  -12.4354  -43.3612 C.2       4 UNK         0.5000 
     51 O           0.4065  -13.4226  -43.6752 O.2       4 UNK        -0.5000 
     52 CA          0.2822  -11.4513  -42.3127 C.3       4 UNK         0.1400 
     53 CB          0.5748  -12.1745  -40.9886 C.3       4 UNK        -0.1800 
     54 N           1.5057  -10.8141  -42.7887 N.am      4 UNK        -0.5000 
     55 C           1.5883   -9.9424  -43.8007 C.2       3 UNK         0.5000 
     56 O           0.6043   -9.4956  -44.3911 O.2       3 UNK        -0.5000 
     57 CA          2.9971   -9.5109  -44.2570 C.3       3 UNK         0.1400 
     58 CB          3.4542   -8.2298  -43.5335 C.3       3 UNK        -0.1800 
     59 N           4.0117  -10.5729  -44.1840 N.am      3 UNK        -0.5000 
     60 C           4.5657  -11.1485  -43.1055 C.2       2 UNK         0.5000 
     61 O           4.2879  -10.8386  -41.9464 O.2       2 UNK        -0.5000 
     62 CA          5.5286  -12.3154  -43.3860 C.3       2 UNK         0.1400 
     63 CB          5.8428  -13.1547  -42.1338 C.3       2 UNK        -0.1800 
     64 N           4.9339  -13.1777  -44.4029 N.am      2 UNK        -0.5000 
     65 C           5.5196  -13.5791  -45.5363 C.2       1 UNK         0.5000 
     66 O           6.6888  -13.3336  -45.8353 O.2       1 UNK        -0.5000 
     67 C          -0.1875  -22.7912  -48.1597 C.2       11 UNK         0.5000 
     68 O           0.0081  -23.9227  -48.6024 O.2       11 UNK        -0.5000 
     69 N          -1.0752  -21.9330  -48.6825 N.am      12 UNK        -0.5000 
     70 CA         -1.9547  -22.2293  -49.8115 C.3       12 UNK         0.1400 
     71 CB         -2.7668  -20.9823  -50.1831 C.3       12 UNK        -0.1800 
     72 C          -2.8864  -23.4200  -49.5390 C.2       12 UNK         0.5000 
     73 O          -3.0036  -24.2920  -50.3975 O.2       12 UNK        -0.5000 
     74 N          -3.4842  -23.4628  -48.3384 N.am      13 UNK        -0.5000 
     75 CA         -4.3206  -24.5669  -47.8653 C.3       13 UNK         0.1400 
     76 CB         -4.9466  -24.2053  -46.5087 C.3       13 UNK        -0.1800 
     77 C          -3.5508  -25.8956  -47.7583 C.2       13 UNK         0.5000 
     78 O          -4.0604  -26.9252  -48.2007 O.2       13 UNK        -0.5000 
     79 N          -2.3351  -25.8451  -47.1949 N.am      14 UNK        -0.5000 
     80 CA         -1.4391  -26.9933  -47.0452 C.3       14 UNK         0.1400 
     81 CB         -0.2594  -26.6084  -46.1392 C.3       14 UNK        -0.1800 
     82 C          -0.9364  -27.5411  -48.3936 C.2       14 UNK         0.5000 
     83 O          -0.8870  -28.7582  -48.5760 O.2       14 UNK        -0.5000 
     84 N          -0.5917  -26.6349  -49.3174 N.am      15 UNK        -0.5000 
     85 CA         -0.1569  -26.9545  -50.6776 C.3       15 UNK         0.1400 
     86 CB          0.5450  -25.7221  -51.2711 C.3       15 UNK        -0.1800 
     87 C          -1.3073  -27.4010  -51.6014 C.2       15 UNK         0.5000 
     88 O          -1.0404  -28.0393  -52.6202 O.2       15 UNK        -0.5000 
     89 N          -2.5472  -27.0285  -51.2479 N.am      16 UNK        -0.5000 
     90 CA         -3.7706  -27.1054  -52.0541 C.3       16 UNK         0.1400 
     91 CB         -4.1795  -28.5694  -52.3162 C.3       16 UNK        -0.1800 
     92 C          -3.6424  -26.2578  -53.3377 C.2       16 UNK         0.5000 
     93 O          -3.9749  -26.7151  -54.4329 O.2       16 UNK        -0.5000 
     94 N          -3.1215  -25.0391  -53.1666 N.am      17 UNK        -0.5000 
     95 CA         -2.7680  -24.1009  -54.2229 C.3       17 UNK         0.1400 
     96 CB         -1.2839  -24.3019  -54.5866 C.3       17 UNK        -0.1800 
     97 C          -3.0762  -22.6743  -53.7308 C.2       17 UNK         0.5000 
     98 O          -2.1473  -21.9493  -53.3774 O.2       17 UNK        -0.5000 
     99 N          -4.3442  -22.2487  -53.6644 N.am      18 UNK        -0.5000 
    100 CA        -5.5762  -22.9624  -53.9946 C.3       18 UNK         0.1400 
    101 CB        -6.3383  -22.1438  -55.0560 C.3       18 UNK        -0.1800 
    102 C         -6.3757  -23.2108  -52.7007 C.2       18 UNK         0.5000 
    103 O         -5.8138  -23.7207  -51.7300 O.2       18 UNK        -0.5000 
    104 N         -7.6709  -22.8710  -52.6969 N.am      19 UNK        -0.5000 
    105 CA        -8.6099  -23.0706  -51.5914 C.3       19 UNK         0.1400 
    106 CB       -10.0428  -23.0175  -52.1517 C.3       19 UNK        -0.1800 
    107 C         -8.3842  -22.0636  -50.4438 C.2       19 UNK         0.5000 
    108 O         -9.2152  -21.1820  -50.2197 O.2       19 UNK        -0.5000 
    109 N         -7.2443  -22.2119  -49.7553 N.am      20 UNK        -0.5000 
    110 CA        -6.7714  -21.4037  -48.6243 C.3       20 UNK         0.1400 
    111 CB        -7.6955  -21.5673  -47.3999 C.3       20 UNK        -0.1800 
    112 C         -6.5079  -19.9277  -48.9871 C.2       20 UNK         0.5000 
    113 O         -6.6526  -19.0425  -48.1437 O.2       20 UNK        -0.5000 
    114 N         -6.1042  -19.6943  -50.2378 N.am      21 UNK        -0.5000 
    115 CA        -5.6979  -18.4103  -50.7880 C.3       21 UNK         0.1400 
    116 CB        -6.9343  -17.5770  -51.1667 C.3       21 UNK        -0.1800 
    117 C         -4.8282  -18.6980  -52.0155 C.2       21 UNK         0.5000 
    118 O         -5.0334  -19.7200  -52.6750 O.2       21 UNK        -0.5000 
    119 N         -3.8788  -17.8033  -52.2990 N.am      22 UNK        -0.5000 
    120 CA        -2.9124  -17.9324  -53.4044 C.3       22 UNK         0.1400 
    121 C         -3.5005  -17.6747  -54.8250 C.2       22 UNK         0.5000 
    122 N         -4.7370  -17.2126  -54.9661 N.am      22 UNK        -0.7600 
    123 O         -2.8209  -17.9030  -55.8219 O.2       22 UNK        -0.5000 
    124 C124       -1.6608  -17.0515  -53.1578 C.3       23 UNK        -0.0398 
    125 S125       -0.7596  -17.5235  -51.6405 S.3       23 UNK        -0.2404 
    126 C126        0.8373  -18.0294  -52.3456 C.3       23 UNK        -0.0205 
    127 H127        0.8860  -11.8025  -46.1741 H         1 UNK         0.0600 
    128 H128        0.7127  -13.5467  -46.3826 H         1 UNK         0.0600 
    129 H129        0.8522  -12.4982  -47.7971 H         1 UNK         0.0600 
    130 H130        2.5761  -14.7627  -46.2712 H         1 UNK         0.3000 
    131 H131        4.9736  -14.1552  -47.5181 H         1 UNK         0.0600 
    132 H132        5.8530  -16.1959  -46.5705 H         1 UNK         0.0800 
    133 H133        4.7708  -16.1356  -45.2061 H         1 UNK         0.0800 
    134 H134        5.3656  -17.4521  -48.7305 H         1 UNK         0.0800 
    135 H135        4.3552  -16.1184  -49.2541 H         1 UNK         0.0800 
    136 H136        2.4778  -16.5558  -50.7362 H         1 UNK         0.1150 
    137 H137        1.2961  -20.5927  -51.5618 H         1 UNK         0.1150 
    138 H138        4.3586  -19.7969  -48.6650 H         1 UNK         0.1150 
    139 H139        2.0391  -22.3741  -50.1574 H         1 UNK         0.0800 
    140 H140        3.7710  -22.2697  -50.3559 H         1 UNK         0.0800 
    141 H141        1.4167  -20.5519  -47.8452 H         1 UNK         0.0800 
    142 H142        2.1468  -20.9602  -46.3263 H         1 UNK         0.0800 
    143 H143        0.9856  -23.2272  -46.4279 H         1 UNK         0.0600 
    144 H144       -0.1867  -20.7440  -45.7143 H         1 UNK         0.3000 
    145 H145       -3.1437  -22.1273  -44.2133 H         1 UNK         0.0600 
    146 H146       -1.2691  -22.2970  -42.5562 H         1 UNK         0.0600 
    147 H147       -0.6545  -20.7356  -43.0901 H         1 UNK         0.0600 
    148 H148       -2.2310  -20.8477  -42.3098 H         1 UNK         0.0600 
    149 H149       -2.2626  -19.4402  -44.4595 H         1 UNK         0.3000 
    150 H150       -3.9256  -18.7439  -47.5888 H         1 UNK         0.0600 
    151 H151       -5.5355  -18.5084  -45.6893 H         1 UNK         0.0600 
    152 H152       -4.8122  -16.9632  -46.1103 H         1 UNK         0.0600 
    153 H153       -4.2628  -17.8376  -44.6809 H         1 UNK         0.0600 
    154 H154       -2.3032  -17.0431  -46.0494 H         1 UNK         0.3000 
    155 H155        0.8605  -17.8583  -47.5292 H         1 UNK         0.0600 
    156 H156       -0.9254  -15.3688  -47.6168 H         1 UNK         0.0600 
    157 H157        0.8014  -15.4524  -47.9799 H         1 UNK         0.0600 
    158 H158       -0.3542  -16.2471  -49.0284 H         1 UNK         0.0600 
    159 H159        0.0062  -16.0224  -45.4674 H         1 UNK         0.3000 
    160 H160        0.7961  -18.1416  -42.7084 H         1 UNK         0.0600 
    161 H161        2.0412  -15.5951  -43.8889 H         1 UNK         0.0600 
    162 H162        2.9109  -17.0656  -43.4742 H         1 UNK         0.0600 
    163 H163        2.1508  -16.1125  -42.2083 H         1 UNK         0.0600 
    164 H164       -0.2583  -15.4794  -42.9300 H         1 UNK         0.3000 
    165 H165       -3.7121  -16.3537  -42.9376 H         1 UNK         0.0600 
    166 H166       -3.7578  -15.1299  -40.7875 H         1 UNK         0.0600 
    167 H167       -3.0813  -16.7323  -40.5459 H         1 UNK         0.0600 
    168 H168       -2.0156  -15.3329  -40.5978 H         1 UNK         0.0600 
    169 H169       -2.5081  -13.8498  -42.5449 H         1 UNK         0.3000 
    170 H170       -1.5205  -12.9816  -45.7795 H         1 UNK         0.0600 
    171 H171       -3.9916  -12.7802  -46.0712 H         1 UNK         0.0600 
    172 H172       -4.1422  -12.1366  -44.4404 H         1 UNK         0.0600 
    173 H173       -3.2651  -11.2315  -45.6753 H         1 UNK         0.0600 
    174 H174       -1.9422  -11.3180  -43.5660 H         1 UNK         0.3000 
    175 H175       -0.4609  -10.6740  -42.1226 H         1 UNK         0.0600 
    176 H176        1.3410  -12.9420  -41.1081 H         1 UNK         0.0600 
    177 H177        0.9192  -11.4755  -40.2261 H         1 UNK         0.0600 
    178 H178       -0.3213  -12.6619  -40.6024 H         1 UNK         0.0600 
    179 H179        2.3730  -11.0930  -42.3434 H         1 UNK         0.3000 
    180 H180        2.9127   -9.2704  -45.3181 H         1 UNK         0.0600 
    181 H181        3.5185   -8.3685  -42.4541 H         1 UNK         0.0600 
    182 H182        2.7527   -7.4141  -43.7124 H         1 UNK         0.0600 
    183 H183        4.4309   -7.9023  -43.8898 H         1 UNK         0.0600 
    184 H184        4.2616  -10.9604  -45.0866 H         1 UNK         0.3000 
    185 H185        6.4587  -11.8742  -43.7500 H         1 UNK         0.0600 
    186 H186        6.3141  -12.5461  -41.3611 H         1 UNK         0.0600 
    187 H187        4.9399  -13.5925  -41.7062 H         1 UNK         0.0600 
    188 H188        6.5296  -13.9680  -42.3689 H         1 UNK         0.0600 
    189 H189        3.9590  -13.4088  -44.2688 H         1 UNK         0.3000 
    190 H190       -1.1531  -20.9959  -48.2909 H         1 UNK         0.3000 
    191 H191       -1.3240  -22.4905  -50.6638 H         1 UNK         0.0600 
    192 H192       -3.3376  -20.6011  -49.3370 H         1 UNK         0.0600 
    193 H193       -3.4727  -21.2073  -50.9819 H         1 UNK         0.0600 
    194 H194       -2.1179  -20.1818  -50.5388 H         1 UNK         0.0600 
    195 H195       -3.3548  -22.6837  -47.6990 H         1 UNK         0.3000 
    196 H196       -5.1266  -24.7029  -48.5896 H         1 UNK         0.0600 
    197 H197       -5.6151  -24.9958  -46.1656 H         1 UNK         0.0600 
    198 H198       -5.5318  -23.2900  -46.5657 H         1 UNK         0.0600 
    199 H199       -4.1885  -24.0613  -45.7391 H         1 UNK         0.0600 
    200 H200       -2.0066  -24.9611  -46.8174 H         1 UNK         0.3000 
    201 H201       -1.9982  -27.7907  -46.5514 H         1 UNK         0.0600 
    202 H202       -0.6055  -26.2976  -45.1533 H         1 UNK         0.0600 
    203 H203        0.3227  -25.7888  -46.5617 H         1 UNK         0.0600 
    204 H204        0.4160  -27.4527  -45.9962 H         1 UNK         0.0600 
    205 H205       -0.5959  -25.6494  -49.0629 H         1 UNK         0.3000 
    206 H206        0.5663  -27.7711  -50.6290 H         1 UNK         0.0600 
    207 H207        1.4058  -25.4298  -50.6692 H         1 UNK         0.0600 
    208 H208        0.9059  -25.9224  -52.2807 H         1 UNK         0.0600 
    209 H209       -0.1295  -24.8665  -51.3260 H         1 UNK         0.0600 
    210 H210       -2.6299  -26.4576  -50.4157 H         1 UNK         0.3000 
    211 H211       -4.5585  -26.6423  -51.4577 H         1 UNK         0.0600 
    212 H212       -3.4661  -29.0847  -52.9596 H         1 UNK         0.0600 
    213 H213       -5.1530  -28.6182  -52.8051 H         1 UNK         0.0600 
    214 H214       -4.2557  -29.1284  -51.3835 H         1 UNK         0.0600 
    215 H215       -2.9672  -24.7161  -52.2124 H         1 UNK         0.3000 
    216 H216       -3.3493  -24.2878  -55.1269 H         1 UNK         0.0600 
    217 H217       -0.9742  -23.6017  -55.3632 H         1 UNK         0.0600 
    218 H218       -1.1041  -25.3085  -54.9646 H         1 UNK         0.0600 
    219 H219       -0.6322  -24.1497  -53.7255 H         1 UNK         0.0600 
    220 H220       -4.5048  -21.3128  -53.2971 H         1 UNK         0.3000 
    221 H221       -5.3812  -23.9456  -54.4187 H         1 UNK         0.0600 
    222 H222       -6.6197  -21.1573  -54.6839 H         1 UNK         0.0600 
    223 H223       -5.7229  -21.9936  -55.9433 H         1 UNK         0.0600 
    224 H224       -7.2439  -22.6557  -55.3837 H         1 UNK         0.0600 
    225 H225       -8.0488  -22.4277  -53.5215 H         1 UNK         0.3000 
    226 H226       -8.4553  -24.0706  -51.1803 H         1 UNK         0.0600 
    227 H227      -10.2005  -23.7905  -52.9041 H         1 UNK         0.0600 
    228 H228      -10.7776  -23.1810  -51.3622 H         1 UNK         0.0600 
    229 H229      -10.2621  -22.0528  -52.6110 H         1 UNK         0.0600 
    230 H230       -6.6010  -22.9214  -50.0954 H         1 UNK         0.3000 
    231 H231       -5.7975  -21.8124  -48.3596 H         1 UNK         0.0600 
    232 H232       -7.2495  -21.1137  -46.5139 H         1 UNK         0.0600 
    233 H233       -7.8693  -22.6189  -47.1726 H         1 UNK         0.0600 
    234 H234       -8.6645  -21.0932  -47.5576 H         1 UNK         0.0600 
    235 H235       -6.0029  -20.4676  -50.8823 H         1 UNK         0.3000 
    236 H236       -5.1000  -17.8747  -50.0473 H         1 UNK         0.0600 
    237 H237       -7.5519  -17.3651  -50.2938 H         1 UNK         0.0600 
    238 H238       -6.6441  -16.6185  -51.5982 H         1 UNK         0.0600 
    239 H239       -7.5568  -18.0947  -51.8978 H         1 UNK         0.0600 
    240 H240       -3.7706  -16.9888  -51.7129 H         1 UNK         0.3000 
    241 H241       -2.5767  -18.9718  -53.4191 H         1 UNK         0.0600 
    242 H242       -5.3106  -17.0275  -54.1598 H         1 UNK         0.3800 
    243 H243       -5.1049  -17.0548  -55.8911 H         1 UNK         0.3800 
    244 H244       -0.9774  -17.1093  -54.0068 H         1 UNK         0.0800 
    245 H245       -1.9459  -16.0014  -53.0763 H         1 UNK         0.0800 
    246 H246        0.6706  -18.8103  -53.0895 H         1 UNK         0.0800 
    247 H247        1.2819  -17.1864  -52.8768 H         1 UNK         0.0800 
@<TRIPOS>BOND
     1    1    2 1    
     2    1  127 1    
     3    1  128 1    
     4    1  129 1    
     5    2    3 2    
     6    2    4 am   BACKBONE|DICT|INTERRES
     7    4    5 1    
     8    4  130 1    
     9    5    6 1    
    10    5   65 1    
    11    5  131 1    
    12    6    7 1    
    13    6  132 1    
    14    6  133 1    
    15    7    8 1    
    16    8    9 1    
    17    8  134 1    
    18    8  135 1    
    19    9   10 ar   
    20    9   14 ar   
    21   10   11 ar   
    22   10  136 1    
    23   11   12 ar   
    24   11  126 1    
    25   12   13 ar   
    26   12  137 1    
    27   13   14 ar   
    28   13   15 1    
    29   14  138 1    
    30   15   16 1    
    31   15  139 1    
    32   15  140 1    
    33   16   17 1    
    34   17   18 1    
    35   17  141 1    
    36   17  142 1    
    37   18   19 1    
    38   18   67 1    
    39   18  143 1    
    40   19   20 am   BACKBONE|DICT|INTERRES
    41   19  144 1    
    42   20   21 2    
    43   20   22 1    
    44   22   23 1    
    45   22   24 1    
    46   22  145 1    
    47   23  146 1    
    48   23  147 1    
    49   23  148 1    
    50   24   25 am   BACKBONE|DICT|INTERRES
    51   24  149 1    
    52   25   26 2    
    53   25   27 1    
    54   27   28 1    
    55   27   29 1    
    56   27  150 1    
    57   28  151 1    
    58   28  152 1    
    59   28  153 1    
    60   29   30 am   BACKBONE|DICT|INTERRES
    61   29  154 1    
    62   30   31 2    
    63   30   32 1    
    64   32   33 1    
    65   32   34 1    
    66   32  155 1    
    67   33  156 1    
    68   33  157 1    
    69   33  158 1    
    70   34   35 am   BACKBONE|DICT|INTERRES
    71   34  159 1    
    72   35   36 2    
    73   35   37 1    
    74   37   38 1    
    75   37   39 1    
    76   37  160 1    
    77   38  161 1    
    78   38  162 1    
    79   38  163 1    
    80   39   40 am   BACKBONE|DICT|INTERRES
    81   39  164 1    
    82   40   41 2    
    83   40   42 1    
    84   42   43 1    
    85   42   44 1    
    86   42  165 1    
    87   43  166 1    
    88   43  167 1    
    89   43  168 1    
    90   44   45 am   BACKBONE|DICT|INTERRES
    91   44  169 1    
    92   45   46 2    
    93   45   47 1    
    94   47   48 1    
    95   47   49 1    
    96   47  170 1    
    97   48  171 1    
    98   48  172 1    
    99   48  173 1    
   100   49   50 am   BACKBONE|DICT|INTERRES
   101   49  174 1    
   102   50   51 2    
   103   50   52 1    
   104   52   53 1    
   105   52   54 1    
   106   52  175 1    
   107   53  176 1    
   108   53  177 1    
   109   53  178 1    
   110   54   55 am   BACKBONE|DICT|INTERRES
   111   54  179 1    
   112   55   56 2    
   113   55   57 1    
   114   57   58 1    
   115   57   59 1    
   116   57  180 1    
   117   58  181 1    
   118   58  182 1    
   119   58  183 1    
   120   59   60 am   BACKBONE|DICT|INTERRES
   121   59  184 1    
   122   60   61 2    
   123   60   62 1    
   124   62   63 1    
   125   62   64 1    
   126   62  185 1    
   127   63  186 1    
   128   63  187 1    
   129   63  188 1    
   130   64   65 am   BACKBONE|DICT|INTERRES
   131   64  189 1    
   132   65   66 2    
   133   67   68 2    
   134   67   69 am   BACKBONE|DICT|INTERRES
   135   69   70 1    
   136   69  190 1    
   137   70   71 1    
   138   70   72 1    
   139   70  191 1    
   140   71  192 1    
   141   71  193 1    
   142   71  194 1    
   143   72   73 2    
   144   72   74 am   BACKBONE|DICT|INTERRES
   145   74   75 1    
   146   74  195 1    
   147   75   76 1    
   148   75   77 1    
   149   75  196 1    
   150   76  197 1    
   151   76  198 1    
   152   76  199 1    
   153   77   78 2    
   154   77   79 am   BACKBONE|DICT|INTERRES
   155   79   80 1    
   156   79  200 1    
   157   80   81 1    
   158   80   82 1    
   159   80  201 1    
   160   81  202 1    
   161   81  203 1    
   162   81  204 1    
   163   82   83 2    
   164   82   84 am   BACKBONE|DICT|INTERRES
   165   84   85 1    
   166   84  205 1    
   167   85   86 1    
   168   85   87 1    
   169   85  206 1    
   170   86  207 1    
   171   86  208 1    
   172   86  209 1    
   173   87   88 2    
   174   87   89 am   BACKBONE|DICT|INTERRES
   175   89   90 1    
   176   89  210 1    
   177   90   91 1    
   178   90   92 1    
   179   90  211 1    
   180   91  212 1    
   181   91  213 1    
   182   91  214 1    
   183   92   93 2    
   184   92   94 am   BACKBONE|DICT|INTERRES
   185   94   95 1    
   186   94  215 1    
   187   95   96 1    
   188   95   97 1    
   189   95  216 1    
   190   96  217 1    
   191   96  218 1    
   192   96  219 1    
   193   97   98 2    
   194   97   99 am   BACKBONE|DICT|INTERRES
   195   99  100 1    
   196   99  220 1    
   197  100  101 1    
   198  100  102 1    
   199  100  221 1    
   200  101  222 1    
   201  101  223 1    
   202  101  224 1    
   203  102  103 2    
   204  102  104 am   BACKBONE|DICT|INTERRES
   205  104  105 1    
   206  104  225 1    
   207  105  106 1    
   208  105  107 1    
   209  105  226 1    
   210  106  227 1    
   211  106  228 1    
   212  106  229 1    
   213  107  108 2    
   214  107  109 am   BACKBONE|DICT|INTERRES
   215  109  110 1    
   216  109  230 1    
   217  110  111 1    
   218  110  112 1    
   219  110  231 1    
   220  111  232 1    
   221  111  233 1    
   222  111  234 1    
   223  112  113 2    
   224  112  114 am   BACKBONE|DICT|INTERRES
   225  114  115 1    
   226  114  235 1    
   227  115  116 1    
   228  115  117 1    
   229  115  236 1    
   230  116  237 1    
   231  116  238 1    
   232  116  239 1    
   233  117  118 2    
   234  117  119 am   BACKBONE|DICT|INTERRES
   235  119  120 1    
   236  119  240 1    
   237  120  121 1    
   238  120  124 1    
   239  120  241 1    
   240  121  122 am   BACKBONE|DICT|INTERRES
   241  121  123 2    
   242  122  242 1    
   243  122  243 1    
   244  124  125 1    
   245  124  244 1    
   246  124  245 1    
   247  125  126 1    
   248  126  246 1    
   249  126  247 1    
@<TRIPOS>SUBSTRUCTURE
     1 UNK         1 GROUP             0       ****    0 ROOT    
