@<TRIPOS>MOLECULE
3R540
247   249    1
SMALL
USER_CHARGES


@<TRIPOS>ATOM
      1 CA          3.8976  -10.4012  -50.8260 C.3       0 UNK        -0.1800 
      2 C           3.8301  -11.6439  -49.9500 C.2       0 UNK         0.5000 
      3 O           4.6846  -11.8301  -49.0838 O.2       0 UNK        -0.5000 
      4 N           2.8173  -12.4924  -50.1708 N.am      1 UNK        -0.5000 
      5 CA          2.5882  -13.7442  -49.4340 C.3       1 UNK         0.1400 
      6 C6          1.5399  -14.6488  -50.1262 C.3       23 UNK        -0.0398 
      7 S7          1.9568  -15.0195  -51.8638 S.3       23 UNK        -0.2404 
      8 C8          2.7028  -16.6785  -51.7091 C.3       23 UNK        -0.0205 
      9 C9          1.7492  -17.8151  -51.3325 C.ar      23 UNK        -0.0193 
     10 C10         0.3547  -17.7080  -51.4274 C.ar      23 UNK        -0.1150 
     11 C11        -0.4719  -18.7913  -51.1129 C.ar      23 UNK        -0.0193 
     12 C12         0.1026  -19.9881  -50.6766 C.ar      23 UNK        -0.1150 
     13 C13         1.4908  -20.1087  -50.5672 C.ar      23 UNK        -0.0193 
     14 C14         2.3037  -19.0238  -50.9038 C.ar      23 UNK        -0.1150 
     15 C15         2.1177  -21.4183  -50.1136 C.3       23 UNK        -0.0205 
     16 S16         2.9987  -21.2749  -48.5224 S.3       23 UNK        -0.2404 
     17 C17         1.6862  -20.7723  -47.3565 C.3       23 UNK        -0.0398 
     18 CA          0.9476  -21.9817  -46.7291 C.3       11 UNK         0.1400 
     19 N           0.5365  -21.7376  -45.3431 N.am      11 UNK        -0.5000 
     20 C           0.0290  -22.6753  -44.5288 C.2       10 UNK         0.5000 
     21 O          -0.1089  -23.8558  -44.8457 O.2       10 UNK        -0.5000 
     22 CA         -0.4609  -22.2131  -43.1471 C.3       10 UNK         0.1400 
     23 CB          0.7160  -22.0552  -42.1732 C.3       10 UNK        -0.1800 
     24 N          -1.2323  -20.9721  -43.2149 N.am      10 UNK        -0.5000 
     25 C          -2.3931  -20.8403  -43.8734 C.2       9 UNK         0.5000 
     26 O          -2.9577  -21.7682  -44.4525 O.2       9 UNK        -0.5000 
     27 CA         -3.0079  -19.4309  -43.9330 C.3       9 UNK         0.1400 
     28 CB         -3.7617  -19.1124  -42.6337 C.3       9 UNK        -0.1800 
     29 N          -2.0177  -18.3870  -44.2021 N.am      9 UNK        -0.5000 
     30 C          -1.2826  -18.3023  -45.3216 C.2       8 UNK         0.5000 
     31 O          -1.3777  -19.0847  -46.2676 O.2       8 UNK        -0.5000 
     32 CA         -0.2166  -17.1927  -45.3666 C.3       8 UNK         0.1400 
     33 CB         -0.8479  -15.8245  -45.6613 C.3       8 UNK        -0.1800 
     34 N           0.5586  -17.1200  -44.1288 N.am      8 UNK        -0.5000 
     35 C           1.3360  -18.1087  -43.6650 C.2       7 UNK         0.5000 
     36 O           1.5194  -19.1735  -44.2555 O.2       7 UNK        -0.5000 
     37 CA          1.9713  -17.8906  -42.2826 C.3       7 UNK         0.1400 
     38 CB          3.2075  -16.9836  -42.3815 C.3       7 UNK        -0.1800 
     39 N           1.0154  -17.3342  -41.3235 N.am      7 UNK        -0.5000 
     40 C          -0.0457  -18.0004  -40.8446 C.2       6 UNK         0.5000 
     41 O          -0.3175  -19.1605  -41.1475 O.2       6 UNK        -0.5000 
     42 CA         -0.9813  -17.2332  -39.8940 C.3       6 UNK         0.1400 
     43 CB         -0.4490  -17.2830  -38.4542 C.3       6 UNK        -0.1800 
     44 N          -1.1707  -15.8396  -40.2931 N.am      6 UNK        -0.5000 
     45 C          -1.7912  -15.4462  -41.4143 C.2       5 UNK         0.5000 
     46 O          -2.2960  -16.2178  -42.2294 O.2       5 UNK        -0.5000 
     47 CA         -1.7858  -13.9332  -41.6964 C.3       5 UNK         0.1400 
     48 CB         -2.9175  -13.2312  -40.9314 C.3       5 UNK        -0.1800 
     49 N          -0.5030  -13.3039  -41.3651 N.am      5 UNK        -0.5000 
     50 C           0.6506  -13.6046  -41.9727 C.2       4 UNK         0.5000 
     51 O           0.7504  -14.4492  -42.8694 O.2       4 UNK        -0.5000 
     52 CA          1.9059  -12.8639  -41.4967 C.3       4 UNK         0.1400 
     53 CB          2.5945  -13.6075  -40.3402 C.3       4 UNK        -0.1800 
     54 N           2.7852  -12.7867  -42.6502 N.am      4 UNK        -0.5000 
     55 C           3.7349  -11.8780  -42.8868 C.2       3 UNK         0.5000 
     56 O           4.1467  -11.0703  -42.0535 O.2       3 UNK        -0.5000 
     57 CA          4.2595  -11.8374  -44.3361 C.3       3 UNK         0.1400 
     58 CB          5.4029  -12.8442  -44.5321 C.3       3 UNK        -0.1800 
     59 N           3.1928  -12.1236  -45.3018 N.am      3 UNK        -0.5000 
     60 C           2.1331  -11.3347  -45.5267 C.2       2 UNK         0.5000 
     61 O           2.0195  -10.2026  -45.0530 O.2       2 UNK        -0.5000 
     62 CA          1.0143  -11.9218  -46.4127 C.3       2 UNK         0.1400 
     63 CB         -0.1522  -10.9414  -46.6310 C.3       2 UNK        -0.1800 
     64 N           1.5077  -12.3591  -47.7171 N.am      2 UNK        -0.5000 
     65 C           2.1713  -13.4954  -47.9692 C.2       1 UNK         0.5000 
     66 O           2.4614  -14.3195  -47.1009 O.2       1 UNK        -0.5000 
     67 C          -0.2434  -22.4243  -47.6010 C.2       11 UNK         0.5000 
     68 O          -0.1435  -23.4337  -48.2978 O.2       11 UNK        -0.5000 
     69 N          -1.3612  -21.6891  -47.5096 N.am      12 UNK        -0.5000 
     70 CA         -2.6159  -21.9762  -48.2045 C.3       12 UNK         0.1400 
     71 CB         -3.6384  -20.8791  -47.8782 C.3       12 UNK        -0.1800 
     72 C          -3.1955  -23.3637  -47.8789 C.2       12 UNK         0.5000 
     73 O          -3.6913  -24.0358  -48.7854 O.2       12 UNK        -0.5000 
     74 N          -3.1071  -23.7658  -46.6046 N.am      13 UNK        -0.5000 
     75 CA         -3.4983  -25.0863  -46.1204 C.3       13 UNK         0.1400 
     76 CB         -3.5925  -25.0657  -44.5872 C.3       13 UNK        -0.1800 
     77 C          -2.5396  -26.1909  -46.5980 C.2       13 UNK         0.5000 
     78 O          -3.0060  -27.2144  -47.0974 O.2       13 UNK        -0.5000 
     79 N          -1.2249  -25.9621  -46.4605 N.am      14 UNK        -0.5000 
     80 CA         -0.1656  -26.9027  -46.8401 C.3       14 UNK         0.1400 
     81 CB          1.1928  -26.3773  -46.3515 C.3       14 UNK        -0.1800 
     82 C          -0.1176  -27.1918  -48.3505 C.2       14 UNK         0.5000 
     83 O           0.0813  -28.3417  -48.7444 O.2       14 UNK        -0.5000 
     84 N          -0.3311  -26.1516  -49.1662 N.am      15 UNK        -0.5000 
     85 CA         -0.4350  -26.2448  -50.6229 C.3       15 UNK         0.1400 
     86 CB         -0.2288  -24.8434  -51.2212 C.3       15 UNK        -0.1800 
     87 C          -1.7781  -26.8318  -51.1011 C.2       15 UNK         0.5000 
     88 O          -1.8887  -27.1872  -52.2749 O.2       15 UNK        -0.5000 
     89 N          -2.7765  -26.8846  -50.2036 N.am      16 UNK        -0.5000 
     90 CA         -4.1828  -27.2303  -50.4467 C.3       16 UNK         0.1400 
     91 CB         -4.3279  -28.7119  -50.8500 C.3       16 UNK        -0.1800 
     92 C          -4.8653  -26.2600  -51.4363 C.2       16 UNK         0.5000 
     93 O          -5.7675  -26.6530  -52.1780 O.2       16 UNK        -0.5000 
     94 N          -4.4021  -25.0047  -51.4296 N.am      17 UNK        -0.5000 
     95 CA         -4.8624  -23.9257  -52.2955 C.3       17 UNK         0.1400 
     96 CB         -3.6993  -22.9437  -52.5104 C.3       17 UNK        -0.1800 
     97 C          -6.0722  -23.1948  -51.6962 C.2       17 UNK         0.5000 
     98 O          -6.9070  -22.6929  -52.4469 O.2       17 UNK        -0.5000 
     99 N          -6.1323  -23.1179  -50.3556 N.am      18 UNK        -0.5000 
    100 CA        -7.1608  -22.4232  -49.5657 C.3       18 UNK         0.1400 
    101 CB        -8.5059  -23.1726  -49.6566 C.3       18 UNK        -0.1800 
    102 C         -7.2873  -20.9198  -49.9131 C.2       18 UNK         0.5000 
    103 O         -8.3770  -20.3523  -49.8300 O.2       18 UNK        -0.5000 
    104 N         -6.1553  -20.3214  -50.3156 N.am      19 UNK        -0.5000 
    105 CA        -5.9586  -18.9420  -50.7734 C.3       19 UNK         0.1400 
    106 CB        -6.3946  -17.9200  -49.7034 C.3       19 UNK        -0.1800 
    107 C         -6.5532  -18.6382  -52.1657 C.2       19 UNK         0.5000 
    108 O         -6.5225  -17.4808  -52.5870 O.2       19 UNK        -0.5000 
    109 N         -7.0470  -19.6608  -52.8763 N.am      20 UNK        -0.5000 
    110 CA        -7.5063  -19.5612  -54.2576 C.3       20 UNK         0.1400 
    111 CB        -8.7290  -20.4715  -54.4507 C.3       20 UNK        -0.1800 
    112 C         -6.3680  -19.9742  -55.2031 C.2       20 UNK         0.5000 
    113 O         -5.6522  -20.9351  -54.9163 O.2       20 UNK        -0.5000 
    114 N         -6.2374  -19.2493  -56.3224 N.am      21 UNK        -0.5000 
    115 CA        -5.2792  -19.4775  -57.4137 C.3       21 UNK         0.1400 
    116 CB        -5.5814  -20.8093  -58.1338 C.3       21 UNK        -0.1800 
    117 C         -3.7915  -19.3450  -57.0104 C.2       21 UNK         0.5000 
    118 O         -2.9236  -19.8749  -57.7070 O.2       21 UNK        -0.5000 
    119 N         -3.5125  -18.6171  -55.9199 N.am      22 UNK        -0.5000 
    120 CA        -2.1497  -18.3059  -55.4511 C.3       22 UNK         0.1400 
    121 C         -1.4044  -17.2398  -56.3110 C.2       22 UNK         0.5000 
    122 N         -2.0717  -16.4995  -57.1887 N.am      22 UNK        -0.7600 
    123 O         -0.1927  -17.0870  -56.1849 O.2       22 UNK        -0.5000 
    124 C124       -2.1269  -17.9050  -53.9538 C.3       23 UNK        -0.0398 
    125 S125       -2.6172  -19.2630  -52.8359 S.3       23 UNK        -0.2404 
    126 C126       -1.9852  -18.6658  -51.2316 C.3       23 UNK        -0.0205 
    127 H127        3.8411   -9.5041  -50.2094 H         1 UNK         0.0600 
    128 H128        3.0819  -10.3694  -51.5487 H         1 UNK         0.0600 
    129 H129        4.8390  -10.3802  -51.3751 H         1 UNK         0.0600 
    130 H130        2.1644  -12.3012  -50.9179 H         1 UNK         0.3000 
    131 H131        3.5346  -14.2888  -49.4075 H         1 UNK         0.0600 
    132 H132        1.4221  -15.5850  -49.5771 H         1 UNK         0.0800 
    133 H133        0.5583  -14.1715  -50.1180 H         1 UNK         0.0800 
    134 H134        3.5128  -16.6243  -50.9799 H         1 UNK         0.0800 
    135 H135        3.1661  -16.9298  -52.6640 H         1 UNK         0.0800 
    136 H136       -0.0999  -16.7870  -51.7598 H         1 UNK         0.1150 
    137 H137       -0.5319  -20.8278  -50.4311 H         1 UNK         0.1150 
    138 H138        3.3778  -19.1250  -50.8311 H         1 UNK         0.1150 
    139 H139        1.3689  -22.2067  -50.0496 H         1 UNK         0.0800 
    140 H140        2.8282  -21.7464  -50.8734 H         1 UNK         0.0800 
    141 H141        1.0026  -20.0582  -47.8193 H         1 UNK         0.0800 
    142 H142        2.1964  -20.2089  -46.5752 H         1 UNK         0.0800 
    143 H143        1.6436  -22.8223  -46.6858 H         1 UNK         0.0600 
    144 H144        0.6470  -20.7909  -44.9914 H         1 UNK         0.3000 
    145 H145       -1.1196  -22.9904  -42.7545 H         1 UNK         0.0600 
    146 H146        0.3649  -21.8337  -41.1654 H         1 UNK         0.0600 
    147 H147        1.3028  -22.9729  -42.1174 H         1 UNK         0.0600 
    148 H148        1.3882  -21.2530  -42.4775 H         1 UNK         0.0600 
    149 H149       -0.8548  -20.1757  -42.7098 H         1 UNK         0.3000 
    150 H150       -3.7296  -19.4188  -44.7519 H         1 UNK         0.0600 
    151 H151       -4.2792  -18.1555  -42.7033 H         1 UNK         0.0600 
    152 H152       -4.5133  -19.8736  -42.4208 H         1 UNK         0.0600 
    153 H153       -3.0877  -19.0668  -41.7780 H         1 UNK         0.0600 
    154 H154       -1.9015  -17.6792  -43.4827 H         1 UNK         0.3000 
    155 H155        0.4739  -17.4287  -46.1792 H         1 UNK         0.0600 
    156 H156       -1.5163  -15.5060  -44.8608 H         1 UNK         0.0600 
    157 H157       -1.4260  -15.8507  -46.5858 H         1 UNK         0.0600 
    158 H158       -0.0799  -15.0608  -45.7789 H         1 UNK         0.0600 
    159 H159        0.4877  -16.2596  -43.5938 H         1 UNK         0.3000 
    160 H160        2.2971  -18.8637  -41.9088 H         1 UNK         0.0600 
    161 H161        2.9561  -15.9886  -42.7487 H         1 UNK         0.0600 
    162 H162        3.9436  -17.4059  -43.0667 H         1 UNK         0.0600 
    163 H163        3.6942  -16.8733  -41.4125 H         1 UNK         0.0600 
    164 H164        1.1396  -16.3685  -41.0621 H         1 UNK         0.3000 
    165 H165       -1.9553  -17.7266  -39.9152 H         1 UNK         0.0600 
    166 H166       -1.1440  -16.8096  -37.7604 H         1 UNK         0.0600 
    167 H167       -0.3141  -18.3140  -38.1241 H         1 UNK         0.0600 
    168 H168        0.5142  -16.7797  -38.3613 H         1 UNK         0.0600 
    169 H169       -0.7819  -15.1336  -39.6858 H         1 UNK         0.3000 
    170 H170       -1.9614  -13.7967  -42.7658 H         1 UNK         0.0600 
    171 H171       -3.8846  -13.6744  -41.1730 H         1 UNK         0.0600 
    172 H172       -2.7829  -13.3051  -39.8516 H         1 UNK         0.0600 
    173 H173       -2.9723  -12.1740  -41.1916 H         1 UNK         0.0600 
    174 H174       -0.5146  -12.6021  -40.6388 H         1 UNK         0.3000 
    175 H175        1.6290  -11.8555  -41.1821 H         1 UNK         0.0600 
    176 H176        2.8901  -14.6163  -40.6267 H         1 UNK         0.0600 
    177 H177        3.4901  -13.0802  -40.0112 H         1 UNK         0.0600 
    178 H178        1.9320  -13.6897  -39.4779 H         1 UNK         0.0600 
    179 H179        2.4996  -13.4004  -43.4035 H         1 UNK         0.3000 
    180 H180        4.6427  -10.8336  -44.5310 H         1 UNK         0.0600 
    181 H181        5.0711  -13.8697  -44.3647 H         1 UNK         0.0600 
    182 H182        6.2207  -12.6452  -43.8384 H         1 UNK         0.0600 
    183 H183        5.8105  -12.7843  -45.5416 H         1 UNK         0.0600 
    184 H184        3.2105  -13.0287  -45.7608 H         1 UNK         0.3000 
    185 H185        0.6162  -12.7876  -45.8803 H         1 UNK         0.0600 
    186 H186       -0.5847  -10.6283  -45.6798 H         1 UNK         0.0600 
    187 H187        0.1697  -10.0430  -47.1591 H         1 UNK         0.0600 
    188 H188       -0.9516  -11.4034  -47.2107 H         1 UNK         0.0600 
    189 H189        1.3588  -11.7219  -48.4858 H         1 UNK         0.3000 
    190 H190       -1.3536  -20.8553  -46.9262 H         1 UNK         0.3000 
    191 H191       -2.4144  -21.9516  -49.2767 H         1 UNK         0.0600 
    192 H192       -3.3257  -19.9123  -48.2718 H         1 UNK         0.0600 
    193 H193       -4.6129  -21.1111  -48.3012 H         1 UNK         0.0600 
    194 H194       -3.7786  -20.7688  -46.8038 H         1 UNK         0.0600 
    195 H195       -2.7485  -23.1151  -45.9123 H         1 UNK         0.3000 
    196 H196       -4.4911  -25.3119  -46.5157 H         1 UNK         0.0600 
    197 H197       -3.8929  -26.0401  -44.2003 H         1 UNK         0.0600 
    198 H198       -4.3315  -24.3389  -44.2494 H         1 UNK         0.0600 
    199 H199       -2.6384  -24.8077  -44.1266 H         1 UNK         0.0600 
    200 H200       -0.9183  -25.0998  -46.0163 H         1 UNK         0.3000 
    201 H201       -0.3656  -27.8476  -46.3309 H         1 UNK         0.0600 
    202 H202        1.2064  -26.2700  -45.2669 H         1 UNK         0.0600 
    203 H203        1.4273  -25.4055  -46.7875 H         1 UNK         0.0600 
    204 H204        1.9982  -27.0621  -46.6198 H         1 UNK         0.0600 
    205 H205       -0.4222  -25.2209  -48.7629 H         1 UNK         0.3000 
    206 H206        0.3606  -26.8959  -50.9909 H         1 UNK         0.0600 
    207 H207        0.7447  -24.4386  -50.9451 H         1 UNK         0.0600 
    208 H208       -0.2720  -24.8694  -52.3108 H         1 UNK         0.0600 
    209 H209       -0.9925  -24.1435  -50.8790 H         1 UNK         0.0600 
    210 H210       -2.5678  -26.5938  -49.2572 H         1 UNK         0.3000 
    211 H211       -4.6947  -27.0965  -49.4927 H         1 UNK         0.0600 
    212 H212       -3.9015  -28.9096  -51.8337 H         1 UNK         0.0600 
    213 H213       -5.3774  -29.0061  -50.8844 H         1 UNK         0.0600 
    214 H214       -3.8324  -29.3648  -50.1313 H         1 UNK         0.0600 
    215 H215       -3.7202  -24.7614  -50.7209 H         1 UNK         0.3000 
    216 H216       -5.1553  -24.3326  -53.2657 H         1 UNK         0.0600 
    217 H217       -3.9959  -22.1232  -53.1644 H         1 UNK         0.0600 
    218 H218       -2.8482  -23.4382  -52.9788 H         1 UNK         0.0600 
    219 H219       -3.3562  -22.5064  -51.5722 H         1 UNK         0.0600 
    220 H220       -5.3926  -23.5656  -49.8240 H         1 UNK         0.3000 
    221 H221       -6.8298  -22.4669  -48.5271 H         1 UNK         0.0600 
    222 H222       -8.9327  -23.1183  -50.6586 H         1 UNK         0.0600 
    223 H223       -8.3882  -24.2253  -49.3992 H         1 UNK         0.0600 
    224 H224       -9.2375  -22.7511  -48.9663 H         1 UNK         0.0600 
    225 H225       -5.3367  -20.9075  -50.3809 H         1 UNK         0.3000 
    226 H226       -4.8817  -18.8307  -50.8911 H         1 UNK         0.0600 
    227 H227       -5.9537  -18.1514  -48.7337 H         1 UNK         0.0600 
    228 H228       -6.0726  -16.9133  -49.9721 H         1 UNK         0.0600 
    229 H229       -7.4777  -17.8911  -49.5841 H         1 UNK         0.0600 
    230 H230       -6.9797  -20.6037  -52.5084 H         1 UNK         0.3000 
    231 H231       -7.8100  -18.5365  -54.4818 H         1 UNK         0.0600 
    232 H232       -8.4841  -21.5206  -54.2822 H         1 UNK         0.0600 
    233 H233       -9.1213  -20.3863  -55.4648 H         1 UNK         0.0600 
    234 H234       -9.5331  -20.2018  -53.7658 H         1 UNK         0.0600 
    235 H235       -6.8678  -18.4714  -56.4626 H         1 UNK         0.3000 
    236 H236       -5.4562  -18.6769  -58.1332 H         1 UNK         0.0600 
    237 H237       -5.3565  -21.6704  -57.5040 H         1 UNK         0.0600 
    238 H238       -6.6298  -20.8714  -58.4253 H         1 UNK         0.0600 
    239 H239       -4.9885  -20.9078  -59.0439 H         1 UNK         0.0600 
    240 H240       -4.2751  -18.2260  -55.3880 H         1 UNK         0.3000 
    241 H241       -1.5573  -19.2183  -55.5463 H         1 UNK         0.0600 
    242 H242       -3.0659  -16.6087  -57.3055 H         1 UNK         0.3800 
    243 H243       -1.5746  -15.8183  -57.7413 H         1 UNK         0.3800 
    244 H244       -2.7761  -17.0467  -53.7741 H         1 UNK         0.0800 
    245 H245       -1.1214  -17.5909  -53.6776 H         1 UNK         0.0800 
    246 H246       -2.4545  -19.2451  -50.4362 H         1 UNK         0.0800 
    247 H247       -2.2976  -17.6319  -51.0765 H         1 UNK         0.0800 
@<TRIPOS>BOND
     1    1    2 1    
     2    1  127 1    
     3    1  128 1    
     4    1  129 1    
     5    2    3 2    
     6    2    4 am   BACKBONE|DICT|INTERRES
     7    4    5 1    
     8    4  130 1    
     9    5    6 1    
    10    5   65 1    
    11    5  131 1    
    12    6    7 1    
    13    6  132 1    
    14    6  133 1    
    15    7    8 1    
    16    8    9 1    
    17    8  134 1    
    18    8  135 1    
    19    9   10 ar   
    20    9   14 ar   
    21   10   11 ar   
    22   10  136 1    
    23   11   12 ar   
    24   11  126 1    
    25   12   13 ar   
    26   12  137 1    
    27   13   14 ar   
    28   13   15 1    
    29   14  138 1    
    30   15   16 1    
    31   15  139 1    
    32   15  140 1    
    33   16   17 1    
    34   17   18 1    
    35   17  141 1    
    36   17  142 1    
    37   18   19 1    
    38   18   67 1    
    39   18  143 1    
    40   19   20 am   BACKBONE|DICT|INTERRES
    41   19  144 1    
    42   20   21 2    
    43   20   22 1    
    44   22   23 1    
    45   22   24 1    
    46   22  145 1    
    47   23  146 1    
    48   23  147 1    
    49   23  148 1    
    50   24   25 am   BACKBONE|DICT|INTERRES
    51   24  149 1    
    52   25   26 2    
    53   25   27 1    
    54   27   28 1    
    55   27   29 1    
    56   27  150 1    
    57   28  151 1    
    58   28  152 1    
    59   28  153 1    
    60   29   30 am   BACKBONE|DICT|INTERRES
    61   29  154 1    
    62   30   31 2    
    63   30   32 1    
    64   32   33 1    
    65   32   34 1    
    66   32  155 1    
    67   33  156 1    
    68   33  157 1    
    69   33  158 1    
    70   34   35 am   BACKBONE|DICT|INTERRES
    71   34  159 1    
    72   35   36 2    
    73   35   37 1    
    74   37   38 1    
    75   37   39 1    
    76   37  160 1    
    77   38  161 1    
    78   38  162 1    
    79   38  163 1    
    80   39   40 am   BACKBONE|DICT|INTERRES
    81   39  164 1    
    82   40   41 2    
    83   40   42 1    
    84   42   43 1    
    85   42   44 1    
    86   42  165 1    
    87   43  166 1    
    88   43  167 1    
    89   43  168 1    
    90   44   45 am   BACKBONE|DICT|INTERRES
    91   44  169 1    
    92   45   46 2    
    93   45   47 1    
    94   47   48 1    
    95   47   49 1    
    96   47  170 1    
    97   48  171 1    
    98   48  172 1    
    99   48  173 1    
   100   49   50 am   BACKBONE|DICT|INTERRES
   101   49  174 1    
   102   50   51 2    
   103   50   52 1    
   104   52   53 1    
   105   52   54 1    
   106   52  175 1    
   107   53  176 1    
   108   53  177 1    
   109   53  178 1    
   110   54   55 am   BACKBONE|DICT|INTERRES
   111   54  179 1    
   112   55   56 2    
   113   55   57 1    
   114   57   58 1    
   115   57   59 1    
   116   57  180 1    
   117   58  181 1    
   118   58  182 1    
   119   58  183 1    
   120   59   60 am   BACKBONE|DICT|INTERRES
   121   59  184 1    
   122   60   61 2    
   123   60   62 1    
   124   62   63 1    
   125   62   64 1    
   126   62  185 1    
   127   63  186 1    
   128   63  187 1    
   129   63  188 1    
   130   64   65 am   BACKBONE|DICT|INTERRES
   131   64  189 1    
   132   65   66 2    
   133   67   68 2    
   134   67   69 am   BACKBONE|DICT|INTERRES
   135   69   70 1    
   136   69  190 1    
   137   70   71 1    
   138   70   72 1    
   139   70  191 1    
   140   71  192 1    
   141   71  193 1    
   142   71  194 1    
   143   72   73 2    
   144   72   74 am   BACKBONE|DICT|INTERRES
   145   74   75 1    
   146   74  195 1    
   147   75   76 1    
   148   75   77 1    
   149   75  196 1    
   150   76  197 1    
   151   76  198 1    
   152   76  199 1    
   153   77   78 2    
   154   77   79 am   BACKBONE|DICT|INTERRES
   155   79   80 1    
   156   79  200 1    
   157   80   81 1    
   158   80   82 1    
   159   80  201 1    
   160   81  202 1    
   161   81  203 1    
   162   81  204 1    
   163   82   83 2    
   164   82   84 am   BACKBONE|DICT|INTERRES
   165   84   85 1    
   166   84  205 1    
   167   85   86 1    
   168   85   87 1    
   169   85  206 1    
   170   86  207 1    
   171   86  208 1    
   172   86  209 1    
   173   87   88 2    
   174   87   89 am   BACKBONE|DICT|INTERRES
   175   89   90 1    
   176   89  210 1    
   177   90   91 1    
   178   90   92 1    
   179   90  211 1    
   180   91  212 1    
   181   91  213 1    
   182   91  214 1    
   183   92   93 2    
   184   92   94 am   BACKBONE|DICT|INTERRES
   185   94   95 1    
   186   94  215 1    
   187   95   96 1    
   188   95   97 1    
   189   95  216 1    
   190   96  217 1    
   191   96  218 1    
   192   96  219 1    
   193   97   98 2    
   194   97   99 am   BACKBONE|DICT|INTERRES
   195   99  100 1    
   196   99  220 1    
   197  100  101 1    
   198  100  102 1    
   199  100  221 1    
   200  101  222 1    
   201  101  223 1    
   202  101  224 1    
   203  102  103 2    
   204  102  104 am   BACKBONE|DICT|INTERRES
   205  104  105 1    
   206  104  225 1    
   207  105  106 1    
   208  105  107 1    
   209  105  226 1    
   210  106  227 1    
   211  106  228 1    
   212  106  229 1    
   213  107  108 2    
   214  107  109 am   BACKBONE|DICT|INTERRES
   215  109  110 1    
   216  109  230 1    
   217  110  111 1    
   218  110  112 1    
   219  110  231 1    
   220  111  232 1    
   221  111  233 1    
   222  111  234 1    
   223  112  113 2    
   224  112  114 am   BACKBONE|DICT|INTERRES
   225  114  115 1    
   226  114  235 1    
   227  115  116 1    
   228  115  117 1    
   229  115  236 1    
   230  116  237 1    
   231  116  238 1    
   232  116  239 1    
   233  117  118 2    
   234  117  119 am   BACKBONE|DICT|INTERRES
   235  119  120 1    
   236  119  240 1    
   237  120  121 1    
   238  120  124 1    
   239  120  241 1    
   240  121  122 am   BACKBONE|DICT|INTERRES
   241  121  123 2    
   242  122  242 1    
   243  122  243 1    
   244  124  125 1    
   245  124  244 1    
   246  124  245 1    
   247  125  126 1    
   248  126  246 1    
   249  126  247 1    
@<TRIPOS>SUBSTRUCTURE
     1 UNK         1 GROUP             0       ****    0 ROOT    
