@<TRIPOS>MOLECULE
3R540
247   249    1
SMALL
USER_CHARGES


@<TRIPOS>ATOM
      1 CA         -1.0445  -12.3062  -48.2397 C.3       0 UNK        -0.1800 
      2 C          -0.7211  -13.6995  -47.7233 C.2       0 UNK         0.5000 
      3 O          -0.4062  -13.8582  -46.5425 O.2       0 UNK        -0.5000 
      4 N          -0.8092  -14.7041  -48.6062 N.am      1 UNK        -0.5000 
      5 CA         -0.4607  -16.1122  -48.3705 C.3       1 UNK         0.1400 
      6 C6         -0.7553  -17.0088  -49.5969 C.3       23 UNK        -0.0398 
      7 S7         -0.3022  -16.3365  -51.2327 S.3       23 UNK        -0.2404 
      8 C8          1.5135  -16.2602  -51.1649 C.3       23 UNK        -0.0205 
      9 C9          2.1566  -17.5516  -50.6810 C.ar      23 UNK        -0.0193 
     10 C10         1.9725  -18.7539  -51.3717 C.ar      23 UNK        -0.1150 
     11 C11         2.5925  -19.9276  -50.9304 C.ar      23 UNK        -0.0193 
     12 C12         3.4095  -19.8887  -49.7948 C.ar      23 UNK        -0.1150 
     13 C13         3.5927  -18.6924  -49.0936 C.ar      23 UNK        -0.0193 
     14 C14         2.9615  -17.5310  -49.5414 C.ar      23 UNK        -0.1150 
     15 C15         4.4862  -18.6261  -47.8627 C.3       23 UNK        -0.0205 
     16 S16         3.9218  -19.6615  -46.4738 S.3       23 UNK        -0.2404 
     17 C17         2.1037  -19.4471  -46.4385 C.3       23 UNK        -0.0398 
     18 CA          1.3972  -20.7843  -46.7612 C.3       11 UNK         0.1400 
     19 N           1.7868  -21.8322  -45.8092 N.am      11 UNK        -0.5000 
     20 C           1.5658  -23.1426  -45.9609 C.2       10 UNK         0.5000 
     21 O           0.9365  -23.6208  -46.9017 O.2       10 UNK        -0.5000 
     22 CA          2.1105  -24.0682  -44.8580 C.3       10 UNK         0.1400 
     23 CB          3.5322  -24.5343  -45.2046 C.3       10 UNK        -0.1800 
     24 N           2.1209  -23.4550  -43.5275 N.am      10 UNK        -0.5000 
     25 C           1.0388  -23.0572  -42.8479 C.2       9 UNK         0.5000 
     26 O          -0.1042  -23.1112  -43.3007 O.2       9 UNK        -0.5000 
     27 CA          1.2653  -22.4831  -41.4383 C.3       9 UNK         0.1400 
     28 CB          1.5750  -23.5948  -40.4177 C.3       9 UNK        -0.1800 
     29 N           2.2540  -21.3996  -41.3810 N.am      9 UNK        -0.5000 
     30 C           3.5827  -21.4420  -41.5696 C.2       8 UNK         0.5000 
     31 O           4.1956  -22.4710  -41.8578 O.2       8 UNK        -0.5000 
     32 CA          4.3657  -20.1166  -41.4420 C.3       8 UNK         0.1400 
     33 CB          4.9841  -19.7260  -42.7924 C.3       8 UNK        -0.1800 
     34 N           3.5435  -19.0022  -40.9642 N.am      8 UNK        -0.5000 
     35 C           3.2132  -18.7904  -39.6808 C.2       7 UNK         0.5000 
     36 O           3.6481  -19.4664  -38.7480 O.2       7 UNK        -0.5000 
     37 CA          2.2028  -17.6599  -39.3846 C.3       7 UNK         0.1400 
     38 CB          2.9370  -16.3871  -38.9371 C.3       7 UNK        -0.1800 
     39 N           1.3343  -17.3289  -40.5171 N.am      7 UNK        -0.5000 
     40 C           0.4848  -18.1712  -41.1226 C.2       6 UNK         0.5000 
     41 O           0.2665  -19.3150  -40.7253 O.2       6 UNK        -0.5000 
     42 CA         -0.1896  -17.6855  -42.4206 C.3       6 UNK         0.1400 
     43 CB         -1.6633  -17.3534  -42.1573 C.3       6 UNK        -0.1800 
     44 N           0.4746  -16.5417  -43.0604 N.am      6 UNK        -0.5000 
     45 C           1.7268  -16.5614  -43.5466 C.2       5 UNK         0.5000 
     46 O           2.4741  -17.5329  -43.4267 O.2       5 UNK        -0.5000 
     47 CA          2.2592  -15.3001  -44.2542 C.3       5 UNK         0.1400 
     48 CB          2.5638  -15.5879  -45.7299 C.3       5 UNK        -0.1800 
     49 N           1.3552  -14.1514  -44.1639 N.am      5 UNK        -0.5000 
     50 C           1.3315  -13.3033  -43.1270 C.2       4 UNK         0.5000 
     51 O           2.0497  -13.4216  -42.1334 O.2       4 UNK        -0.5000 
     52 CA          0.3305  -12.1344  -43.1996 C.3       4 UNK         0.1400 
     53 CB          0.9504  -10.9440  -43.9472 C.3       4 UNK        -0.1800 
     54 N          -0.9460  -12.4776  -43.8288 N.am      4 UNK        -0.5000 
     55 C          -1.8098  -13.3952  -43.3766 C.2       3 UNK         0.5000 
     56 O          -1.5960  -14.1010  -42.3918 O.2       3 UNK        -0.5000 
     57 CA         -3.1204  -13.5769  -44.1562 C.3       3 UNK         0.1400 
     58 CB         -3.5277  -12.3485  -44.9935 C.3       3 UNK        -0.1800 
     59 N          -2.9669  -14.7300  -45.0347 N.am      3 UNK        -0.5000 
     60 C          -3.7589  -15.8101  -45.0447 C.2       2 UNK         0.5000 
     61 O          -4.7493  -15.9341  -44.3235 O.2       2 UNK        -0.5000 
     62 CA         -3.3880  -16.9452  -46.0217 C.3       2 UNK         0.1400 
     63 CB         -4.6298  -17.5653  -46.6891 C.3       2 UNK        -0.1800 
     64 N          -2.4888  -16.4778  -47.0744 N.am      2 UNK        -0.5000 
     65 C          -1.1725  -16.7119  -47.1382 C.2       1 UNK         0.5000 
     66 O          -0.5360  -17.3306  -46.2870 O.2       1 UNK        -0.5000 
     67 C          -0.1333  -20.6120  -46.8739 C.2       11 UNK         0.5000 
     68 O          -0.6172  -20.1436  -47.9048 O.2       11 UNK        -0.5000 
     69 N          -0.8823  -21.0551  -45.8508 N.am      12 UNK        -0.5000 
     70 CA         -2.3460  -21.0929  -45.8530 C.3       12 UNK         0.1400 
     71 CB         -2.8515  -21.3873  -44.4340 C.3       12 UNK        -0.1800 
     72 C          -2.9321  -22.0965  -46.8690 C.2       12 UNK         0.5000 
     73 O          -4.0916  -21.9454  -47.2578 O.2       12 UNK        -0.5000 
     74 N          -2.1159  -23.0550  -47.3423 N.am      13 UNK        -0.5000 
     75 CA         -2.4450  -23.9972  -48.4190 C.3       13 UNK         0.1400 
     76 CB         -1.3608  -25.0819  -48.5080 C.3       13 UNK        -0.1800 
     77 C          -2.6474  -23.3311  -49.7957 C.2       13 UNK         0.5000 
     78 O          -3.0512  -24.0103  -50.7386 O.2       13 UNK        -0.5000 
     79 N          -2.3875  -22.0204  -49.8998 N.am      14 UNK        -0.5000 
     80 CA         -2.7529  -21.1903  -51.0416 C.3       14 UNK         0.1400 
     81 CB         -2.0821  -19.8261  -50.9041 C.3       14 UNK        -0.1800 
     82 C          -4.2734  -21.0370  -51.2334 C.2       14 UNK         0.5000 
     83 O          -4.6962  -20.8000  -52.3668 O.2       14 UNK        -0.5000 
     84 N          -5.0422  -21.2013  -50.1421 N.am      15 UNK        -0.5000 
     85 CA         -6.5046  -21.1608  -50.0440 C.3       15 UNK         0.1400 
     86 CB         -7.1400  -22.3306  -50.8151 C.3       15 UNK        -0.1800 
     87 C          -7.0652  -19.7942  -50.4736 C.2       15 UNK         0.5000 
     88 O          -7.2836  -19.5523  -51.6625 O.2       15 UNK        -0.5000 
     89 N          -7.2053  -18.8894  -49.4940 N.am      16 UNK        -0.5000 
     90 CA         -7.6120  -17.4844  -49.6579 C.3       16 UNK         0.1400 
     91 CB         -9.0755  -17.3903  -50.1387 C.3       16 UNK        -0.1800 
     92 C          -6.6427  -16.6707  -50.5463 C.2       16 UNK         0.5000 
     93 O          -7.0400  -15.6628  -51.1320 O.2       16 UNK        -0.5000 
     94 N          -5.3881  -17.1420  -50.6245 N.am      17 UNK        -0.5000 
     95 CA         -4.2866  -16.6258  -51.4373 C.3       17 UNK         0.1400 
     96 CB         -3.8644  -15.2229  -50.9475 C.3       17 UNK        -0.1800 
     97 C          -4.5435  -16.6863  -52.9591 C.2       17 UNK         0.5000 
     98 O          -3.9971  -15.8548  -53.6869 O.2       17 UNK        -0.5000 
     99 N          -5.3502  -17.6530  -53.4307 N.am      18 UNK        -0.5000 
    100 CA        -5.7050  -17.7524  -54.8492 C.3       18 UNK         0.1400 
    101 CB        -6.7571  -16.6831  -55.2077 C.3       18 UNK        -0.1800 
    102 C         -6.2025  -19.1337  -55.3006 C.2       18 UNK         0.5000 
    103 O         -5.8955  -19.5278  -56.4267 O.2       18 UNK        -0.5000 
    104 N         -7.0130  -19.8181  -54.4818 N.am      19 UNK        -0.5000 
    105 CA        -7.8331  -20.9420  -54.9440 C.3       19 UNK         0.1400 
    106 CB        -9.0339  -21.1266  -54.0032 C.3       19 UNK        -0.1800 
    107 C         -7.0717  -22.2654  -55.1425 C.2       19 UNK         0.5000 
    108 O         -7.5289  -23.0914  -55.9346 O.2       19 UNK        -0.5000 
    109 N         -5.9488  -22.4559  -54.4382 N.am      20 UNK        -0.5000 
    110 CA        -5.1464  -23.6829  -54.4950 C.3       20 UNK         0.1400 
    111 CB        -5.3087  -24.4526  -53.1768 C.3       20 UNK        -0.1800 
    112 C         -3.6630  -23.4198  -54.8009 C.2       20 UNK         0.5000 
    113 O         -2.9989  -24.3116  -55.3321 O.2       20 UNK        -0.5000 
    114 N         -3.1615  -22.2199  -54.4669 N.am      21 UNK        -0.5000 
    115 CA        -1.8071  -21.7155  -54.7483 C.3       21 UNK         0.1400 
    116 CB        -1.6749  -21.3928  -56.2505 C.3       21 UNK        -0.1800 
    117 C         -0.6532  -22.6126  -54.2320 C.2       21 UNK         0.5000 
    118 O          0.4322  -22.6094  -54.8144 O.2       21 UNK        -0.5000 
    119 N         -0.9140  -23.3647  -53.1534 N.am      22 UNK        -0.5000 
    120 CA        -0.0260  -24.3597  -52.5294 C.3       22 UNK         0.1400 
    121 C          0.1502  -25.6643  -53.3667 C.2       22 UNK         0.5000 
    122 N         -0.6653  -25.9223  -54.3839 N.am      22 UNK        -0.7600 
    123 O          1.0223  -26.4781  -53.0743 O.2       22 UNK        -0.5000 
    124 C124        1.3306  -23.7842  -52.0265 C.3       23 UNK        -0.0398 
    125 S125        1.1721  -22.3187  -50.9419 S.3       23 UNK        -0.2404 
    126 C126        2.4146  -21.2268  -51.7025 C.3       23 UNK        -0.0205 
    127 H127       -0.8450  -12.2235  -49.3082 H         1 UNK         0.0600 
    128 H128       -2.0950  -12.0737  -48.0686 H         1 UNK         0.0600 
    129 H129       -0.4378  -11.5611  -47.7249 H         1 UNK         0.0600 
    130 H130       -1.0596  -14.4887  -49.5611 H         1 UNK         0.3000 
    131 H131        0.6133  -16.1455  -48.1915 H         1 UNK         0.0600 
    132 H132       -1.8243  -17.2041  -49.6539 H         1 UNK         0.0800 
    133 H133       -0.2792  -17.9823  -49.4709 H         1 UNK         0.0800 
    134 H134        1.7992  -15.4211  -50.5287 H         1 UNK         0.0800 
    135 H135        1.8923  -16.0289  -52.1612 H         1 UNK         0.0800 
    136 H136        1.3489  -18.7724  -52.2545 H         1 UNK         0.1150 
    137 H137        3.8994  -20.7899  -49.4532 H         1 UNK         0.1150 
    138 H138        3.1080  -16.6029  -49.0065 H         1 UNK         0.1150 
    139 H139        5.4937  -18.9371  -48.1416 H         1 UNK         0.0800 
    140 H140        4.5778  -17.5988  -47.5083 H         1 UNK         0.0800 
    141 H141        1.8141  -19.0960  -45.4477 H         1 UNK         0.0800 
    142 H142        1.7979  -18.6630  -47.1316 H         1 UNK         0.0800 
    143 H143        1.7326  -21.1076  -47.7491 H         1 UNK         0.0600 
    144 H144        2.3248  -21.5301  -45.0107 H         1 UNK         0.3000 
    145 H145        1.4616  -24.9453  -44.8160 H         1 UNK         0.0600 
    146 H146        3.8980  -25.2591  -44.4771 H         1 UNK         0.0600 
    147 H147        3.5587  -25.0148  -46.1836 H         1 UNK         0.0600 
    148 H148        4.2339  -23.6993  -45.2285 H         1 UNK         0.0600 
    149 H149        3.0234  -23.3370  -43.0743 H         1 UNK         0.3000 
    150 H150        0.3205  -22.0286  -41.1364 H         1 UNK         0.0600 
    151 H151        0.7744  -24.3351  -40.3973 H         1 UNK         0.0600 
    152 H152        1.6671  -23.1883  -39.4105 H         1 UNK         0.0600 
    153 H153        2.4990  -24.1240  -40.6514 H         1 UNK         0.0600 
    154 H154        1.8466  -20.4975  -41.1596 H         1 UNK         0.3000 
    155 H155        5.1792  -20.2860  -40.7337 H         1 UNK         0.0600 
    156 H156        5.6523  -20.5048  -43.1620 H         1 UNK         0.0600 
    157 H157        5.5673  -18.8087  -42.7112 H         1 UNK         0.0600 
    158 H158        4.2158  -19.5678  -43.5484 H         1 UNK         0.0600 
    159 H159        3.1453  -18.4042  -41.6818 H         1 UNK         0.3000 
    160 H160        1.5655  -17.9976  -38.5649 H         1 UNK         0.0600 
    161 H161        3.5689  -15.9876  -39.7316 H         1 UNK         0.0600 
    162 H162        2.2335  -15.6076  -38.6437 H         1 UNK         0.0600 
    163 H163        3.5770  -16.5861  -38.0764 H         1 UNK         0.0600 
    164 H164        1.4492  -16.4096  -40.9189 H         1 UNK         0.3000 
    165 H165       -0.1544  -18.5148  -43.1307 H         1 UNK         0.0600 
    166 H166       -2.1624  -17.0356  -43.0693 H         1 UNK         0.0600 
    167 H167       -2.1997  -18.2260  -41.7821 H         1 UNK         0.0600 
    168 H168       -1.7714  -16.5602  -41.4171 H         1 UNK         0.0600 
    169 H169       -0.0679  -15.6926  -43.1481 H         1 UNK         0.3000 
    170 H170        3.2060  -15.0464  -43.7729 H         1 UNK         0.0600 
    171 H171        3.2708  -16.4117  -45.8309 H         1 UNK         0.0600 
    172 H172        1.6614  -15.8631  -46.2671 H         1 UNK         0.0600 
    173 H173        2.9989  -14.7190  -46.2236 H         1 UNK         0.0600 
    174 H174        0.7254  -13.9973  -44.9475 H         1 UNK         0.3000 
    175 H175        0.1191  -11.8211  -42.1752 H         1 UNK         0.0600 
    176 H176        1.1467  -11.1851  -44.9929 H         1 UNK         0.0600 
    177 H177        0.2930  -10.0748  -43.9202 H         1 UNK         0.0600 
    178 H178        1.8977  -10.6477  -43.4945 H         1 UNK         0.0600 
    179 H179       -1.1770  -11.9775  -44.6745 H         1 UNK         0.3000 
    180 H180       -3.9017  -13.7523  -43.4138 H         1 UNK         0.0600 
    181 H181       -3.6045  -11.4565  -44.3703 H         1 UNK         0.0600 
    182 H182       -2.8173  -12.1386  -45.7921 H         1 UNK         0.0600 
    183 H183       -4.5029  -12.5026  -45.4556 H         1 UNK         0.0600 
    184 H184       -2.1406  -14.7257  -45.6215 H         1 UNK         0.3000 
    185 H185       -2.9007  -17.7226  -45.4300 H         1 UNK         0.0600 
    186 H186       -5.3038  -17.9942  -45.9467 H         1 UNK         0.0600 
    187 H187       -5.1927  -16.8240  -47.2574 H         1 UNK         0.0600 
    188 H188       -4.3496  -18.3693  -47.3703 H         1 UNK         0.0600 
    189 H189       -2.9067  -15.8980  -47.7872 H         1 UNK         0.3000 
    190 H190       -0.4212  -21.4799  -45.0573 H         1 UNK         0.3000 
    191 H191       -2.7015  -20.1012  -46.1392 H         1 UNK         0.0600 
    192 H192       -3.9400  -21.3328  -44.3898 H         1 UNK         0.0600 
    193 H193       -2.4605  -20.6660  -43.7159 H         1 UNK         0.0600 
    194 H194       -2.5610  -22.3847  -44.1028 H         1 UNK         0.0600 
    195 H195       -1.1620  -23.0953  -47.0015 H         1 UNK         0.3000 
    196 H196       -3.3876  -24.4807  -48.1556 H         1 UNK         0.0600 
    197 H197       -1.6586  -25.8750  -49.1950 H         1 UNK         0.0600 
    198 H198       -1.1775  -25.5444  -47.5380 H         1 UNK         0.0600 
    199 H199       -0.4174  -24.6753  -48.8742 H         1 UNK         0.0600 
    200 H200       -1.9779  -21.5420  -49.1072 H         1 UNK         0.3000 
    201 H201       -2.3608  -21.6602  -51.9347 H         1 UNK         0.0600 
    202 H202       -2.4610  -19.3033  -50.0271 H         1 UNK         0.0600 
    203 H203       -2.2642  -19.2080  -51.7835 H         1 UNK         0.0600 
    204 H204       -1.0013  -19.9276  -50.7996 H         1 UNK         0.0600 
    205 H205       -4.5703  -21.4035  -49.2673 H         1 UNK         0.3000 
    206 H206       -6.7470  -21.3041  -48.9897 H         1 UNK         0.0600 
    207 H207       -6.9190  -22.2832  -51.8789 H         1 UNK         0.0600 
    208 H208       -6.7771  -23.2886  -50.4429 H         1 UNK         0.0600 
    209 H209       -8.2248  -22.3271  -50.7044 H         1 UNK         0.0600 
    210 H210       -6.9890  -19.1696  -48.5474 H         1 UNK         0.3000 
    211 H211       -7.5614  -17.0331  -48.6660 H         1 UNK         0.0600 
    212 H212       -9.1909  -17.7466  -51.1628 H         1 UNK         0.0600 
    213 H213       -9.4312  -16.3597  -50.1113 H         1 UNK         0.0600 
    214 H214       -9.7381  -17.9771  -49.5027 H         1 UNK         0.0600 
    215 H215       -5.1933  -17.9890  -50.1125 H         1 UNK         0.3000 
    216 H216       -3.4472  -17.2947  -51.2651 H         1 UNK         0.0600 
    217 H217       -4.6347  -14.4769  -51.1439 H         1 UNK         0.0600 
    218 H218       -2.9565  -14.8866  -51.4485 H         1 UNK         0.0600 
    219 H219       -3.6627  -15.2212  -49.8770 H         1 UNK         0.0600 
    220 H220       -5.7512  -18.3368  -52.7996 H         1 UNK         0.3000 
    221 H221       -4.8072  -17.5561  -55.4401 H         1 UNK         0.0600 
    222 H222       -7.6503  -16.7816  -54.5894 H         1 UNK         0.0600 
    223 H223       -6.3681  -15.6741  -55.0720 H         1 UNK         0.0600 
    224 H224       -7.0671  -16.7678  -56.2502 H         1 UNK         0.0600 
    225 H225       -7.1808  -19.5066  -53.5285 H         1 UNK         0.3000 
    226 H226       -8.2410  -20.6730  -55.9212 H         1 UNK         0.0600 
    227 H227       -9.6297  -20.2158  -53.9431 H         1 UNK         0.0600 
    228 H228       -9.6910  -21.9212  -54.3590 H         1 UNK         0.0600 
    229 H229       -8.7254  -21.3877  -52.9935 H         1 UNK         0.0600 
    230 H230       -5.6523  -21.7328  -53.7892 H         1 UNK         0.3000 
    231 H231       -5.4983  -24.3328  -55.2986 H         1 UNK         0.0600 
    232 H232       -5.0505  -23.8316  -52.3211 H         1 UNK         0.0600 
    233 H233       -6.3368  -24.7889  -53.0437 H         1 UNK         0.0600 
    234 H234       -4.6693  -25.3360  -53.1495 H         1 UNK         0.0600 
    235 H235       -3.7760  -21.5698  -53.9907 H         1 UNK         0.3000 
    236 H236       -1.7161  -20.7741  -54.2048 H         1 UNK         0.0600 
    237 H237       -2.4789  -20.7365  -56.5843 H         1 UNK         0.0600 
    238 H238       -0.7343  -20.8839  -56.4641 H         1 UNK         0.0600 
    239 H239       -1.7053  -22.2967  -56.8597 H         1 UNK         0.0600 
    240 H240       -1.8447  -23.3349  -52.7625 H         1 UNK         0.3000 
    241 H241       -0.5636  -24.6920  -51.6418 H         1 UNK         0.0600 
    242 H242       -0.5443  -26.7744  -54.9076 H         1 UNK         0.3800 
    243 H243       -1.4032  -25.2765  -54.6471 H         1 UNK         0.3800 
    244 H244        1.9718  -23.5471  -52.8763 H         1 UNK         0.0800 
    245 H245        1.8685  -24.5423  -51.4551 H         1 UNK         0.0800 
    246 H246        3.3711  -21.7493  -51.7530 H         1 UNK         0.0800 
    247 H247        2.1229  -21.0182  -52.7332 H         1 UNK         0.0800 
@<TRIPOS>BOND
     1    1    2 1    
     2    1  127 1    
     3    1  128 1    
     4    1  129 1    
     5    2    3 2    
     6    2    4 am   BACKBONE|DICT|INTERRES
     7    4    5 1    
     8    4  130 1    
     9    5    6 1    
    10    5   65 1    
    11    5  131 1    
    12    6    7 1    
    13    6  132 1    
    14    6  133 1    
    15    7    8 1    
    16    8    9 1    
    17    8  134 1    
    18    8  135 1    
    19    9   10 ar   
    20    9   14 ar   
    21   10   11 ar   
    22   10  136 1    
    23   11   12 ar   
    24   11  126 1    
    25   12   13 ar   
    26   12  137 1    
    27   13   14 ar   
    28   13   15 1    
    29   14  138 1    
    30   15   16 1    
    31   15  139 1    
    32   15  140 1    
    33   16   17 1    
    34   17   18 1    
    35   17  141 1    
    36   17  142 1    
    37   18   19 1    
    38   18   67 1    
    39   18  143 1    
    40   19   20 am   BACKBONE|DICT|INTERRES
    41   19  144 1    
    42   20   21 2    
    43   20   22 1    
    44   22   23 1    
    45   22   24 1    
    46   22  145 1    
    47   23  146 1    
    48   23  147 1    
    49   23  148 1    
    50   24   25 am   BACKBONE|DICT|INTERRES
    51   24  149 1    
    52   25   26 2    
    53   25   27 1    
    54   27   28 1    
    55   27   29 1    
    56   27  150 1    
    57   28  151 1    
    58   28  152 1    
    59   28  153 1    
    60   29   30 am   BACKBONE|DICT|INTERRES
    61   29  154 1    
    62   30   31 2    
    63   30   32 1    
    64   32   33 1    
    65   32   34 1    
    66   32  155 1    
    67   33  156 1    
    68   33  157 1    
    69   33  158 1    
    70   34   35 am   BACKBONE|DICT|INTERRES
    71   34  159 1    
    72   35   36 2    
    73   35   37 1    
    74   37   38 1    
    75   37   39 1    
    76   37  160 1    
    77   38  161 1    
    78   38  162 1    
    79   38  163 1    
    80   39   40 am   BACKBONE|DICT|INTERRES
    81   39  164 1    
    82   40   41 2    
    83   40   42 1    
    84   42   43 1    
    85   42   44 1    
    86   42  165 1    
    87   43  166 1    
    88   43  167 1    
    89   43  168 1    
    90   44   45 am   BACKBONE|DICT|INTERRES
    91   44  169 1    
    92   45   46 2    
    93   45   47 1    
    94   47   48 1    
    95   47   49 1    
    96   47  170 1    
    97   48  171 1    
    98   48  172 1    
    99   48  173 1    
   100   49   50 am   BACKBONE|DICT|INTERRES
   101   49  174 1    
   102   50   51 2    
   103   50   52 1    
   104   52   53 1    
   105   52   54 1    
   106   52  175 1    
   107   53  176 1    
   108   53  177 1    
   109   53  178 1    
   110   54   55 am   BACKBONE|DICT|INTERRES
   111   54  179 1    
   112   55   56 2    
   113   55   57 1    
   114   57   58 1    
   115   57   59 1    
   116   57  180 1    
   117   58  181 1    
   118   58  182 1    
   119   58  183 1    
   120   59   60 am   BACKBONE|DICT|INTERRES
   121   59  184 1    
   122   60   61 2    
   123   60   62 1    
   124   62   63 1    
   125   62   64 1    
   126   62  185 1    
   127   63  186 1    
   128   63  187 1    
   129   63  188 1    
   130   64   65 am   BACKBONE|DICT|INTERRES
   131   64  189 1    
   132   65   66 2    
   133   67   68 2    
   134   67   69 am   BACKBONE|DICT|INTERRES
   135   69   70 1    
   136   69  190 1    
   137   70   71 1    
   138   70   72 1    
   139   70  191 1    
   140   71  192 1    
   141   71  193 1    
   142   71  194 1    
   143   72   73 2    
   144   72   74 am   BACKBONE|DICT|INTERRES
   145   74   75 1    
   146   74  195 1    
   147   75   76 1    
   148   75   77 1    
   149   75  196 1    
   150   76  197 1    
   151   76  198 1    
   152   76  199 1    
   153   77   78 2    
   154   77   79 am   BACKBONE|DICT|INTERRES
   155   79   80 1    
   156   79  200 1    
   157   80   81 1    
   158   80   82 1    
   159   80  201 1    
   160   81  202 1    
   161   81  203 1    
   162   81  204 1    
   163   82   83 2    
   164   82   84 am   BACKBONE|DICT|INTERRES
   165   84   85 1    
   166   84  205 1    
   167   85   86 1    
   168   85   87 1    
   169   85  206 1    
   170   86  207 1    
   171   86  208 1    
   172   86  209 1    
   173   87   88 2    
   174   87   89 am   BACKBONE|DICT|INTERRES
   175   89   90 1    
   176   89  210 1    
   177   90   91 1    
   178   90   92 1    
   179   90  211 1    
   180   91  212 1    
   181   91  213 1    
   182   91  214 1    
   183   92   93 2    
   184   92   94 am   BACKBONE|DICT|INTERRES
   185   94   95 1    
   186   94  215 1    
   187   95   96 1    
   188   95   97 1    
   189   95  216 1    
   190   96  217 1    
   191   96  218 1    
   192   96  219 1    
   193   97   98 2    
   194   97   99 am   BACKBONE|DICT|INTERRES
   195   99  100 1    
   196   99  220 1    
   197  100  101 1    
   198  100  102 1    
   199  100  221 1    
   200  101  222 1    
   201  101  223 1    
   202  101  224 1    
   203  102  103 2    
   204  102  104 am   BACKBONE|DICT|INTERRES
   205  104  105 1    
   206  104  225 1    
   207  105  106 1    
   208  105  107 1    
   209  105  226 1    
   210  106  227 1    
   211  106  228 1    
   212  106  229 1    
   213  107  108 2    
   214  107  109 am   BACKBONE|DICT|INTERRES
   215  109  110 1    
   216  109  230 1    
   217  110  111 1    
   218  110  112 1    
   219  110  231 1    
   220  111  232 1    
   221  111  233 1    
   222  111  234 1    
   223  112  113 2    
   224  112  114 am   BACKBONE|DICT|INTERRES
   225  114  115 1    
   226  114  235 1    
   227  115  116 1    
   228  115  117 1    
   229  115  236 1    
   230  116  237 1    
   231  116  238 1    
   232  116  239 1    
   233  117  118 2    
   234  117  119 am   BACKBONE|DICT|INTERRES
   235  119  120 1    
   236  119  240 1    
   237  120  121 1    
   238  120  124 1    
   239  120  241 1    
   240  121  122 am   BACKBONE|DICT|INTERRES
   241  121  123 2    
   242  122  242 1    
   243  122  243 1    
   244  124  125 1    
   245  124  244 1    
   246  124  245 1    
   247  125  126 1    
   248  126  246 1    
   249  126  247 1    
@<TRIPOS>SUBSTRUCTURE
     1 UNK         1 GROUP             0       ****    0 ROOT    
