@<TRIPOS>MOLECULE
3R540
247   249    1
SMALL
USER_CHARGES


@<TRIPOS>ATOM
      1 CA         -6.3315  -15.6468  -50.9167 C.3       0 UNK        -0.1800 
      2 C          -5.3017  -14.7791  -50.2060 C.2       0 UNK         0.5000 
      3 O          -5.3004  -13.5602  -50.3819 O.2       0 UNK        -0.5000 
      4 N          -4.4223  -15.4028  -49.4141 N.am      1 UNK        -0.5000 
      5 CA         -3.3819  -14.7363  -48.6240 C.3       1 UNK         0.1400 
      6 C6         -2.2921  -15.7264  -48.1426 C.3       23 UNK        -0.0398 
      7 S7         -1.5566  -16.7169  -49.4819 S.3       23 UNK        -0.2404 
      8 C8         -0.1209  -15.7123  -49.9526 C.3       23 UNK        -0.0205 
      9 C9          0.8215  -16.5298  -50.8176 C.ar      23 UNK        -0.0193 
     10 C10         0.5075  -16.7857  -52.1552 C.ar      23 UNK        -0.1150 
     11 C11         1.3441  -17.5745  -52.9517 C.ar      23 UNK        -0.0193 
     12 C12         2.5115  -18.1008  -52.3855 C.ar      23 UNK        -0.1150 
     13 C13         2.8346  -17.8558  -51.0487 C.ar      23 UNK        -0.0193 
     14 C14         1.9899  -17.0626  -50.2702 C.ar      23 UNK        -0.1150 
     15 C15         4.0915  -18.4648  -50.4499 C.3       23 UNK        -0.0205 
     16 S16         3.8316  -20.2050  -49.9863 S.3       23 UNK        -0.2404 
     17 C17         2.9458  -20.0321  -48.4013 C.3       23 UNK        -0.0398 
     18 CA          2.0493  -21.2542  -48.0836 C.3       11 UNK         0.1400 
     19 N           1.9538  -21.4926  -46.6403 N.am      11 UNK        -0.5000 
     20 C           1.5172  -22.6303  -46.0818 C.2       10 UNK         0.5000 
     21 O           1.1911  -23.6287  -46.7235 O.2       10 UNK        -0.5000 
     22 CA          1.3976  -22.6492  -44.5466 C.3       10 UNK         0.1400 
     23 CB          2.7456  -23.0034  -43.9010 C.3       10 UNK        -0.1800 
     24 N           0.9057  -21.3833  -44.0000 N.am      10 UNK        -0.5000 
     25 C          -0.3198  -20.8881  -44.2230 C.2       9 UNK         0.5000 
     26 O          -1.1802  -21.4791  -44.8745 O.2       9 UNK        -0.5000 
     27 CA         -0.6185  -19.4802  -43.6701 C.3       9 UNK         0.1400 
     28 CB         -0.9827  -19.5417  -42.1795 C.3       9 UNK        -0.1800 
     29 N           0.4937  -18.5478  -43.8612 N.am      9 UNK        -0.5000 
     30 C           0.9780  -18.1736  -45.0542 C.2       8 UNK         0.5000 
     31 O           0.5140  -18.5438  -46.1307 O.2       8 UNK        -0.5000 
     32 CA          2.2293  -17.2821  -45.0415 C.3       8 UNK         0.1400 
     33 CB          1.8591  -15.8120  -44.7883 C.3       8 UNK        -0.1800 
     34 N           3.2043  -17.7346  -44.0487 N.am      8 UNK        -0.5000 
     35 C           3.8935  -18.8816  -44.1407 C.2       7 UNK         0.5000 
     36 O           3.8015  -19.6590  -45.0901 O.2       7 UNK        -0.5000 
     37 CA          4.8016  -19.2415  -42.9511 C.3       7 UNK         0.1400 
     38 CB          6.1405  -18.4947  -43.0439 C.3       7 UNK        -0.1800 
     39 N           4.1729  -18.9552  -41.6612 N.am      7 UNK        -0.5000 
     40 C           3.0847  -19.5827  -41.1926 C.2       6 UNK         0.5000 
     41 O           2.5212  -20.5039  -41.7808 O.2       6 UNK        -0.5000 
     42 CA          2.4961  -19.0580  -39.8702 C.3       6 UNK         0.1400 
     43 CB          3.1506  -19.7610  -38.6719 C.3       6 UNK        -0.1800 
     44 N           2.6242  -17.6064  -39.7129 N.am      6 UNK        -0.5000 
     45 C           2.0777  -16.7002  -40.5331 C.2       5 UNK         0.5000 
     46 O           1.4187  -16.9886  -41.5375 O.2       5 UNK        -0.5000 
     47 CA          2.3602  -15.2300  -40.2035 C.3       5 UNK         0.1400 
     48 CB          3.7349  -14.8063  -40.7467 C.3       5 UNK        -0.1800 
     49 N           1.3283  -14.4140  -40.8274 N.am      5 UNK        -0.5000 
     50 C           0.7129  -13.3651  -40.2740 C.2       4 UNK         0.5000 
     51 O           1.0084  -12.9042  -39.1704 O.2       4 UNK        -0.5000 
     52 CA         -0.4234  -12.7108  -41.0865 C.3       4 UNK         0.1400 
     53 CB          0.0169  -11.3388  -41.6218 C.3       4 UNK        -0.1800 
     54 N          -0.8951  -13.5179  -42.2156 N.am      4 UNK        -0.5000 
     55 C          -1.6427  -14.6269  -42.1208 C.2       3 UNK         0.5000 
     56 O          -1.9765  -15.1351  -41.0496 O.2       3 UNK        -0.5000 
     57 CA         -2.0910  -15.2484  -43.4624 C.3       3 UNK         0.1400 
     58 CB         -3.2271  -16.2799  -43.3079 C.3       3 UNK        -0.1800 
     59 N          -2.4448  -14.2384  -44.4708 N.am      3 UNK        -0.5000 
     60 C          -3.3904  -13.2860  -44.3749 C.2       2 UNK         0.5000 
     61 O          -4.1054  -13.1143  -43.3873 O.2       2 UNK        -0.5000 
     62 CA         -3.5666  -12.3654  -45.6004 C.3       2 UNK         0.1400 
     63 CB         -2.6887  -11.1123  -45.4568 C.3       2 UNK        -0.1800 
     64 N          -3.2487  -13.0345  -46.8658 N.am      2 UNK        -0.5000 
     65 C          -3.9863  -14.0185  -47.3990 C.2       1 UNK         0.5000 
     66 O          -5.0576  -14.4021  -46.9216 O.2       1 UNK        -0.5000 
     67 C           0.6564  -21.1492  -48.7472 C.2       11 UNK         0.5000 
     68 O           0.4757  -21.6499  -49.8569 O.2       11 UNK        -0.5000 
     69 N          -0.3095  -20.5413  -48.0408 N.am      12 UNK        -0.5000 
     70 CA         -1.7185  -20.4700  -48.4337 C.3       12 UNK         0.1400 
     71 CB         -2.4650  -19.5138  -47.4890 C.3       12 UNK        -0.1800 
     72 C          -2.4061  -21.8462  -48.4175 C.2       12 UNK         0.5000 
     73 O          -3.2294  -22.1200  -49.2900 O.2       12 UNK        -0.5000 
     74 N          -2.0517  -22.6719  -47.4233 N.am      13 UNK        -0.5000 
     75 CA         -2.6018  -23.9921  -47.1103 C.3       13 UNK         0.1400 
     76 CB         -2.4451  -24.9607  -48.3038 C.3       13 UNK        -0.1800 
     77 C          -4.0521  -23.9237  -46.5852 C.2       13 UNK         0.5000 
     78 O          -4.5963  -22.8361  -46.3686 O.2       13 UNK        -0.5000 
     79 N          -4.6460  -25.1025  -46.3510 N.am      14 UNK        -0.5000 
     80 CA         -6.0111  -25.2813  -45.8523 C.3       14 UNK         0.1400 
     81 CB         -6.3025  -26.7821  -45.7033 C.3       14 UNK        -0.1800 
     82 C          -7.0489  -24.6142  -46.7718 C.2       14 UNK         0.5000 
     83 O          -7.0182  -24.8386  -47.9832 O.2       14 UNK        -0.5000 
     84 N          -7.9075  -23.7702  -46.1819 N.am      15 UNK        -0.5000 
     85 CA         -8.9370  -22.9519  -46.8400 C.3       15 UNK         0.1400 
     86 CB        -10.0520  -23.8526  -47.4122 C.3       15 UNK        -0.1800 
     87 C          -8.3840  -21.9631  -47.8947 C.2       15 UNK         0.5000 
     88 O          -9.1381  -21.5159  -48.7602 O.2       15 UNK        -0.5000 
     89 N          -7.0800  -21.6514  -47.8116 N.am      16 UNK        -0.5000 
     90 CA         -6.2914  -20.8626  -48.7623 C.3       16 UNK         0.1400 
     91 CB         -6.7429  -19.3875  -48.7725 C.3       16 UNK        -0.1800 
     92 C          -6.2341  -21.4893  -50.1752 C.2       16 UNK         0.5000 
     93 O          -6.1205  -20.7633  -51.1631 O.2       16 UNK        -0.5000 
     94 N          -6.3127  -22.8264  -50.2587 N.am      17 UNK        -0.5000 
     95 CA         -6.3819  -23.5820  -51.5120 C.3       17 UNK         0.1400 
     96 CB         -6.6704  -25.0568  -51.1954 C.3       17 UNK        -0.1800 
     97 C          -5.1377  -23.4655  -52.4146 C.2       17 UNK         0.5000 
     98 O          -5.2736  -23.5842  -53.6331 O.2       17 UNK        -0.5000 
     99 N          -3.9582  -23.2376  -51.8223 N.am      18 UNK        -0.5000 
    100 CA        -2.6903  -23.1010  -52.5400 C.3       18 UNK         0.1400 
    101 CB        -1.5808  -23.8201  -51.7577 C.3       18 UNK        -0.1800 
    102 C         -2.3151  -21.6320  -52.8055 C.2       18 UNK         0.5000 
    103 O         -1.3544  -21.3927  -53.5367 O.2       18 UNK        -0.5000 
    104 N         -3.0793  -20.6691  -52.2665 N.am      19 UNK        -0.5000 
    105 CA        -2.8346  -19.2270  -52.4014 C.3       19 UNK         0.1400 
    106 CB        -3.8381  -18.4602  -51.5291 C.3       19 UNK        -0.1800 
    107 C         -2.8948  -18.7046  -53.8514 C.2       19 UNK         0.5000 
    108 O         -2.2927  -17.6741  -54.1487 O.2       19 UNK        -0.5000 
    109 N         -3.6093  -19.4224  -54.7268 N.am      20 UNK        -0.5000 
    110 CA        -3.6987  -19.1357  -56.1584 C.3       20 UNK         0.1400 
    111 CB        -5.0868  -19.5738  -56.6524 C.3       20 UNK        -0.1800 
    112 C         -2.5962  -19.8320  -56.9833 C.2       20 UNK         0.5000 
    113 O         -2.4017  -19.4647  -58.1428 O.2       20 UNK        -0.5000 
    114 N         -1.9245  -20.8364  -56.4028 N.am      21 UNK        -0.5000 
    115 CA        -0.9692  -21.7090  -57.0903 C.3       21 UNK         0.1400 
    116 CB        -1.3481  -23.1707  -56.8001 C.3       21 UNK        -0.1800 
    117 C          0.4868  -21.4514  -56.6680 C.2       21 UNK         0.5000 
    118 O          1.3875  -21.6360  -57.4869 O.2       21 UNK        -0.5000 
    119 N          0.6899  -21.0572  -55.4041 N.am      22 UNK        -0.5000 
    120 CA         1.9886  -20.8637  -54.7331 C.3       22 UNK         0.1400 
    121 C          2.7475  -22.1945  -54.4315 C.2       22 UNK         0.5000 
    122 N          2.0967  -23.3516  -54.4663 N.am      22 UNK        -0.7600 
    123 O          3.9391  -22.1842  -54.1350 O.2       22 UNK        -0.5000 
    124 C124        2.9043  -19.8025  -55.4186 C.3       23 UNK        -0.0398 
    125 S125        2.2689  -18.0901  -55.6026 S.3       23 UNK        -0.2404 
    126 C126        0.9165  -17.8740  -54.3893 C.3       23 UNK        -0.0205 
    127 H127       -6.2496  -16.6943  -50.6273 H         1 UNK         0.0600 
    128 H128       -6.1958  -15.5815  -51.9964 H         1 UNK         0.0600 
    129 H129       -7.3390  -15.3072  -50.6765 H         1 UNK         0.0600 
    130 H130       -4.4800  -16.4028  -49.2965 H         1 UNK         0.3000 
    131 H131       -2.9061  -13.9854  -49.2585 H         1 UNK         0.0600 
    132 H132       -2.7153  -16.4235  -47.4174 H         1 UNK         0.0800 
    133 H133       -1.4922  -15.2024  -47.6176 H         1 UNK         0.0800 
    134 H134        0.3963  -15.3601  -49.0589 H         1 UNK         0.0800 
    135 H135       -0.4548  -14.8264  -50.4947 H         1 UNK         0.0800 
    136 H136       -0.4098  -16.3889  -52.5683 H         1 UNK         0.1150 
    137 H137        3.1729  -18.7212  -52.9669 H         1 UNK         0.1150 
    138 H138        2.2312  -16.8744  -49.2336 H         1 UNK         0.1150 
    139 H139        4.9014  -18.4123  -51.1790 H         1 UNK         0.0800 
    140 H140        4.4266  -17.8953  -49.5815 H         1 UNK         0.0800 
    141 H141        2.3732  -19.1047  -48.3683 H         1 UNK         0.0800 
    142 H142        3.7217  -19.9265  -47.6437 H         1 UNK         0.0800 
    143 H143        2.5312  -22.1410  -48.5017 H         1 UNK         0.0600 
    144 H144        2.2516  -20.7366  -46.0342 H         1 UNK         0.3000 
    145 H145        0.6805  -23.4287  -44.2808 H         1 UNK         0.0600 
    146 H146        2.6481  -23.1108  -42.8206 H         1 UNK         0.0600 
    147 H147        3.1287  -23.9483  -44.2881 H         1 UNK         0.0600 
    148 H148        3.4984  -22.2388  -44.0943 H         1 UNK         0.0600 
    149 H149        1.5403  -20.8743  -43.3909 H         1 UNK         0.3000 
    150 H150       -1.4778  -19.0832  -44.2147 H         1 UNK         0.0600 
    151 H151       -1.8766  -20.1464  -42.0228 H         1 UNK         0.0600 
    152 H152       -1.1838  -18.5485  -41.7776 H         1 UNK         0.0600 
    153 H153       -0.1813  -19.9828  -41.5873 H         1 UNK         0.0600 
    154 H154        0.9240  -18.1695  -43.0224 H         1 UNK         0.3000 
    155 H155        2.6938  -17.3476  -46.0280 H         1 UNK         0.0600 
    156 H156        1.3888  -15.6697  -43.8162 H         1 UNK         0.0600 
    157 H157        1.1611  -15.4522  -45.5454 H         1 UNK         0.0600 
    158 H158        2.7405  -15.1719  -44.8299 H         1 UNK         0.0600 
    159 H159        3.2896  -17.1824  -43.2088 H         1 UNK         0.3000 
    160 H160        5.0040  -20.3137  -42.9992 H         1 UNK         0.0600 
    161 H161        6.0075  -17.4145  -42.9713 H         1 UNK         0.0600 
    162 H162        6.6371  -18.7016  -43.9929 H         1 UNK         0.0600 
    163 H163        6.8197  -18.8036  -42.2491 H         1 UNK         0.0600 
    164 H164        4.5737  -18.2108  -41.1104 H         1 UNK         0.3000 
    165 H165        1.4313  -19.2985  -39.8657 H         1 UNK         0.0600 
    166 H166        2.6803  -19.4634  -37.7346 H         1 UNK         0.0600 
    167 H167        3.0515  -20.8444  -38.7536 H         1 UNK         0.0600 
    168 H168        4.2149  -19.5329  -38.6020 H         1 UNK         0.0600 
    169 H169        3.1595  -17.2878  -38.9178 H         1 UNK         0.3000 
    170 H170        2.3383  -15.1096  -39.1183 H         1 UNK         0.0600 
    171 H171        4.5355  -15.3967  -40.2996 H         1 UNK         0.0600 
    172 H172        3.7967  -14.9308  -41.8287 H         1 UNK         0.0600 
    173 H173        3.9398  -13.7598  -40.5200 H         1 UNK         0.0600 
    174 H174        0.9696  -14.7830  -41.6967 H         1 UNK         0.3000 
    175 H175       -1.2620  -12.5575  -40.4041 H         1 UNK         0.0600 
    176 H176        0.8512  -11.4281  -42.3186 H         1 UNK         0.0600 
    177 H177       -0.8009  -10.8352  -42.1380 H         1 UNK         0.0600 
    178 H178        0.3367  -10.6851  -40.8092 H         1 UNK         0.0600 
    179 H179       -0.6762  -13.1672  -43.1362 H         1 UNK         0.3000 
    180 H180       -1.2220  -15.7821  -43.8499 H         1 UNK         0.0600 
    181 H181       -3.4865  -16.7254  -44.2684 H         1 UNK         0.0600 
    182 H182       -4.1290  -15.8294  -42.8926 H         1 UNK         0.0600 
    183 H183       -2.9332  -17.0928  -42.6438 H         1 UNK         0.0600 
    184 H184       -1.9076  -14.2678  -45.3239 H         1 UNK         0.3000 
    185 H185       -4.6115  -12.0491  -45.6313 H         1 UNK         0.0600 
    186 H186       -2.8579  -10.4161  -46.2785 H         1 UNK         0.0600 
    187 H187       -2.9153  -10.5810  -44.5313 H         1 UNK         0.0600 
    188 H188       -1.6269  -11.3611  -45.4398 H         1 UNK         0.0600 
    189 H189       -2.3938  -12.7497  -47.3223 H         1 UNK         0.3000 
    190 H190       -0.0587  -20.0777  -47.1727 H         1 UNK         0.3000 
    191 H191       -1.7628  -20.0683  -49.4481 H         1 UNK         0.0600 
    192 H192       -3.4302  -19.2292  -47.9082 H         1 UNK         0.0600 
    193 H193       -1.8976  -18.6020  -47.3168 H         1 UNK         0.0600 
    194 H194       -2.6529  -19.9646  -46.5143 H         1 UNK         0.0600 
    195 H195       -1.4450  -22.2881  -46.7064 H         1 UNK         0.3000 
    196 H196       -1.9921  -24.3715  -46.2891 H         1 UNK         0.0600 
    197 H197       -3.1493  -24.7383  -49.1061 H         1 UNK         0.0600 
    198 H198       -1.4379  -24.9122  -48.7181 H         1 UNK         0.0600 
    199 H199       -2.6141  -25.9942  -48.0014 H         1 UNK         0.0600 
    200 H200       -4.1420  -25.9487  -46.5701 H         1 UNK         0.3000 
    201 H201       -6.0629  -24.8214  -44.8634 H         1 UNK         0.0600 
    202 H202       -6.2300  -27.3026  -46.6593 H         1 UNK         0.0600 
    203 H203       -7.3086  -26.9474  -45.3157 H         1 UNK         0.0600 
    204 H204       -5.6063  -27.2538  -45.0096 H         1 UNK         0.0600 
    205 H205       -7.8298  -23.6351  -45.1831 H         1 UNK         0.3000 
    206 H206       -9.3808  -22.3353  -46.0573 H         1 UNK         0.0600 
    207 H207      -10.4336  -24.5375  -46.6550 H         1 UNK         0.0600 
    208 H208      -10.8964  -23.2584  -47.7632 H         1 UNK         0.0600 
    209 H209       -9.6989  -24.4472  -48.2553 H         1 UNK         0.0600 
    210 H210       -6.5346  -22.0901  -47.0780 H         1 UNK         0.3000 
    211 H211       -5.2734  -20.8783  -48.3776 H         1 UNK         0.0600 
    212 H212       -6.0490  -18.7739  -49.3465 H         1 UNK         0.0600 
    213 H213       -6.7762  -18.9774  -47.7632 H         1 UNK         0.0600 
    214 H214       -7.7303  -19.2673  -49.2186 H         1 UNK         0.0600 
    215 H215       -6.4155  -23.3646  -49.4055 H         1 UNK         0.3000 
    216 H216       -7.2270  -23.1891  -52.0808 H         1 UNK         0.0600 
    217 H217       -5.8881  -25.4929  -50.5726 H         1 UNK         0.0600 
    218 H218       -6.7354  -25.6508  -52.1079 H         1 UNK         0.0600 
    219 H219       -7.6189  -25.1680  -50.6695 H         1 UNK         0.0600 
    220 H220       -3.9212  -23.0723  -50.8192 H         1 UNK         0.3000 
    221 H221       -2.7621  -23.5873  -53.5148 H         1 UNK         0.0600 
    222 H222       -1.8244  -24.8711  -51.6028 H         1 UNK         0.0600 
    223 H223       -1.4147  -23.3678  -50.7815 H         1 UNK         0.0600 
    224 H224       -0.6332  -23.7814  -52.2965 H         1 UNK         0.0600 
    225 H225       -3.8811  -20.9425  -51.7126 H         1 UNK         0.3000 
    226 H226       -1.8294  -19.0273  -52.0235 H         1 UNK         0.0600 
    227 H227       -4.8611  -18.5944  -51.8804 H         1 UNK         0.0600 
    228 H228       -3.7894  -18.7832  -50.4895 H         1 UNK         0.0600 
    229 H229       -3.6297  -17.3901  -51.5511 H         1 UNK         0.0600 
    230 H230       -4.0972  -20.2405  -54.3920 H         1 UNK         0.3000 
    231 H231       -3.6050  -18.0604  -56.3249 H         1 UNK         0.0600 
    232 H232       -5.2417  -20.6455  -56.5206 H         1 UNK         0.0600 
    233 H233       -5.2140  -19.3515  -57.7127 H         1 UNK         0.0600 
    234 H234       -5.8790  -19.0515  -56.1156 H         1 UNK         0.0600 
    235 H235       -2.0836  -21.0263  -55.4216 H         1 UNK         0.3000 
    236 H236       -1.0253  -21.5599  -58.1707 H         1 UNK         0.0600 
    237 H237       -2.3534  -23.3939  -57.1579 H         1 UNK         0.0600 
    238 H238       -0.6657  -23.8592  -57.3003 H         1 UNK         0.0600 
    239 H239       -1.3167  -23.3929  -55.7328 H         1 UNK         0.0600 
    240 H240       -0.1134  -21.0157  -54.7811 H         1 UNK         0.3000 
    241 H241        1.7390  -20.4914  -53.7406 H         1 UNK         0.0600 
    242 H242        2.5927  -24.2047  -54.2619 H         1 UNK         0.3800 
    243 H243        1.1152  -23.3802  -54.6869 H         1 UNK         0.3800 
    244 H244        3.1977  -20.1487  -56.4097 H         1 UNK         0.0800 
    245 H245        3.8444  -19.7143  -54.8727 H         1 UNK         0.0800 
    246 H246        0.3189  -17.0364  -54.7522 H         1 UNK         0.0800 
    247 H247        0.2409  -18.7259  -54.3924 H         1 UNK         0.0800 
@<TRIPOS>BOND
     1    1    2 1    
     2    1  127 1    
     3    1  128 1    
     4    1  129 1    
     5    2    3 2    
     6    2    4 am   BACKBONE|DICT|INTERRES
     7    4    5 1    
     8    4  130 1    
     9    5    6 1    
    10    5   65 1    
    11    5  131 1    
    12    6    7 1    
    13    6  132 1    
    14    6  133 1    
    15    7    8 1    
    16    8    9 1    
    17    8  134 1    
    18    8  135 1    
    19    9   10 ar   
    20    9   14 ar   
    21   10   11 ar   
    22   10  136 1    
    23   11   12 ar   
    24   11  126 1    
    25   12   13 ar   
    26   12  137 1    
    27   13   14 ar   
    28   13   15 1    
    29   14  138 1    
    30   15   16 1    
    31   15  139 1    
    32   15  140 1    
    33   16   17 1    
    34   17   18 1    
    35   17  141 1    
    36   17  142 1    
    37   18   19 1    
    38   18   67 1    
    39   18  143 1    
    40   19   20 am   BACKBONE|DICT|INTERRES
    41   19  144 1    
    42   20   21 2    
    43   20   22 1    
    44   22   23 1    
    45   22   24 1    
    46   22  145 1    
    47   23  146 1    
    48   23  147 1    
    49   23  148 1    
    50   24   25 am   BACKBONE|DICT|INTERRES
    51   24  149 1    
    52   25   26 2    
    53   25   27 1    
    54   27   28 1    
    55   27   29 1    
    56   27  150 1    
    57   28  151 1    
    58   28  152 1    
    59   28  153 1    
    60   29   30 am   BACKBONE|DICT|INTERRES
    61   29  154 1    
    62   30   31 2    
    63   30   32 1    
    64   32   33 1    
    65   32   34 1    
    66   32  155 1    
    67   33  156 1    
    68   33  157 1    
    69   33  158 1    
    70   34   35 am   BACKBONE|DICT|INTERRES
    71   34  159 1    
    72   35   36 2    
    73   35   37 1    
    74   37   38 1    
    75   37   39 1    
    76   37  160 1    
    77   38  161 1    
    78   38  162 1    
    79   38  163 1    
    80   39   40 am   BACKBONE|DICT|INTERRES
    81   39  164 1    
    82   40   41 2    
    83   40   42 1    
    84   42   43 1    
    85   42   44 1    
    86   42  165 1    
    87   43  166 1    
    88   43  167 1    
    89   43  168 1    
    90   44   45 am   BACKBONE|DICT|INTERRES
    91   44  169 1    
    92   45   46 2    
    93   45   47 1    
    94   47   48 1    
    95   47   49 1    
    96   47  170 1    
    97   48  171 1    
    98   48  172 1    
    99   48  173 1    
   100   49   50 am   BACKBONE|DICT|INTERRES
   101   49  174 1    
   102   50   51 2    
   103   50   52 1    
   104   52   53 1    
   105   52   54 1    
   106   52  175 1    
   107   53  176 1    
   108   53  177 1    
   109   53  178 1    
   110   54   55 am   BACKBONE|DICT|INTERRES
   111   54  179 1    
   112   55   56 2    
   113   55   57 1    
   114   57   58 1    
   115   57   59 1    
   116   57  180 1    
   117   58  181 1    
   118   58  182 1    
   119   58  183 1    
   120   59   60 am   BACKBONE|DICT|INTERRES
   121   59  184 1    
   122   60   61 2    
   123   60   62 1    
   124   62   63 1    
   125   62   64 1    
   126   62  185 1    
   127   63  186 1    
   128   63  187 1    
   129   63  188 1    
   130   64   65 am   BACKBONE|DICT|INTERRES
   131   64  189 1    
   132   65   66 2    
   133   67   68 2    
   134   67   69 am   BACKBONE|DICT|INTERRES
   135   69   70 1    
   136   69  190 1    
   137   70   71 1    
   138   70   72 1    
   139   70  191 1    
   140   71  192 1    
   141   71  193 1    
   142   71  194 1    
   143   72   73 2    
   144   72   74 am   BACKBONE|DICT|INTERRES
   145   74   75 1    
   146   74  195 1    
   147   75   76 1    
   148   75   77 1    
   149   75  196 1    
   150   76  197 1    
   151   76  198 1    
   152   76  199 1    
   153   77   78 2    
   154   77   79 am   BACKBONE|DICT|INTERRES
   155   79   80 1    
   156   79  200 1    
   157   80   81 1    
   158   80   82 1    
   159   80  201 1    
   160   81  202 1    
   161   81  203 1    
   162   81  204 1    
   163   82   83 2    
   164   82   84 am   BACKBONE|DICT|INTERRES
   165   84   85 1    
   166   84  205 1    
   167   85   86 1    
   168   85   87 1    
   169   85  206 1    
   170   86  207 1    
   171   86  208 1    
   172   86  209 1    
   173   87   88 2    
   174   87   89 am   BACKBONE|DICT|INTERRES
   175   89   90 1    
   176   89  210 1    
   177   90   91 1    
   178   90   92 1    
   179   90  211 1    
   180   91  212 1    
   181   91  213 1    
   182   91  214 1    
   183   92   93 2    
   184   92   94 am   BACKBONE|DICT|INTERRES
   185   94   95 1    
   186   94  215 1    
   187   95   96 1    
   188   95   97 1    
   189   95  216 1    
   190   96  217 1    
   191   96  218 1    
   192   96  219 1    
   193   97   98 2    
   194   97   99 am   BACKBONE|DICT|INTERRES
   195   99  100 1    
   196   99  220 1    
   197  100  101 1    
   198  100  102 1    
   199  100  221 1    
   200  101  222 1    
   201  101  223 1    
   202  101  224 1    
   203  102  103 2    
   204  102  104 am   BACKBONE|DICT|INTERRES
   205  104  105 1    
   206  104  225 1    
   207  105  106 1    
   208  105  107 1    
   209  105  226 1    
   210  106  227 1    
   211  106  228 1    
   212  106  229 1    
   213  107  108 2    
   214  107  109 am   BACKBONE|DICT|INTERRES
   215  109  110 1    
   216  109  230 1    
   217  110  111 1    
   218  110  112 1    
   219  110  231 1    
   220  111  232 1    
   221  111  233 1    
   222  111  234 1    
   223  112  113 2    
   224  112  114 am   BACKBONE|DICT|INTERRES
   225  114  115 1    
   226  114  235 1    
   227  115  116 1    
   228  115  117 1    
   229  115  236 1    
   230  116  237 1    
   231  116  238 1    
   232  116  239 1    
   233  117  118 2    
   234  117  119 am   BACKBONE|DICT|INTERRES
   235  119  120 1    
   236  119  240 1    
   237  120  121 1    
   238  120  124 1    
   239  120  241 1    
   240  121  122 am   BACKBONE|DICT|INTERRES
   241  121  123 2    
   242  122  242 1    
   243  122  243 1    
   244  124  125 1    
   245  124  244 1    
   246  124  245 1    
   247  125  126 1    
   248  126  246 1    
   249  126  247 1    
@<TRIPOS>SUBSTRUCTURE
     1 UNK         1 GROUP             0       ****    0 ROOT    
