@<TRIPOS>MOLECULE
3R540
247   249    1
SMALL
USER_CHARGES


@<TRIPOS>ATOM
      1 CA          4.8710  -13.1993  -48.0830 C.3       0 UNK        -0.1800 
      2 C           3.3544  -13.1348  -48.1744 C.2       0 UNK         0.5000 
      3 O           2.6860  -12.9059  -47.1669 O.2       0 UNK        -0.5000 
      4 N           2.7996  -13.3124  -49.3807 N.am      1 UNK        -0.5000 
      5 CA          1.3559  -13.3925  -49.6535 C.3       1 UNK         0.1400 
      6 C6          1.0495  -14.0382  -51.0292 C.3       23 UNK        -0.0398 
      7 S7          1.7220  -15.7259  -51.2598 S.3       23 UNK        -0.2404 
      8 C8          1.4177  -16.5014  -49.6408 C.3       23 UNK        -0.0205 
      9 C9          1.5634  -18.0100  -49.6944 C.ar      23 UNK        -0.0193 
     10 C10         0.4601  -18.7989  -50.0184 C.ar      23 UNK        -0.1150 
     11 C11         0.5563  -20.1944  -50.0512 C.ar      23 UNK        -0.0193 
     12 C12         1.7870  -20.7919  -49.7514 C.ar      23 UNK        -0.1150 
     13 C13         2.9054  -20.0111  -49.4370 C.ar      23 UNK        -0.0193 
     14 C14         2.7850  -18.6195  -49.4049 C.ar      23 UNK        -0.1150 
     15 C15         4.2563  -20.6570  -49.1651 C.3       23 UNK        -0.0205 
     16 S16         4.6354  -20.7383  -47.3870 S.3       23 UNK        -0.2404 
     17 C17         3.6288  -22.1693  -46.8802 C.3       23 UNK        -0.0398 
     18 CA          4.0170  -22.6881  -45.4726 C.3       11 UNK         0.1400 
     19 N           3.6404  -21.7348  -44.4209 N.am      11 UNK        -0.5000 
     20 C           4.0957  -21.7451  -43.1610 C.2       10 UNK         0.5000 
     21 O           4.9696  -22.5126  -42.7567 O.2       10 UNK        -0.5000 
     22 CA          3.4198  -20.7729  -42.1728 C.3       10 UNK         0.1400 
     23 CB          4.0831  -19.3882  -42.2184 C.3       10 UNK        -0.1800 
     24 N           1.9770  -20.6422  -42.4035 N.am      10 UNK        -0.5000 
     25 C           1.0893  -21.6322  -42.2237 C.2       9 UNK         0.5000 
     26 O           1.3903  -22.7469  -41.7982 O.2       9 UNK        -0.5000 
     27 CA         -0.3695  -21.3582  -42.6319 C.3       9 UNK         0.1400 
     28 CB         -1.1206  -20.6224  -41.5127 C.3       9 UNK        -0.1800 
     29 N          -0.4753  -20.6037  -43.8802 N.am      9 UNK        -0.5000 
     30 C          -0.0823  -21.0546  -45.0803 C.2       8 UNK         0.5000 
     31 O           0.3517  -22.1901  -45.2753 O.2       8 UNK        -0.5000 
     32 CA         -0.1334  -20.0531  -46.2494 C.3       8 UNK         0.1400 
     33 CB         -1.5463  -19.9824  -46.8381 C.3       8 UNK        -0.1800 
     34 N           0.3109  -18.7105  -45.8675 N.am      8 UNK        -0.5000 
     35 C           1.5376  -18.4297  -45.4047 C.2       7 UNK         0.5000 
     36 O           2.4309  -19.2665  -45.2968 O.2       7 UNK        -0.5000 
     37 CA          1.7869  -16.9997  -44.8999 C.3       7 UNK         0.1400 
     38 CB          2.1312  -16.0454  -46.0486 C.3       7 UNK        -0.1800 
     39 N           0.6424  -16.4887  -44.1482 N.am      7 UNK        -0.5000 
     40 C           0.3215  -16.8989  -42.9132 C.2       6 UNK         0.5000 
     41 O           0.9996  -17.6938  -42.2617 O.2       6 UNK        -0.5000 
     42 CA         -1.0022  -16.3735  -42.3285 C.3       6 UNK         0.1400 
     43 CB         -0.7948  -15.0371  -41.6043 C.3       6 UNK        -0.1800 
     44 N          -2.0402  -16.2267  -43.3507 N.am      6 UNK        -0.5000 
     45 C          -2.6439  -17.2698  -43.9386 C.2       5 UNK         0.5000 
     46 O          -2.4015  -18.4408  -43.6501 O.2       5 UNK        -0.5000 
     47 CA         -3.6596  -16.9720  -45.0555 C.3       5 UNK         0.1400 
     48 CB         -5.0780  -16.8607  -44.4783 C.3       5 UNK        -0.1800 
     49 N          -3.3632  -15.7700  -45.8325 N.am      5 UNK        -0.5000 
     50 C          -2.2495  -15.5513  -46.5439 C.2       4 UNK         0.5000 
     51 O          -1.3045  -16.3403  -46.5962 O.2       4 UNK        -0.5000 
     52 CA         -2.1664  -14.2135  -47.3054 C.3       4 UNK         0.1400 
     53 CB         -3.5349  -13.5344  -47.5253 C.3       4 UNK        -0.1800 
     54 N          -1.2335  -13.2563  -46.7069 N.am      4 UNK        -0.5000 
     55 C          -1.1290  -12.8618  -45.4285 C.2       3 UNK         0.5000 
     56 O          -1.7915  -13.3381  -44.5054 O.2       3 UNK        -0.5000 
     57 CA         -0.1093  -11.7401  -45.1273 C.3       3 UNK         0.1400 
     58 CB          1.0258  -12.2592  -44.2314 C.3       3 UNK        -0.1800 
     59 N           0.4810  -11.1745  -46.3446 N.am      3 UNK        -0.5000 
     60 C          -0.0352  -10.1573  -47.0536 C.2       2 UNK         0.5000 
     61 O          -1.0272   -9.5175  -46.7040 O.2       2 UNK        -0.5000 
     62 CA          0.6454   -9.8236  -48.4016 C.3       2 UNK         0.1400 
     63 CB          1.7172   -8.7400  -48.2116 C.3       2 UNK        -0.1800 
     64 N           1.2582  -10.9990  -49.0258 N.am      2 UNK        -0.5000 
     65 C           0.5765  -12.0750  -49.4421 C.2       1 UNK         0.5000 
     66 O          -0.6477  -12.0816  -49.5627 O.2       1 UNK        -0.5000 
     67 C           3.4221  -24.0982  -45.2470 C.2       11 UNK         0.5000 
     68 O           3.8686  -25.0420  -45.9006 O.2       11 UNK        -0.5000 
     69 N           2.4263  -24.2161  -44.3547 N.am      12 UNK        -0.5000 
     70 CA          1.6242  -25.4061  -44.0554 C.3       12 UNK         0.1400 
     71 CB          2.4860  -26.5080  -43.4055 C.3       12 UNK        -0.1800 
     72 C           0.8246  -25.8979  -45.2800 C.2       12 UNK         0.5000 
     73 O           0.6783  -27.1044  -45.4890 O.2       12 UNK        -0.5000 
     74 N           0.3111  -24.9475  -46.0725 N.am      13 UNK        -0.5000 
     75 CA         -0.4439  -25.1719  -47.3047 C.3       13 UNK         0.1400 
     76 CB         -0.3130  -23.9225  -48.1926 C.3       13 UNK        -0.1800 
     77 C          -1.9117  -25.5538  -47.0202 C.2       13 UNK         0.5000 
     78 O          -2.8357  -24.8778  -47.4765 O.2       13 UNK        -0.5000 
     79 N          -2.1020  -26.6378  -46.2595 N.am      14 UNK        -0.5000 
     80 CA         -3.3924  -27.2242  -45.9002 C.3       14 UNK         0.1400 
     81 CB         -3.2177  -28.0329  -44.6022 C.3       14 UNK        -0.1800 
     82 C          -3.9525  -28.0707  -47.0617 C.2       14 UNK         0.5000 
     83 O          -4.0341  -29.2966  -46.9612 O.2       14 UNK        -0.5000 
     84 N          -4.2944  -27.3960  -48.1616 N.am      15 UNK        -0.5000 
     85 CA         -4.8101  -27.9663  -49.4004 C.3       15 UNK         0.1400 
     86 CB         -3.6305  -28.4237  -50.2794 C.3       15 UNK        -0.1800 
     87 C          -5.6643  -26.9112  -50.1190 C.2       15 UNK         0.5000 
     88 O          -5.6794  -25.7452  -49.7123 O.2       15 UNK        -0.5000 
     89 N          -6.3401  -27.3247  -51.1982 N.am      16 UNK        -0.5000 
     90 CA         -7.1589  -26.4772  -52.0715 C.3       16 UNK         0.1400 
     91 CB         -8.1554  -27.3713  -52.8319 C.3       16 UNK        -0.1800 
     92 C          -6.2987  -25.6050  -53.0152 C.2       16 UNK         0.5000 
     93 O          -6.4265  -25.6901  -54.2386 O.2       16 UNK        -0.5000 
     94 N          -5.4126  -24.7994  -52.4212 N.am      17 UNK        -0.5000 
     95 CA         -4.5357  -23.8448  -53.0937 C.3       17 UNK         0.1400 
     96 CB         -3.3834  -23.5015  -52.1375 C.3       17 UNK        -0.1800 
     97 C          -5.2968  -22.5783  -53.5382 C.2       17 UNK         0.5000 
     98 O          -6.4393  -22.3610  -53.1251 O.2       17 UNK        -0.5000 
     99 N          -4.6463  -21.7672  -54.3829 N.am      18 UNK        -0.5000 
    100 CA        -5.1798  -20.5300  -54.9545 C.3       18 UNK         0.1400 
    101 CB        -4.1998  -20.0075  -56.0184 C.3       18 UNK        -0.1800 
    102 C         -5.4485  -19.4596  -53.8806 C.2       18 UNK         0.5000 
    103 O         -4.5077  -18.8270  -53.3975 O.2       18 UNK        -0.5000 
    104 N         -6.7284  -19.2615  -53.5383 N.am      19 UNK        -0.5000 
    105 CA        -7.2058  -18.3530  -52.4888 C.3       19 UNK         0.1400 
    106 CB        -8.7266  -18.5125  -52.3456 C.3       19 UNK        -0.1800 
    107 C         -6.8373  -16.8699  -52.6968 C.2       19 UNK         0.5000 
    108 O         -6.7802  -16.1208  -51.7219 O.2       19 UNK        -0.5000 
    109 N         -6.5511  -16.4789  -53.9464 N.am      20 UNK        -0.5000 
    110 CA        -6.0345  -15.1592  -54.3158 C.3       20 UNK         0.1400 
    111 CB        -5.9826  -15.0567  -55.8479 C.3       20 UNK        -0.1800 
    112 C         -4.6506  -14.8461  -53.7074 C.2       20 UNK         0.5000 
    113 O         -4.3435  -13.6735  -53.4897 O.2       20 UNK        -0.5000 
    114 N         -3.8555  -15.8901  -53.4370 N.am      21 UNK        -0.5000 
    115 CA        -2.5625  -15.8047  -52.7617 C.3       21 UNK         0.1400 
    116 CB        -1.5137  -16.5605  -53.5935 C.3       21 UNK        -0.1800 
    117 C         -2.6436  -16.3953  -51.3457 C.2       21 UNK         0.5000 
    118 O         -2.0915  -15.8134  -50.4140 O.2       21 UNK        -0.5000 
    119 N         -3.3135  -17.5451  -51.2136 N.am      22 UNK        -0.5000 
    120 CA        -3.3383  -18.3723  -49.9990 C.3       22 UNK         0.1400 
    121 C         -4.5173  -18.0750  -49.0297 C.2       22 UNK         0.5000 
    122 N         -5.3957  -17.1201  -49.3040 N.am      22 UNK        -0.7600 
    123 O         -4.6373  -18.7232  -47.9954 O.2       22 UNK        -0.5000 
    124 C124       -3.2560  -19.8840  -50.3479 C.3       23 UNK        -0.0398 
    125 S125       -1.8876  -20.3146  -51.4893 S.3       23 UNK        -0.2404 
    126 C126       -0.6427  -21.0817  -50.3909 C.3       23 UNK        -0.0205 
    127 H127        5.2642  -12.2561  -47.7042 H         1 UNK         0.0600 
    128 H128        5.3275  -13.3955  -49.0533 H         1 UNK         0.0600 
    129 H129        5.1689  -13.9939  -47.3990 H         1 UNK         0.0600 
    130 H130        3.3986  -13.4800  -50.1771 H         1 UNK         0.3000 
    131 H131        0.9348  -14.0404  -48.8845 H         1 UNK         0.0600 
    132 H132       -0.0287  -14.1061  -51.1850 H         1 UNK         0.0800 
    133 H133        1.4298  -13.4077  -51.8343 H         1 UNK         0.0800 
    134 H134        2.1216  -16.0932  -48.9169 H         1 UNK         0.0800 
    135 H135        0.4148  -16.2513  -49.2895 H         1 UNK         0.0800 
    136 H136       -0.4693  -18.3079  -50.2538 H         1 UNK         0.1150 
    137 H137        1.8792  -21.8685  -49.7749 H         1 UNK         0.1150 
    138 H138        3.6442  -18.0119  -49.1578 H         1 UNK         0.1150 
    139 H139        4.3056  -21.6545  -49.6043 H         1 UNK         0.0800 
    140 H140        5.0353  -20.0744  -49.6589 H         1 UNK         0.0800 
    141 H141        2.5740  -21.8929  -46.9156 H         1 UNK         0.0800 
    142 H142        3.7674  -22.9491  -47.6315 H         1 UNK         0.0800 
    143 H143        5.1022  -22.8073  -45.4421 H         1 UNK         0.0600 
    144 H144        2.9954  -20.9976  -44.6950 H         1 UNK         0.3000 
    145 H145        3.5583  -21.1765  -41.1676 H         1 UNK         0.0600 
    146 H146        3.6307  -18.7097  -41.4949 H         1 UNK         0.0600 
    147 H147        4.0005  -18.9302  -43.2035 H         1 UNK         0.0600 
    148 H148        5.1449  -19.4585  -41.9798 H         1 UNK         0.0600 
    149 H149        1.6473  -19.7410  -42.7278 H         1 UNK         0.3000 
    150 H150       -0.8561  -22.3236  -42.7864 H         1 UNK         0.0600 
    151 H151       -1.0663  -21.1771  -40.5752 H         1 UNK         0.0600 
    152 H152       -2.1759  -20.5038  -41.7590 H         1 UNK         0.0600 
    153 H153       -0.7060  -19.6307  -41.3323 H         1 UNK         0.0600 
    154 H154       -0.8992  -19.6829  -43.8186 H         1 UNK         0.3000 
    155 H155        0.5424  -20.4138  -47.0269 H         1 UNK         0.0600 
    156 H156       -1.8748  -20.9591  -47.1929 H         1 UNK         0.0600 
    157 H157       -1.5793  -19.2961  -47.6815 H         1 UNK         0.0600 
    158 H158       -2.2745  -19.6465  -46.1018 H         1 UNK         0.0600 
    159 H159       -0.3562  -17.9520  -45.9716 H         1 UNK         0.3000 
    160 H160        2.6509  -17.0342  -44.2328 H         1 UNK         0.0600 
    161 H161        1.2766  -15.8636  -46.6990 H         1 UNK         0.0600 
    162 H162        2.9396  -16.4471  -46.6607 H         1 UNK         0.0600 
    163 H163        2.4680  -15.0850  -45.6618 H         1 UNK         0.0600 
    164 H164       -0.0043  -15.8952  -44.6485 H         1 UNK         0.3000 
    165 H165       -1.3481  -17.1012  -41.5910 H         1 UNK         0.0600 
    166 H166       -1.7146  -14.7016  -41.1251 H         1 UNK         0.0600 
    167 H167       -0.0353  -15.1272  -40.8266 H         1 UNK         0.0600 
    168 H168       -0.4721  -14.2568  -42.2907 H         1 UNK         0.0600 
    169 H169       -2.2490  -15.2864  -43.6685 H         1 UNK         0.3000 
    170 H170       -3.6403  -17.8164  -45.7438 H         1 UNK         0.0600 
    171 H171       -5.3388  -17.7538  -43.9087 H         1 UNK         0.0600 
    172 H172       -5.1749  -16.0040  -43.8103 H         1 UNK         0.0600 
    173 H173       -5.8184  -16.7566  -45.2718 H         1 UNK         0.0600 
    174 H174       -4.0684  -15.0481  -45.8249 H         1 UNK         0.3000 
    175 H175       -1.7575  -14.4522  -48.2862 H         1 UNK         0.0600 
    176 H176       -3.9734  -13.1777  -46.5927 H         1 UNK         0.0600 
    177 H177       -3.4345  -12.6757  -48.1895 H         1 UNK         0.0600 
    178 H178       -4.2436  -14.2183  -47.9952 H         1 UNK         0.0600 
    179 H179       -0.6522  -12.7702  -47.3732 H         1 UNK         0.3000 
    180 H180       -0.6363  -10.9541  -44.5827 H         1 UNK         0.0600 
    181 H181        0.6507  -12.5335  -43.2465 H         1 UNK         0.0600 
    182 H182        1.7904  -11.4971  -44.0801 H         1 UNK         0.0600 
    183 H183        1.5093  -13.1375  -44.6590 H         1 UNK         0.0600 
    184 H184        1.3083  -11.6534  -46.6931 H         1 UNK         0.3000 
    185 H185       -0.1208   -9.4374  -49.0771 H         1 UNK         0.0600 
    186 H186        1.2879   -7.8403  -47.7688 H         1 UNK         0.0600 
    187 H187        2.5200   -9.0785  -47.5553 H         1 UNK         0.0600 
    188 H188        2.1607   -8.4522  -49.1650 H         1 UNK         0.0600 
    189 H189        2.2610  -11.0827  -48.9425 H         1 UNK         0.3000 
    190 H190        2.1313  -23.3741  -43.8781 H         1 UNK         0.3000 
    191 H191        0.8829  -25.0934  -43.3190 H         1 UNK         0.0600 
    192 H192        1.8645  -27.3322  -43.0537 H         1 UNK         0.0600 
    193 H193        3.0312  -26.1230  -42.5437 H         1 UNK         0.0600 
    194 H194        3.2122  -26.9232  -44.1047 H         1 UNK         0.0600 
    195 H195        0.4245  -23.9752  -45.7924 H         1 UNK         0.3000 
    196 H196        0.0064  -26.0073  -47.8448 H         1 UNK         0.0600 
    197 H197       -0.7439  -23.0461  -47.7095 H         1 UNK         0.0600 
    198 H198        0.7316  -23.7028  -48.4128 H         1 UNK         0.0600 
    199 H199       -0.8252  -24.0620  -49.1455 H         1 UNK         0.0600 
    200 H200       -1.2742  -27.1286  -45.9369 H         1 UNK         0.3000 
    201 H201       -4.1068  -26.4227  -45.7001 H         1 UNK         0.0600 
    202 H202       -4.1619  -28.4813  -44.2906 H         1 UNK         0.0600 
    203 H203       -2.8761  -27.3965  -43.7857 H         1 UNK         0.0600 
    204 H204       -2.4928  -28.8391  -44.7228 H         1 UNK         0.0600 
    205 H205       -4.2127  -26.3829  -48.1635 H         1 UNK         0.3000 
    206 H206       -5.4523  -28.8190  -49.1704 H         1 UNK         0.0600 
    207 H207       -3.0223  -29.1701  -49.7680 H         1 UNK         0.0600 
    208 H208       -3.9779  -28.8761  -51.2087 H         1 UNK         0.0600 
    209 H209       -2.9808  -27.5878  -50.5425 H         1 UNK         0.0600 
    210 H210       -6.2493  -28.2891  -51.4836 H         1 UNK         0.3000 
    211 H211       -7.7402  -25.7938  -51.4488 H         1 UNK         0.0600 
    212 H212       -7.6442  -28.0893  -53.4745 H         1 UNK         0.0600 
    213 H213       -8.8143  -26.7742  -53.4637 H         1 UNK         0.0600 
    214 H214       -8.7894  -27.9296  -52.1428 H         1 UNK         0.0600 
    215 H215       -5.3917  -24.8012  -51.4063 H         1 UNK         0.3000 
    216 H216       -4.1198  -24.3241  -53.9824 H         1 UNK         0.0600 
    217 H217       -2.8841  -24.4016  -51.7778 H         1 UNK         0.0600 
    218 H218       -3.7325  -22.9433  -51.2677 H         1 UNK         0.0600 
    219 H219       -2.6281  -22.8984  -52.6409 H         1 UNK         0.0600 
    220 H220       -3.6983  -21.9981  -54.6419 H         1 UNK         0.3000 
    221 H221       -6.1209  -20.7672  -55.4550 H         1 UNK         0.0600 
    222 H222       -4.0735  -20.7280  -56.8266 H         1 UNK         0.0600 
    223 H223       -4.5641  -19.0809  -56.4640 H         1 UNK         0.0600 
    224 H224       -3.2153  -19.8022  -55.5953 H         1 UNK         0.0600 
    225 H225       -7.4317  -19.8464  -53.9670 H         1 UNK         0.3000 
    226 H226       -6.7410  -18.6686  -51.5524 H         1 UNK         0.0600 
    227 H227       -8.9938  -19.5393  -52.0951 H         1 UNK         0.0600 
    228 H228       -9.1141  -17.8748  -51.5498 H         1 UNK         0.0600 
    229 H229       -9.2471  -18.2433  -53.2655 H         1 UNK         0.0600 
    230 H230       -6.6323  -17.1588  -54.6876 H         1 UNK         0.3000 
    231 H231       -6.7352  -14.4088  -53.9437 H         1 UNK         0.0600 
    232 H232       -5.6258  -14.0748  -56.1618 H         1 UNK         0.0600 
    233 H233       -6.9704  -15.1974  -56.2872 H         1 UNK         0.0600 
    234 H234       -5.3128  -15.8024  -56.2783 H         1 UNK         0.0600 
    235 H235       -4.1995  -16.8248  -53.6261 H         1 UNK         0.3000 
    236 H236       -2.2382  -14.7660  -52.6704 H         1 UNK         0.0600 
    237 H237       -1.7860  -17.6079  -53.7327 H         1 UNK         0.0600 
    238 H238       -1.3962  -16.1113  -54.5796 H         1 UNK         0.0600 
    239 H239       -0.5385  -16.5387  -53.1067 H         1 UNK         0.0600 
    240 H240       -3.7189  -17.9814  -52.0387 H         1 UNK         0.3000 
    241 H241       -2.4552  -18.1298  -49.4106 H         1 UNK         0.0600 
    242 H242       -5.3657  -16.6039  -50.1727 H         1 UNK         0.3800 
    243 H243       -6.1485  -16.9513  -48.6574 H         1 UNK         0.3800 
    244 H244       -4.1834  -20.1991  -50.8292 H         1 UNK         0.0800 
    245 H245       -3.1772  -20.4847  -49.4412 H         1 UNK         0.0800 
    246 H246       -0.2876  -21.9843  -50.8901 H         1 UNK         0.0800 
    247 H247       -1.1102  -21.4140  -49.4661 H         1 UNK         0.0800 
@<TRIPOS>BOND
     1    1    2 1    
     2    1  127 1    
     3    1  128 1    
     4    1  129 1    
     5    2    3 2    
     6    2    4 am   BACKBONE|DICT|INTERRES
     7    4    5 1    
     8    4  130 1    
     9    5    6 1    
    10    5   65 1    
    11    5  131 1    
    12    6    7 1    
    13    6  132 1    
    14    6  133 1    
    15    7    8 1    
    16    8    9 1    
    17    8  134 1    
    18    8  135 1    
    19    9   10 ar   
    20    9   14 ar   
    21   10   11 ar   
    22   10  136 1    
    23   11   12 ar   
    24   11  126 1    
    25   12   13 ar   
    26   12  137 1    
    27   13   14 ar   
    28   13   15 1    
    29   14  138 1    
    30   15   16 1    
    31   15  139 1    
    32   15  140 1    
    33   16   17 1    
    34   17   18 1    
    35   17  141 1    
    36   17  142 1    
    37   18   19 1    
    38   18   67 1    
    39   18  143 1    
    40   19   20 am   BACKBONE|DICT|INTERRES
    41   19  144 1    
    42   20   21 2    
    43   20   22 1    
    44   22   23 1    
    45   22   24 1    
    46   22  145 1    
    47   23  146 1    
    48   23  147 1    
    49   23  148 1    
    50   24   25 am   BACKBONE|DICT|INTERRES
    51   24  149 1    
    52   25   26 2    
    53   25   27 1    
    54   27   28 1    
    55   27   29 1    
    56   27  150 1    
    57   28  151 1    
    58   28  152 1    
    59   28  153 1    
    60   29   30 am   BACKBONE|DICT|INTERRES
    61   29  154 1    
    62   30   31 2    
    63   30   32 1    
    64   32   33 1    
    65   32   34 1    
    66   32  155 1    
    67   33  156 1    
    68   33  157 1    
    69   33  158 1    
    70   34   35 am   BACKBONE|DICT|INTERRES
    71   34  159 1    
    72   35   36 2    
    73   35   37 1    
    74   37   38 1    
    75   37   39 1    
    76   37  160 1    
    77   38  161 1    
    78   38  162 1    
    79   38  163 1    
    80   39   40 am   BACKBONE|DICT|INTERRES
    81   39  164 1    
    82   40   41 2    
    83   40   42 1    
    84   42   43 1    
    85   42   44 1    
    86   42  165 1    
    87   43  166 1    
    88   43  167 1    
    89   43  168 1    
    90   44   45 am   BACKBONE|DICT|INTERRES
    91   44  169 1    
    92   45   46 2    
    93   45   47 1    
    94   47   48 1    
    95   47   49 1    
    96   47  170 1    
    97   48  171 1    
    98   48  172 1    
    99   48  173 1    
   100   49   50 am   BACKBONE|DICT|INTERRES
   101   49  174 1    
   102   50   51 2    
   103   50   52 1    
   104   52   53 1    
   105   52   54 1    
   106   52  175 1    
   107   53  176 1    
   108   53  177 1    
   109   53  178 1    
   110   54   55 am   BACKBONE|DICT|INTERRES
   111   54  179 1    
   112   55   56 2    
   113   55   57 1    
   114   57   58 1    
   115   57   59 1    
   116   57  180 1    
   117   58  181 1    
   118   58  182 1    
   119   58  183 1    
   120   59   60 am   BACKBONE|DICT|INTERRES
   121   59  184 1    
   122   60   61 2    
   123   60   62 1    
   124   62   63 1    
   125   62   64 1    
   126   62  185 1    
   127   63  186 1    
   128   63  187 1    
   129   63  188 1    
   130   64   65 am   BACKBONE|DICT|INTERRES
   131   64  189 1    
   132   65   66 2    
   133   67   68 2    
   134   67   69 am   BACKBONE|DICT|INTERRES
   135   69   70 1    
   136   69  190 1    
   137   70   71 1    
   138   70   72 1    
   139   70  191 1    
   140   71  192 1    
   141   71  193 1    
   142   71  194 1    
   143   72   73 2    
   144   72   74 am   BACKBONE|DICT|INTERRES
   145   74   75 1    
   146   74  195 1    
   147   75   76 1    
   148   75   77 1    
   149   75  196 1    
   150   76  197 1    
   151   76  198 1    
   152   76  199 1    
   153   77   78 2    
   154   77   79 am   BACKBONE|DICT|INTERRES
   155   79   80 1    
   156   79  200 1    
   157   80   81 1    
   158   80   82 1    
   159   80  201 1    
   160   81  202 1    
   161   81  203 1    
   162   81  204 1    
   163   82   83 2    
   164   82   84 am   BACKBONE|DICT|INTERRES
   165   84   85 1    
   166   84  205 1    
   167   85   86 1    
   168   85   87 1    
   169   85  206 1    
   170   86  207 1    
   171   86  208 1    
   172   86  209 1    
   173   87   88 2    
   174   87   89 am   BACKBONE|DICT|INTERRES
   175   89   90 1    
   176   89  210 1    
   177   90   91 1    
   178   90   92 1    
   179   90  211 1    
   180   91  212 1    
   181   91  213 1    
   182   91  214 1    
   183   92   93 2    
   184   92   94 am   BACKBONE|DICT|INTERRES
   185   94   95 1    
   186   94  215 1    
   187   95   96 1    
   188   95   97 1    
   189   95  216 1    
   190   96  217 1    
   191   96  218 1    
   192   96  219 1    
   193   97   98 2    
   194   97   99 am   BACKBONE|DICT|INTERRES
   195   99  100 1    
   196   99  220 1    
   197  100  101 1    
   198  100  102 1    
   199  100  221 1    
   200  101  222 1    
   201  101  223 1    
   202  101  224 1    
   203  102  103 2    
   204  102  104 am   BACKBONE|DICT|INTERRES
   205  104  105 1    
   206  104  225 1    
   207  105  106 1    
   208  105  107 1    
   209  105  226 1    
   210  106  227 1    
   211  106  228 1    
   212  106  229 1    
   213  107  108 2    
   214  107  109 am   BACKBONE|DICT|INTERRES
   215  109  110 1    
   216  109  230 1    
   217  110  111 1    
   218  110  112 1    
   219  110  231 1    
   220  111  232 1    
   221  111  233 1    
   222  111  234 1    
   223  112  113 2    
   224  112  114 am   BACKBONE|DICT|INTERRES
   225  114  115 1    
   226  114  235 1    
   227  115  116 1    
   228  115  117 1    
   229  115  236 1    
   230  116  237 1    
   231  116  238 1    
   232  116  239 1    
   233  117  118 2    
   234  117  119 am   BACKBONE|DICT|INTERRES
   235  119  120 1    
   236  119  240 1    
   237  120  121 1    
   238  120  124 1    
   239  120  241 1    
   240  121  122 am   BACKBONE|DICT|INTERRES
   241  121  123 2    
   242  122  242 1    
   243  122  243 1    
   244  124  125 1    
   245  124  244 1    
   246  124  245 1    
   247  125  126 1    
   248  126  246 1    
   249  126  247 1    
@<TRIPOS>SUBSTRUCTURE
     1 UNK         1 GROUP             0       ****    0 ROOT    
