@<TRIPOS>MOLECULE
3R540
247   249    1
SMALL
USER_CHARGES


@<TRIPOS>ATOM
      1 CA          3.8781  -15.8760  -47.2542 C.3       0 UNK        -0.1800 
      2 C           3.0514  -14.6146  -47.4521 C.2       0 UNK         0.5000 
      3 O           3.2223  -13.9284  -48.4594 O.2       0 UNK        -0.5000 
      4 N           2.1772  -14.2983  -46.4858 N.am      1 UNK        -0.5000 
      5 CA          1.3409  -13.0891  -46.4226 C.3       1 UNK         0.1400 
      6 C6          0.2397  -13.0375  -47.5173 C.3       23 UNK        -0.0398 
      7 S7         -1.0305  -14.3198  -47.2655 S.3       23 UNK        -0.2404 
      8 C8         -0.6717  -15.4914  -48.6057 C.3       23 UNK        -0.0205 
      9 C9         -1.7078  -16.6042  -48.6254 C.ar      23 UNK        -0.0193 
     10 C10        -2.9434  -16.4003  -49.2462 C.ar      23 UNK        -0.1150 
     11 C11        -3.9149  -17.4057  -49.2448 C.ar      23 UNK        -0.0193 
     12 C12        -3.6403  -18.6257  -48.6200 C.ar      23 UNK        -0.1150 
     13 C13        -2.4110  -18.8398  -47.9893 C.ar      23 UNK        -0.0193 
     14 C14        -1.4477  -17.8268  -48.0010 C.ar      23 UNK        -0.1150 
     15 C15        -2.1379  -20.1517  -47.2706 C.3       23 UNK        -0.0205 
     16 S16        -2.3199  -19.9385  -45.4702 S.3       23 UNK        -0.2404 
     17 C17        -2.3374  -21.6135  -44.7255 C.3       23 UNK        -0.0398 
     18 CA         -1.9678  -22.8201  -45.6234 C.3       11 UNK         0.1400 
     19 N          -0.5852  -22.7684  -46.1198 N.am      11 UNK        -0.5000 
     20 C          -0.0800  -23.5977  -47.0486 C.2       10 UNK         0.5000 
     21 O          -0.7441  -24.4843  -47.5863 O.2       10 UNK        -0.5000 
     22 CA          1.3985  -23.4401  -47.4505 C.3       10 UNK         0.1400 
     23 CB          1.5001  -22.6603  -48.7698 C.3       10 UNK        -0.1800 
     24 N           2.2233  -22.7744  -46.4447 N.am      10 UNK        -0.5000 
     25 C           2.4693  -23.2233  -45.2051 C.2       9 UNK         0.5000 
     26 O           2.0717  -24.3071  -44.7784 O.2       9 UNK        -0.5000 
     27 CA          3.2346  -22.2630  -44.2693 C.3       9 UNK         0.1400 
     28 CB          4.7352  -22.5901  -44.2728 C.3       9 UNK        -0.1800 
     29 N           3.0475  -20.8451  -44.6094 N.am      9 UNK        -0.5000 
     30 C           1.8621  -20.2212  -44.6230 C.2       8 UNK         0.5000 
     31 O           0.8020  -20.7713  -44.3139 O.2       8 UNK        -0.5000 
     32 CA          1.8452  -18.7828  -45.1551 C.3       8 UNK         0.1400 
     33 CB          2.0021  -18.7846  -46.6855 C.3       8 UNK        -0.1800 
     34 N           0.5627  -18.1849  -44.8078 N.am      8 UNK        -0.5000 
     35 C           0.3587  -16.9171  -44.4476 C.2       7 UNK         0.5000 
     36 O           1.2392  -16.0501  -44.4398 O.2       7 UNK        -0.5000 
     37 CA         -1.0701  -16.5727  -44.0035 C.3       7 UNK         0.1400 
     38 CB         -1.4264  -17.2778  -42.6799 C.3       7 UNK        -0.1800 
     39 N          -1.1806  -15.1285  -43.8443 N.am      7 UNK        -0.5000 
     40 C          -2.3165  -14.4229  -43.8277 C.2       6 UNK         0.5000 
     41 O          -3.4335  -14.9337  -43.9293 O.2       6 UNK        -0.5000 
     42 CA         -2.1802  -12.8879  -43.6896 C.3       6 UNK         0.1400 
     43 CB         -3.4340  -12.2350  -43.0717 C.3       6 UNK        -0.1800 
     44 N          -0.9760  -12.4411  -42.9746 N.am      6 UNK        -0.5000 
     45 C          -0.6059  -12.7605  -41.7237 C.2       5 UNK         0.5000 
     46 O          -1.2173  -13.5403  -40.9929 O.2       5 UNK        -0.5000 
     47 CA          0.6690  -12.0746  -41.1993 C.3       5 UNK         0.1400 
     48 CB          1.9137  -12.8593  -41.6437 C.3       5 UNK        -0.1800 
     49 N           0.7882  -10.6757  -41.6266 N.am      5 UNK        -0.5000 
     50 C          -0.0385   -9.6908  -41.2337 C.2       4 UNK         0.5000 
     51 O          -0.9823   -9.8726  -40.4629 O.2       4 UNK        -0.5000 
     52 CA          0.2368   -8.2717  -41.7708 C.3       4 UNK         0.1400 
     53 CB         -0.2094   -7.1661  -40.7956 C.3       4 UNK        -0.1800 
     54 N           1.6537   -8.0986  -42.0786 N.am      4 UNK        -0.5000 
     55 C           2.1466   -7.5213  -43.1793 C.2       3 UNK         0.5000 
     56 O           1.4536   -6.9879  -44.0472 O.2       3 UNK        -0.5000 
     57 CA          3.6773   -7.5793  -43.3683 C.3       3 UNK         0.1400 
     58 CB          4.4643   -7.7722  -42.0518 C.3       3 UNK        -0.1800 
     59 N           4.0609   -8.6031  -44.3469 N.am      3 UNK        -0.5000 
     60 C           3.7451   -9.9056  -44.3128 C.2       2 UNK         0.5000 
     61 O           3.0947  -10.4374  -43.4087 O.2       2 UNK        -0.5000 
     62 CA          4.2731  -10.7660  -45.4735 C.3       2 UNK         0.1400 
     63 CB          5.6676  -11.3177  -45.1410 C.3       2 UNK        -0.1800 
     64 N           3.3779  -11.8880  -45.7464 N.am      2 UNK        -0.5000 
     65 C           2.1790  -11.7889  -46.3369 C.2       1 UNK         0.5000 
     66 O           1.7330  -10.7300  -46.7826 O.2       1 UNK        -0.5000 
     67 C          -2.2753  -24.1437  -44.8902 C.2       11 UNK         0.5000 
     68 O          -3.4061  -24.6244  -44.9699 O.2       11 UNK        -0.5000 
     69 N          -1.2584  -24.7496  -44.2579 N.am      12 UNK        -0.5000 
     70 CA         -1.3369  -26.0742  -43.6329 C.3       12 UNK         0.1400 
     71 CB         -0.0750  -26.3038  -42.7877 C.3       12 UNK        -0.1800 
     72 C          -1.5226  -27.2206  -44.6504 C.2       12 UNK         0.5000 
     73 O          -1.9808  -28.2983  -44.2709 O.2       12 UNK        -0.5000 
     74 N          -1.1865  -26.9592  -45.9200 N.am      13 UNK        -0.5000 
     75 CA         -1.3604  -27.8529  -47.0615 C.3       13 UNK         0.1400 
     76 CB         -0.0193  -27.9449  -47.8121 C.3       13 UNK        -0.1800 
     77 C          -2.5004  -27.3691  -47.9821 C.2       13 UNK         0.5000 
     78 O          -2.5082  -27.7207  -49.1613 O.2       13 UNK        -0.5000 
     79 N          -3.4304  -26.5585  -47.4497 N.am      14 UNK        -0.5000 
     80 CA         -4.5899  -25.9738  -48.1366 C.3       14 UNK         0.1400 
     81 CB         -5.5957  -27.0708  -48.5449 C.3       14 UNK        -0.1800 
     82 C          -4.1795  -25.0645  -49.3134 C.2       14 UNK         0.5000 
     83 O          -4.6610  -25.2353  -50.4346 O.2       14 UNK        -0.5000 
     84 N          -3.2506  -24.1405  -49.0302 N.am      15 UNK        -0.5000 
     85 CA         -2.5957  -23.2240  -49.9710 C.3       15 UNK         0.1400 
     86 CB         -3.6028  -22.2209  -50.5701 C.3       15 UNK        -0.1800 
     87 C          -1.7843  -23.9917  -51.0331 C.2       15 UNK         0.5000 
     88 O          -1.8617  -23.6748  -52.2210 O.2       15 UNK        -0.5000 
     89 N          -1.0519  -25.0152  -50.5650 N.am      16 UNK        -0.5000 
     90 CA         -0.2777  -25.9899  -51.3420 C.3       16 UNK         0.1400 
     91 CB          0.9826  -25.3296  -51.9358 C.3       16 UNK        -0.1800 
     92 C          -1.1433  -26.7206  -52.3907 C.2       16 UNK         0.5000 
     93 O          -0.8022  -26.7446  -53.5737 O.2       16 UNK        -0.5000 
     94 N          -2.2688  -27.2770  -51.9201 N.am      17 UNK        -0.5000 
     95 CA         -3.3354  -27.9263  -52.6871 C.3       17 UNK         0.1400 
     96 CB         -2.8383  -29.2505  -53.3037 C.3       17 UNK        -0.1800 
     97 C          -3.9772  -26.9724  -53.7165 C.2       17 UNK         0.5000 
     98 O          -4.1322  -27.3321  -54.8854 O.2       17 UNK        -0.5000 
     99 N          -4.3274  -25.7658  -53.2467 N.am      18 UNK        -0.5000 
    100 CA        -4.9058  -24.6491  -53.9986 C.3       18 UNK         0.1400 
    101 CB        -6.3560  -24.9695  -54.4151 C.3       18 UNK        -0.1800 
    102 C         -4.0210  -24.1877  -55.1762 C.2       18 UNK         0.5000 
    103 O         -4.5164  -23.9946  -56.2888 O.2       18 UNK        -0.5000 
    104 N         -2.7186  -24.0145  -54.9089 N.am      19 UNK        -0.5000 
    105 CA        -1.7595  -23.4266  -55.8457 C.3       19 UNK         0.1400 
    106 CB        -0.3266  -23.7010  -55.3680 C.3       19 UNK        -0.1800 
    107 C         -1.9945  -21.9147  -56.0047 C.2       19 UNK         0.5000 
    108 O         -1.8874  -21.3922  -57.1150 O.2       19 UNK        -0.5000 
    109 N         -2.3508  -21.2522  -54.8960 N.am      20 UNK        -0.5000 
    110 CA        -2.8918  -19.8978  -54.8905 C.3       20 UNK         0.1400 
    111 CB        -2.6380  -19.2521  -53.5196 C.3       20 UNK        -0.1800 
    112 C         -4.3984  -19.9649  -55.1859 C.2       20 UNK         0.5000 
    113 O         -5.0880  -20.8282  -54.6350 O.2       20 UNK        -0.5000 
    114 N         -4.8910  -19.0360  -56.0157 N.am      21 UNK        -0.5000 
    115 CA        -6.2929  -18.9512  -56.4466 C.3       21 UNK         0.1400 
    116 CB        -6.4224  -17.8496  -57.5097 C.3       21 UNK        -0.1800 
    117 C         -7.2943  -18.7131  -55.2976 C.2       21 UNK         0.5000 
    118 O         -8.4652  -19.0727  -55.4257 O.2       21 UNK        -0.5000 
    119 N         -6.8085  -18.1317  -54.1955 N.am      22 UNK        -0.5000 
    120 CA        -7.5273  -17.9737  -52.9256 C.3       22 UNK         0.1400 
    121 C         -7.6630  -19.2787  -52.0819 C.2       22 UNK         0.5000 
    122 N         -7.0221  -20.3866  -52.4396 N.am      22 UNK        -0.7600 
    123 O         -8.3791  -19.2876  -51.0844 O.2       22 UNK        -0.5000 
    124 C124       -6.9401  -16.7999  -52.1012 C.3       23 UNK        -0.0398 
    125 S125       -5.1707  -17.0055  -51.6849 S.3       23 UNK        -0.2404 
    126 C126       -5.2756  -17.1559  -49.8762 C.3       23 UNK        -0.0205 
    127 H127        3.6799  -16.5863  -48.0565 H         1 UNK         0.0600 
    128 H128        3.6591  -16.3563  -46.3005 H         1 UNK         0.0600 
    129 H129        4.9402  -15.6321  -47.2714 H         1 UNK         0.0600 
    130 H130        2.0450  -14.9416  -45.7075 H         1 UNK         0.3000 
    131 H131        0.8331  -13.1418  -45.4585 H         1 UNK         0.0600 
    132 H132        0.6695  -13.1149  -48.5166 H         1 UNK         0.0800 
    133 H133       -0.2905  -12.0843  -47.4928 H         1 UNK         0.0800 
    134 H134        0.3304  -15.9018  -48.4725 H         1 UNK         0.0800 
    135 H135       -0.6729  -14.9682  -49.5631 H         1 UNK         0.0800 
    136 H136       -3.1565  -15.4513  -49.7181 H         1 UNK         0.1150 
    137 H137       -4.3931  -19.4012  -48.6045 H         1 UNK         0.1150 
    138 H138       -0.5055  -17.9811  -47.5002 H         1 UNK         0.1150 
    139 H139       -2.8310  -20.9119  -47.6297 H         1 UNK         0.0800 
    140 H140       -1.1306  -20.4943  -47.5081 H         1 UNK         0.0800 
    141 H141       -3.3467  -21.7475  -44.3312 H         1 UNK         0.0800 
    142 H142       -1.6876  -21.5899  -43.8493 H         1 UNK         0.0800 
    143 H143       -2.6295  -22.8097  -46.4893 H         1 UNK         0.0600 
    144 H144        0.0164  -22.0796  -45.6805 H         1 UNK         0.3000 
    145 H145        1.8015  -24.4427  -47.6074 H         1 UNK         0.0600 
    146 H146        1.1329  -21.6386  -48.6642 H         1 UNK         0.0600 
    147 H147        2.5308  -22.6124  -49.1214 H         1 UNK         0.0600 
    148 H148        0.9149  -23.1375  -49.5559 H         1 UNK         0.0600 
    149 H149        2.6028  -21.8756  -46.7008 H         1 UNK         0.3000 
    150 H150        2.8508  -22.4177  -43.2588 H         1 UNK         0.0600 
    151 H151        4.9083  -23.6322  -44.0004 H         1 UNK         0.0600 
    152 H152        5.2753  -21.9742  -43.5533 H         1 UNK         0.0600 
    153 H153        5.1805  -22.4292  -45.2554 H         1 UNK         0.0600 
    154 H154        3.8757  -20.3363  -44.8840 H         1 UNK         0.3000 
    155 H155        2.6609  -18.2247  -44.6908 H         1 UNK         0.0600 
    156 H156        3.0113  -19.0763  -46.9775 H         1 UNK         0.0600 
    157 H157        1.8137  -17.7971  -47.1040 H         1 UNK         0.0600 
    158 H158        1.3090  -19.4796  -47.1613 H         1 UNK         0.0600 
    159 H159       -0.1927  -18.8565  -44.7262 H         1 UNK         0.3000 
    160 H160       -1.7535  -16.8959  -44.7919 H         1 UNK         0.0600 
    161 H161       -2.4499  -17.0589  -42.3759 H         1 UNK         0.0600 
    162 H162       -0.7647  -16.9653  -41.8711 H         1 UNK         0.0600 
    163 H163       -1.3470  -18.3616  -42.7719 H         1 UNK         0.0600 
    164 H164       -0.2912  -14.6509  -43.7902 H         1 UNK         0.3000 
    165 H165       -2.0834  -12.5089  -44.7081 H         1 UNK         0.0600 
    166 H166       -3.6307  -12.6123  -42.0677 H         1 UNK         0.0600 
    167 H167       -3.3234  -11.1525  -43.0065 H         1 UNK         0.0600 
    168 H168       -4.3201  -12.4327  -43.6760 H         1 UNK         0.0600 
    169 H169       -0.3962  -11.7782  -43.4682 H         1 UNK         0.3000 
    170 H170        0.6303  -12.0897  -40.1080 H         1 UNK         0.0600 
    171 H171        2.0111  -12.8829  -42.7299 H         1 UNK         0.0600 
    172 H172        2.8240  -12.4188  -41.2366 H         1 UNK         0.0600 
    173 H173        1.8688  -13.8927  -41.2973 H         1 UNK         0.0600 
    174 H174        1.5511  -10.4648  -42.2662 H         1 UNK         0.3000 
    175 H175       -0.3547   -8.1808  -42.6841 H         1 UNK         0.0600 
    176 H176        0.3172   -7.2367  -39.8432 H         1 UNK         0.0600 
    177 H177       -0.0203   -6.1759  -41.2104 H         1 UNK         0.0600 
    178 H178       -1.2784   -7.2289  -40.5886 H         1 UNK         0.0600 
    179 H179        2.3009   -8.5391  -41.4393 H         1 UNK         0.3000 
    180 H180        3.9713   -6.6161  -43.7881 H         1 UNK         0.0600 
    181 H181        4.2924   -8.7498  -41.6005 H         1 UNK         0.0600 
    182 H182        4.1924   -7.0131  -41.3172 H         1 UNK         0.0600 
    183 H183        5.5362   -7.6786  -42.2262 H         1 UNK         0.0600 
    184 H184        4.5810   -8.2603  -45.1424 H         1 UNK         0.3000 
    185 H185        4.3432  -10.1488  -46.3718 H         1 UNK         0.0600 
    186 H186        6.0622  -11.9149  -45.9633 H         1 UNK         0.0600 
    187 H187        6.3758  -10.5083  -44.9590 H         1 UNK         0.0600 
    188 H188        5.6499  -11.9446  -44.2483 H         1 UNK         0.0600 
    189 H189        3.6568  -12.7865  -45.3817 H         1 UNK         0.3000 
    190 H190       -0.3463  -24.3122  -44.2693 H         1 UNK         0.3000 
    191 H191       -2.2018  -26.0837  -42.9663 H         1 UNK         0.0600 
    192 H192        0.8239  -26.3225  -43.4049 H         1 UNK         0.0600 
    193 H193        0.0477  -25.5216  -42.0385 H         1 UNK         0.0600 
    194 H194       -0.1279  -27.2557  -42.2577 H         1 UNK         0.0600 
    195 H195       -0.8511  -26.0319  -46.1499 H         1 UNK         0.3000 
    196 H196       -1.6305  -28.8556  -46.7251 H         1 UNK         0.0600 
    197 H197        0.7708  -28.3116  -47.1569 H         1 UNK         0.0600 
    198 H198        0.2933  -26.9743  -48.1978 H         1 UNK         0.0600 
    199 H199       -0.0820  -28.6334  -48.6557 H         1 UNK         0.0600 
    200 H200       -3.3281  -26.2955  -46.4776 H         1 UNK         0.3000 
    201 H201       -5.0855  -25.3285  -47.4098 H         1 UNK         0.0600 
    202 H202       -6.5062  -26.6310  -48.9535 H         1 UNK         0.0600 
    203 H203       -5.8856  -27.6780  -47.6874 H         1 UNK         0.0600 
    204 H204       -5.1878  -27.7375  -49.3052 H         1 UNK         0.0600 
    205 H205       -2.8314  -24.1769  -48.1111 H         1 UNK         0.3000 
    206 H206       -1.8716  -22.6484  -49.3935 H         1 UNK         0.0600 
    207 H207       -4.3238  -22.7051  -51.2281 H         1 UNK         0.0600 
    208 H208       -3.0857  -21.4610  -51.1549 H         1 UNK         0.0600 
    209 H209       -4.1587  -21.7041  -49.7883 H         1 UNK         0.0600 
    210 H210       -1.0691  -25.1683  -49.5635 H         1 UNK         0.3000 
    211 H211        0.0552  -26.7555  -50.6407 H         1 UNK         0.0600 
    212 H212        1.6126  -24.9102  -51.1519 H         1 UNK         0.0600 
    213 H213        1.5864  -26.0566  -52.4801 H         1 UNK         0.0600 
    214 H214        0.7324  -24.5273  -52.6284 H         1 UNK         0.0600 
    215 H215       -2.4264  -27.2461  -50.9140 H         1 UNK         0.3000 
    216 H216       -4.1186  -28.1720  -51.9683 H         1 UNK         0.0600 
    217 H217       -3.6585  -29.7922  -53.7760 H         1 UNK         0.0600 
    218 H218       -2.0756  -29.0842  -54.0649 H         1 UNK         0.0600 
    219 H219       -2.4146  -29.9043  -52.5414 H         1 UNK         0.0600 
    220 H220       -4.1977  -25.5878  -52.2535 H         1 UNK         0.3000 
    221 H221       -4.9456  -23.8065  -53.3072 H         1 UNK         0.0600 
    222 H222       -6.4002  -25.7845  -55.1381 H         1 UNK         0.0600 
    223 H223       -6.9593  -25.2521  -53.5523 H         1 UNK         0.0600 
    224 H224       -6.8308  -24.0997  -54.8709 H         1 UNK         0.0600 
    225 H225       -2.3893  -24.1615  -53.9574 H         1 UNK         0.3000 
    226 H226       -1.8914  -23.8983  -56.8217 H         1 UNK         0.0600 
    227 H227       -0.1376  -24.7702  -55.2774 H         1 UNK         0.0600 
    228 H228        0.4024  -23.3011  -56.0737 H         1 UNK         0.0600 
    229 H229       -0.1322  -23.2396  -54.3996 H         1 UNK         0.0600 
    230 H230       -2.4529  -21.7809  -54.0409 H         1 UNK         0.3000 
    231 H231       -2.3902  -19.3001  -55.6546 H         1 UNK         0.0600 
    232 H232       -2.9333  -18.2025  -53.5264 H         1 UNK         0.0600 
    233 H233       -1.5821  -19.2898  -53.2513 H         1 UNK         0.0600 
    234 H234       -3.2046  -19.7425  -52.7279 H         1 UNK         0.0600 
    235 H235       -4.2614  -18.3548  -56.4154 H         1 UNK         0.3000 
    236 H236       -6.5538  -19.9054  -56.9089 H         1 UNK         0.0600 
    237 H237       -5.7871  -18.0550  -58.3715 H         1 UNK         0.0600 
    238 H238       -7.4478  -17.7768  -57.8748 H         1 UNK         0.0600 
    239 H239       -6.1457  -16.8725  -57.1118 H         1 UNK         0.0600 
    240 H240       -5.8318  -17.8786  -54.1772 H         1 UNK         0.3000 
    241 H241       -8.5523  -17.6930  -53.1749 H         1 UNK         0.0600 
    242 H242       -7.1346  -21.2161  -51.8806 H         1 UNK         0.3800 
    243 H243       -6.4188  -20.4134  -53.2553 H         1 UNK         0.3800 
    244 H244       -7.0382  -15.8755  -52.6718 H         1 UNK         0.0800 
    245 H245       -7.5256  -16.6398  -51.1942 H         1 UNK         0.0800 
    246 H246       -5.9682  -17.9609  -49.6246 H         1 UNK         0.0800 
    247 H247       -5.6989  -16.2402  -49.4607 H         1 UNK         0.0800 
@<TRIPOS>BOND
     1    1    2 1    
     2    1  127 1    
     3    1  128 1    
     4    1  129 1    
     5    2    3 2    
     6    2    4 am   BACKBONE|DICT|INTERRES
     7    4    5 1    
     8    4  130 1    
     9    5    6 1    
    10    5   65 1    
    11    5  131 1    
    12    6    7 1    
    13    6  132 1    
    14    6  133 1    
    15    7    8 1    
    16    8    9 1    
    17    8  134 1    
    18    8  135 1    
    19    9   10 ar   
    20    9   14 ar   
    21   10   11 ar   
    22   10  136 1    
    23   11   12 ar   
    24   11  126 1    
    25   12   13 ar   
    26   12  137 1    
    27   13   14 ar   
    28   13   15 1    
    29   14  138 1    
    30   15   16 1    
    31   15  139 1    
    32   15  140 1    
    33   16   17 1    
    34   17   18 1    
    35   17  141 1    
    36   17  142 1    
    37   18   19 1    
    38   18   67 1    
    39   18  143 1    
    40   19   20 am   BACKBONE|DICT|INTERRES
    41   19  144 1    
    42   20   21 2    
    43   20   22 1    
    44   22   23 1    
    45   22   24 1    
    46   22  145 1    
    47   23  146 1    
    48   23  147 1    
    49   23  148 1    
    50   24   25 am   BACKBONE|DICT|INTERRES
    51   24  149 1    
    52   25   26 2    
    53   25   27 1    
    54   27   28 1    
    55   27   29 1    
    56   27  150 1    
    57   28  151 1    
    58   28  152 1    
    59   28  153 1    
    60   29   30 am   BACKBONE|DICT|INTERRES
    61   29  154 1    
    62   30   31 2    
    63   30   32 1    
    64   32   33 1    
    65   32   34 1    
    66   32  155 1    
    67   33  156 1    
    68   33  157 1    
    69   33  158 1    
    70   34   35 am   BACKBONE|DICT|INTERRES
    71   34  159 1    
    72   35   36 2    
    73   35   37 1    
    74   37   38 1    
    75   37   39 1    
    76   37  160 1    
    77   38  161 1    
    78   38  162 1    
    79   38  163 1    
    80   39   40 am   BACKBONE|DICT|INTERRES
    81   39  164 1    
    82   40   41 2    
    83   40   42 1    
    84   42   43 1    
    85   42   44 1    
    86   42  165 1    
    87   43  166 1    
    88   43  167 1    
    89   43  168 1    
    90   44   45 am   BACKBONE|DICT|INTERRES
    91   44  169 1    
    92   45   46 2    
    93   45   47 1    
    94   47   48 1    
    95   47   49 1    
    96   47  170 1    
    97   48  171 1    
    98   48  172 1    
    99   48  173 1    
   100   49   50 am   BACKBONE|DICT|INTERRES
   101   49  174 1    
   102   50   51 2    
   103   50   52 1    
   104   52   53 1    
   105   52   54 1    
   106   52  175 1    
   107   53  176 1    
   108   53  177 1    
   109   53  178 1    
   110   54   55 am   BACKBONE|DICT|INTERRES
   111   54  179 1    
   112   55   56 2    
   113   55   57 1    
   114   57   58 1    
   115   57   59 1    
   116   57  180 1    
   117   58  181 1    
   118   58  182 1    
   119   58  183 1    
   120   59   60 am   BACKBONE|DICT|INTERRES
   121   59  184 1    
   122   60   61 2    
   123   60   62 1    
   124   62   63 1    
   125   62   64 1    
   126   62  185 1    
   127   63  186 1    
   128   63  187 1    
   129   63  188 1    
   130   64   65 am   BACKBONE|DICT|INTERRES
   131   64  189 1    
   132   65   66 2    
   133   67   68 2    
   134   67   69 am   BACKBONE|DICT|INTERRES
   135   69   70 1    
   136   69  190 1    
   137   70   71 1    
   138   70   72 1    
   139   70  191 1    
   140   71  192 1    
   141   71  193 1    
   142   71  194 1    
   143   72   73 2    
   144   72   74 am   BACKBONE|DICT|INTERRES
   145   74   75 1    
   146   74  195 1    
   147   75   76 1    
   148   75   77 1    
   149   75  196 1    
   150   76  197 1    
   151   76  198 1    
   152   76  199 1    
   153   77   78 2    
   154   77   79 am   BACKBONE|DICT|INTERRES
   155   79   80 1    
   156   79  200 1    
   157   80   81 1    
   158   80   82 1    
   159   80  201 1    
   160   81  202 1    
   161   81  203 1    
   162   81  204 1    
   163   82   83 2    
   164   82   84 am   BACKBONE|DICT|INTERRES
   165   84   85 1    
   166   84  205 1    
   167   85   86 1    
   168   85   87 1    
   169   85  206 1    
   170   86  207 1    
   171   86  208 1    
   172   86  209 1    
   173   87   88 2    
   174   87   89 am   BACKBONE|DICT|INTERRES
   175   89   90 1    
   176   89  210 1    
   177   90   91 1    
   178   90   92 1    
   179   90  211 1    
   180   91  212 1    
   181   91  213 1    
   182   91  214 1    
   183   92   93 2    
   184   92   94 am   BACKBONE|DICT|INTERRES
   185   94   95 1    
   186   94  215 1    
   187   95   96 1    
   188   95   97 1    
   189   95  216 1    
   190   96  217 1    
   191   96  218 1    
   192   96  219 1    
   193   97   98 2    
   194   97   99 am   BACKBONE|DICT|INTERRES
   195   99  100 1    
   196   99  220 1    
   197  100  101 1    
   198  100  102 1    
   199  100  221 1    
   200  101  222 1    
   201  101  223 1    
   202  101  224 1    
   203  102  103 2    
   204  102  104 am   BACKBONE|DICT|INTERRES
   205  104  105 1    
   206  104  225 1    
   207  105  106 1    
   208  105  107 1    
   209  105  226 1    
   210  106  227 1    
   211  106  228 1    
   212  106  229 1    
   213  107  108 2    
   214  107  109 am   BACKBONE|DICT|INTERRES
   215  109  110 1    
   216  109  230 1    
   217  110  111 1    
   218  110  112 1    
   219  110  231 1    
   220  111  232 1    
   221  111  233 1    
   222  111  234 1    
   223  112  113 2    
   224  112  114 am   BACKBONE|DICT|INTERRES
   225  114  115 1    
   226  114  235 1    
   227  115  116 1    
   228  115  117 1    
   229  115  236 1    
   230  116  237 1    
   231  116  238 1    
   232  116  239 1    
   233  117  118 2    
   234  117  119 am   BACKBONE|DICT|INTERRES
   235  119  120 1    
   236  119  240 1    
   237  120  121 1    
   238  120  124 1    
   239  120  241 1    
   240  121  122 am   BACKBONE|DICT|INTERRES
   241  121  123 2    
   242  122  242 1    
   243  122  243 1    
   244  124  125 1    
   245  124  244 1    
   246  124  245 1    
   247  125  126 1    
   248  126  246 1    
   249  126  247 1    
@<TRIPOS>SUBSTRUCTURE
     1 UNK         1 GROUP             0       ****    0 ROOT    
