@<TRIPOS>MOLECULE
3R540
247   249    1
SMALL
USER_CHARGES


@<TRIPOS>ATOM
      1 CA          4.5361   -8.3809  -48.6337 C.3       0 UNK        -0.1800 
      2 C           3.9468   -9.5835  -47.9116 C.2       0 UNK         0.5000 
      3 O           4.1867   -9.7588  -46.7175 O.2       0 UNK        -0.5000 
      4 N           3.1591  -10.4032  -48.6222 N.am      1 UNK        -0.5000 
      5 CA          2.5253  -11.6283  -48.1115 C.3       1 UNK         0.1400 
      6 C6          1.8620  -12.4358  -49.2546 C.3       23 UNK        -0.0398 
      7 S7          1.6552  -14.2022  -48.8522 S.3       23 UNK        -0.2404 
      8 C8          0.9403  -14.8069  -50.4088 C.3       23 UNK        -0.0205 
      9 C9          0.3944  -16.2164  -50.2526 C.ar      23 UNK        -0.0193 
     10 C10        -0.9410  -16.4115  -49.8965 C.ar      23 UNK        -0.1150 
     11 C11        -1.4604  -17.7020  -49.7764 C.ar      23 UNK        -0.0193 
     12 C12        -0.6317  -18.8027  -50.0116 C.ar      23 UNK        -0.1150 
     13 C13         0.7132  -18.6259  -50.3660 C.ar      23 UNK        -0.0193 
     14 C14         1.2139  -17.3248  -50.4822 C.ar      23 UNK        -0.1150 
     15 C15         1.6578  -19.7922  -50.6707 C.3       23 UNK        -0.0205 
     16 S16         1.0957  -21.4527  -50.1565 S.3       23 UNK        -0.2404 
     17 C17         1.0819  -21.2614  -48.3418 C.3       23 UNK        -0.0398 
     18 CA          0.5202  -22.4749  -47.5636 C.3       11 UNK         0.1400 
     19 N           0.5849  -22.2367  -46.1213 N.am      11 UNK        -0.5000 
     20 C           0.3319  -23.1412  -45.1672 C.2       10 UNK         0.5000 
     21 O           0.0660  -24.3200  -45.3947 O.2       10 UNK        -0.5000 
     22 CA          0.3264  -22.6288  -43.7154 C.3       10 UNK         0.1400 
     23 CB          1.7565  -22.5244  -43.1663 C.3       10 UNK        -0.1800 
     24 N          -0.3550  -21.3394  -43.5788 N.am      10 UNK        -0.5000 
     25 C          -1.6581  -21.1470  -43.8312 C.2       9 UNK         0.5000 
     26 O          -2.4293  -22.0497  -44.1553 O.2       9 UNK        -0.5000 
     27 CA         -2.1831  -19.7024  -43.7509 C.3       9 UNK         0.1400 
     28 CB         -2.4404  -19.2954  -42.2926 C.3       9 UNK        -0.1800 
     29 N          -1.2860  -18.7357  -44.3846 N.am      9 UNK        -0.5000 
     30 C          -0.9779  -18.7225  -45.6900 C.2       8 UNK         0.5000 
     31 O          -1.4508  -19.5084  -46.5099 O.2       8 UNK        -0.5000 
     32 CA          0.0814  -17.6995  -46.1422 C.3       8 UNK         0.1400 
     33 CB         -0.5264  -16.2941  -46.2570 C.3       8 UNK        -0.1800 
     34 N           1.2350  -17.6680  -45.2413 N.am      8 UNK        -0.5000 
     35 C           2.0457  -18.7106  -45.0088 C.2       7 UNK         0.5000 
     36 O           1.9527  -19.7926  -45.5862 O.2       7 UNK        -0.5000 
     37 CA          3.0992  -18.5388  -43.9034 C.3       7 UNK         0.1400 
     38 CB          4.3624  -17.8537  -44.4455 C.3       7 UNK        -0.1800 
     39 N           2.5659  -17.7875  -42.7672 N.am      7 UNK        -0.5000 
     40 C           1.6783  -18.2806  -41.8915 C.2       6 UNK         0.5000 
     41 O           1.2506  -19.4341  -41.9319 O.2       6 UNK        -0.5000 
     42 CA          1.1520  -17.3138  -40.8136 C.3       6 UNK         0.1400 
     43 CB          2.1157  -17.2586  -39.6190 C.3       6 UNK        -0.1800 
     44 N           0.9355  -15.9597  -41.3254 N.am      6 UNK        -0.5000 
     45 C          -0.0003  -15.6353  -42.2284 C.2       5 UNK         0.5000 
     46 O          -0.8145  -16.4384  -42.6815 O.2       5 UNK        -0.5000 
     47 CA          0.0019  -14.1851  -42.7502 C.3       5 UNK         0.1400 
     48 CB         -0.9069  -13.2983  -41.8869 C.3       5 UNK        -0.1800 
     49 N           1.3315  -13.5743  -42.8329 N.am      5 UNK        -0.5000 
     50 C           2.3657  -14.0536  -43.5394 C.2       4 UNK         0.5000 
     51 O           2.3353  -15.1300  -44.1377 O.2       4 UNK        -0.5000 
     52 CA          3.6313  -13.1783  -43.5784 C.3       4 UNK         0.1400 
     53 CB          4.5845  -13.5713  -44.7213 C.3       4 UNK        -0.1800 
     54 N           3.2536  -11.7771  -43.7437 N.am      4 UNK        -0.5000 
     55 C           3.4862  -10.7850  -42.8751 C.2       3 UNK         0.5000 
     56 O           4.0603  -10.9463  -41.7978 O.2       3 UNK        -0.5000 
     57 CA          2.9939   -9.3747  -43.2615 C.3       3 UNK         0.1400 
     58 CB          4.1833   -8.4330  -43.5093 C.3       3 UNK        -0.1800 
     59 N           2.1398   -9.3837  -44.4517 N.am      3 UNK        -0.5000 
     60 C           0.8162   -9.6000  -44.4355 C.2       2 UNK         0.5000 
     61 O           0.1649   -9.7503  -43.4015 O.2       2 UNK        -0.5000 
     62 CA          0.0985   -9.6927  -45.7992 C.3       2 UNK         0.1400 
     63 CB         -0.5012   -8.3318  -46.1835 C.3       2 UNK        -0.1800 
     64 N           0.9584  -10.1597  -46.8906 N.am      2 UNK        -0.5000 
     65 C           1.5431  -11.3658  -46.9445 C.2       1 UNK         0.5000 
     66 O           1.3803  -12.2268  -46.0818 O.2       1 UNK        -0.5000 
     67 C          -0.9045  -22.8786  -48.0053 C.2       11 UNK         0.5000 
     68 O          -1.0562  -23.8850  -48.6984 O.2       11 UNK        -0.5000 
     69 N          -1.9239  -22.1338  -47.5514 N.am      12 UNK        -0.5000 
     70 CA         -3.3383  -22.4349  -47.7834 C.3       12 UNK         0.1400 
     71 CB         -4.2133  -21.3135  -47.2042 C.3       12 UNK        -0.1800 
     72 C          -3.7636  -23.8021  -47.2179 C.2       12 UNK         0.5000 
     73 O          -4.4587  -24.5486  -47.9060 O.2       12 UNK        -0.5000 
     74 N          -3.3095  -24.1215  -45.9980 N.am      13 UNK        -0.5000 
     75 CA         -3.5374  -25.4073  -45.3382 C.3       13 UNK         0.1400 
     76 CB         -3.0826  -25.3250  -43.8734 C.3       13 UNK        -0.1800 
     77 C          -2.8525  -26.5825  -46.0606 C.2       13 UNK         0.5000 
     78 O          -3.4670  -27.6395  -46.2041 O.2       13 UNK        -0.5000 
     79 N          -1.6115  -26.3735  -46.5232 N.am      14 UNK        -0.5000 
     80 CA         -0.8339  -27.3445  -47.2960 C.3       14 UNK         0.1400 
     81 CB          0.6217  -26.8671  -47.4119 C.3       14 UNK        -0.1800 
     82 C          -1.4330  -27.6129  -48.6884 C.2       14 UNK         0.5000 
     83 O          -1.4774  -28.7666  -49.1176 O.2       14 UNK        -0.5000 
     84 N          -1.9057  -26.5507  -49.3557 N.am      15 UNK        -0.5000 
     85 CA         -2.6242  -26.6196  -50.6297 C.3       15 UNK         0.1400 
     86 CB         -2.7309  -25.2063  -51.2225 C.3       15 UNK        -0.1800 
     87 C          -4.0254  -27.2459  -50.4956 C.2       15 UNK         0.5000 
     88 O          -4.5302  -27.8133  -51.4650 O.2       15 UNK        -0.5000 
     89 N          -4.6324  -27.1036  -49.3089 N.am      16 UNK        -0.5000 
     90 CA         -5.9542  -27.5569  -48.8622 C.3       16 UNK         0.1400 
     91 CB         -6.1049  -29.0850  -48.9808 C.3       16 UNK        -0.1800 
     92 C          -7.1208  -26.8141  -49.5377 C.2       16 UNK         0.5000 
     93 O          -8.0177  -26.3328  -48.8446 O.2       16 UNK        -0.5000 
     94 N          -7.0795  -26.7125  -50.8707 N.am      17 UNK        -0.5000 
     95 CA         -8.0212  -25.9461  -51.6847 C.3       17 UNK         0.1400 
     96 CB         -7.9551  -26.4585  -53.1316 C.3       17 UNK        -0.1800 
     97 C          -7.7457  -24.4309  -51.6420 C.2       17 UNK         0.5000 
     98 O          -8.6688  -23.6510  -51.8793 O.2       17 UNK        -0.5000 
     99 N          -6.4893  -24.0509  -51.3519 N.am      18 UNK        -0.5000 
    100 CA        -5.9489  -22.6876  -51.3603 C.3       18 UNK         0.1400 
    101 CB        -6.5304  -21.8691  -50.1871 C.3       18 UNK        -0.1800 
    102 C         -6.1260  -22.0417  -52.7513 C.2       18 UNK         0.5000 
    103 O         -5.5891  -22.5806  -53.7219 O.2       18 UNK        -0.5000 
    104 N         -6.8883  -20.9403  -52.8297 N.am      19 UNK        -0.5000 
    105 CA        -7.3447  -20.2569  -54.0441 C.3       19 UNK         0.1400 
    106 CB        -8.4307  -21.1026  -54.7464 C.3       19 UNK        -0.1800 
    107 C         -6.1780  -19.8575  -54.9681 C.2       19 UNK         0.5000 
    108 O         -5.4713  -18.8979  -54.6606 O.2       19 UNK        -0.5000 
    109 N         -5.9736  -20.6138  -56.0559 N.am      20 UNK        -0.5000 
    110 CA        -4.8958  -20.4391  -57.0315 C.3       20 UNK         0.1400 
    111 CB        -5.0738  -21.4627  -58.1627 C.3       20 UNK        -0.1800 
    112 C         -3.4805  -20.5411  -56.4294 C.2       20 UNK         0.5000 
    113 O         -2.5664  -19.8896  -56.9371 O.2       20 UNK        -0.5000 
    114 N         -3.3267  -21.3031  -55.3344 N.am      21 UNK        -0.5000 
    115 CA        -2.0820  -21.4031  -54.5640 C.3       21 UNK         0.1400 
    116 CB        -2.2267  -22.5002  -53.4987 C.3       21 UNK        -0.1800 
    117 C         -1.6653  -20.0725  -53.9048 C.2       21 UNK         0.5000 
    118 O         -0.4746  -19.8590  -53.6780 O.2       21 UNK        -0.5000 
    119 N         -2.6474  -19.2024  -53.6398 N.am      22 UNK        -0.5000 
    120 CA        -2.4639  -17.8513  -53.0951 C.3       22 UNK         0.1400 
    121 C         -2.2417  -16.7643  -54.1882 C.2       22 UNK         0.5000 
    122 N         -2.1875  -17.0996  -55.4732 N.am      22 UNK        -0.7600 
    123 O         -2.1002  -15.5879  -53.8662 O.2       22 UNK        -0.5000 
    124 C124       -3.6170  -17.4638  -52.1283 C.3       23 UNK        -0.0398 
    125 S125       -3.8643  -18.6753  -50.7793 S.3       23 UNK        -0.2404 
    126 C126       -2.9246  -17.9060  -49.4198 C.3       23 UNK        -0.0205 
    127 H127        5.6247   -8.4205  -48.5991 H         1 UNK         0.0600 
    128 H128        4.2295   -8.3448  -49.6793 H         1 UNK         0.0600 
    129 H129        4.2120   -7.4588  -48.1513 H         1 UNK         0.0600 
    130 H130        2.9930  -10.1958  -49.5970 H         1 UNK         0.3000 
    131 H131        3.3377  -12.2335  -47.7034 H         1 UNK         0.0600 
    132 H132        2.4830  -12.3881  -50.1505 H         1 UNK         0.0800 
    133 H133        0.8971  -12.0070  -49.5319 H         1 UNK         0.0800 
    134 H134        0.1420  -14.1364  -50.7311 H         1 UNK         0.0800 
    135 H135        1.6996  -14.7809  -51.1919 H         1 UNK         0.0800 
    136 H136       -1.5777  -15.5556  -49.7222 H         1 UNK         0.1150 
    137 H137       -1.0568  -19.7926  -49.9355 H         1 UNK         0.1150 
    138 H138        2.2466  -17.1717  -50.7630 H         1 UNK         0.1150 
    139 H139        1.8259  -19.8145  -51.7483 H         1 UNK         0.0800 
    140 H140        2.6286  -19.6018  -50.2104 H         1 UNK         0.0800 
    141 H141        0.5216  -20.3643  -48.0821 H         1 UNK         0.0800 
    142 H142        2.1079  -21.0712  -48.0240 H         1 UNK         0.0800 
    143 H143        1.1708  -23.3267  -47.7725 H         1 UNK         0.0600 
    144 H144        0.8500  -21.2967  -45.8377 H         1 UNK         0.3000 
    145 H145       -0.2158  -23.3572  -43.1091 H         1 UNK         0.0600 
    146 H146        1.7550  -22.2296  -42.1168 H         1 UNK         0.0600 
    147 H147        2.2711  -23.4837  -43.2342 H         1 UNK         0.0600 
    148 H148        2.3487  -21.7945  -43.7180 H         1 UNK         0.0600 
    149 H149        0.2076  -20.5560  -43.2636 H         1 UNK         0.3000 
    150 H150       -3.1354  -19.6670  -44.2836 H         1 UNK         0.0600 
    151 H151       -3.1170  -19.9978  -41.8043 H         1 UNK         0.0600 
    152 H152       -2.8995  -18.3084  -42.2350 H         1 UNK         0.0600 
    153 H153       -1.5180  -19.2690  -41.7121 H         1 UNK         0.0600 
    154 H154       -0.8969  -18.0164  -43.7815 H         1 UNK         0.3000 
    155 H155        0.4387  -17.9961  -47.1306 H         1 UNK         0.0600 
    156 H156       -0.9463  -15.9548  -45.3114 H         1 UNK         0.0600 
    157 H157       -1.3307  -16.2785  -46.9926 H         1 UNK         0.0600 
    158 H158        0.2196  -15.5646  -46.5718 H         1 UNK         0.0600 
    159 H159        1.4213  -16.7958  -44.7561 H         1 UNK         0.3000 
    160 H160        3.3837  -19.5327  -43.5519 H         1 UNK         0.0600 
    161 H161        5.1071  -17.7172  -43.6614 H         1 UNK         0.0600 
    162 H162        4.1434  -16.8773  -44.8766 H         1 UNK         0.0600 
    163 H163        4.8216  -18.4573  -45.2293 H         1 UNK         0.0600 
    164 H164        2.7964  -16.8041  -42.7305 H         1 UNK         0.3000 
    165 H165        0.1937  -17.7005  -40.4603 H         1 UNK         0.0600 
    166 H166        1.7149  -16.6377  -38.8176 H         1 UNK         0.0600 
    167 H167        2.2810  -18.2544  -39.2055 H         1 UNK         0.0600 
    168 H168        3.0885  -16.8551  -39.9028 H         1 UNK         0.0600 
    169 H169        1.5655  -15.2395  -41.0046 H         1 UNK         0.3000 
    170 H170       -0.4054  -14.2019  -43.7626 H         1 UNK         0.0600 
    171 H171       -1.9148  -13.7115  -41.8282 H         1 UNK         0.0600 
    172 H172       -0.5290  -13.2060  -40.8679 H         1 UNK         0.0600 
    173 H173       -0.9922  -12.2953  -42.3061 H         1 UNK         0.0600 
    174 H174        1.4418  -12.6778  -42.3825 H         1 UNK         0.3000 
    175 H175        4.1530  -13.3299  -42.6317 H         1 UNK         0.0600 
    176 H176        4.0860  -13.5310  -45.6906 H         1 UNK         0.0600 
    177 H177        5.4479  -12.9072  -44.7609 H         1 UNK         0.0600 
    178 H178        4.9620  -14.5850  -44.5858 H         1 UNK         0.0600 
    179 H179        2.7100  -11.5776  -44.5754 H         1 UNK         0.3000 
    180 H180        2.4282   -8.9824  -42.4138 H         1 UNK         0.0600 
    181 H181        4.8261   -8.7956  -44.3118 H         1 UNK         0.0600 
    182 H182        4.8003   -8.3399  -42.6147 H         1 UNK         0.0600 
    183 H183        3.8457   -7.4313  -43.7755 H         1 UNK         0.0600 
    184 H184        2.6203   -9.3157  -45.3420 H         1 UNK         0.3000 
    185 H185       -0.7186  -10.4089  -45.6895 H         1 UNK         0.0600 
    186 H186       -1.1696   -7.9650  -45.4034 H         1 UNK         0.0600 
    187 H187        0.2736   -7.5787  -46.3328 H         1 UNK         0.0600 
    188 H188       -1.0842   -8.4021  -47.1020 H         1 UNK         0.0600 
    189 H189        1.1576   -9.4978  -47.6265 H         1 UNK         0.3000 
    190 H190       -1.7209  -21.2929  -47.0155 H         1 UNK         0.3000 
    191 H191       -3.4963  -22.4634  -48.8633 H         1 UNK         0.0600 
    192 H192       -4.0102  -21.1476  -46.1467 H         1 UNK         0.0600 
    193 H193       -5.2735  -21.5490  -47.2979 H         1 UNK         0.0600 
    194 H194       -4.0448  -20.3749  -47.7281 H         1 UNK         0.0600 
    195 H195       -2.7865  -23.4259  -45.4729 H         1 UNK         0.3000 
    196 H196       -4.6127  -25.5972  -45.3464 H         1 UNK         0.0600 
    197 H197       -2.0176  -25.1070  -43.7930 H         1 UNK         0.0600 
    198 H198       -3.2659  -26.2661  -43.3537 H         1 UNK         0.0600 
    199 H199       -3.6239  -24.5457  -43.3366 H         1 UNK         0.0600 
    200 H200       -1.1507  -25.4932  -46.3083 H         1 UNK         0.3000 
    201 H201       -0.8367  -28.2881  -46.7466 H         1 UNK         0.0600 
    202 H202        1.0797  -26.7589  -46.4286 H         1 UNK         0.0600 
    203 H203        0.6912  -25.9049  -47.9201 H         1 UNK         0.0600 
    204 H204        1.2242  -27.5811  -47.9747 H         1 UNK         0.0600 
    205 H205       -1.7581  -25.6224  -48.9657 H         1 UNK         0.3000 
    206 H206       -2.0470  -27.2399  -51.3183 H         1 UNK         0.0600 
    207 H207       -1.7433  -24.7842  -51.4093 H         1 UNK         0.0600 
    208 H208       -3.2668  -25.2155  -52.1725 H         1 UNK         0.0600 
    209 H209       -3.2584  -24.5293  -50.5502 H         1 UNK         0.0600 
    210 H210       -4.1539  -26.5225  -48.6303 H         1 UNK         0.3000 
    211 H211       -5.9983  -27.3079  -47.8006 H         1 UNK         0.0600 
    212 H212       -6.0929  -29.4208  -50.0179 H         1 UNK         0.0600 
    213 H213       -7.0476  -29.4158  -48.5436 H         1 UNK         0.0600 
    214 H214       -5.3024  -29.5994  -48.4519 H         1 UNK         0.0600 
    215 H215       -6.2964  -27.1513  -51.3484 H         1 UNK         0.3000 
    216 H216       -9.0321  -26.1135  -51.3069 H         1 UNK         0.0600 
    217 H217       -8.6617  -25.9242  -53.7682 H         1 UNK         0.0600 
    218 H218       -8.2054  -27.5181  -53.1866 H         1 UNK         0.0600 
    219 H219       -6.9609  -26.3253  -53.5603 H         1 UNK         0.0600 
    220 H220       -5.8183  -24.7844  -51.1828 H         1 UNK         0.3000 
    221 H221       -4.8744  -22.7757  -51.1976 H         1 UNK         0.0600 
    222 H222       -7.6048  -21.7092  -50.2825 H         1 UNK         0.0600 
    223 H223       -6.3636  -22.3860  -49.2425 H         1 UNK         0.0600 
    224 H224       -6.0494  -20.8933  -50.1097 H         1 UNK         0.0600 
    225 H225       -7.2554  -20.5690  -51.9654 H         1 UNK         0.3000 
    226 H226       -7.8110  -19.3248  -53.7219 H         1 UNK         0.0600 
    227 H227       -9.2899  -21.2476  -54.0912 H         1 UNK         0.0600 
    228 H228       -8.7950  -20.6082  -55.6480 H         1 UNK         0.0600 
    229 H229       -8.0691  -22.0920  -55.0289 H         1 UNK         0.0600 
    230 H230       -6.5809  -21.4077  -56.1979 H         1 UNK         0.3000 
    231 H231       -4.9970  -19.4381  -57.4556 H         1 UNK         0.0600 
    232 H232       -6.0365  -21.3398  -58.6592 H         1 UNK         0.0600 
    233 H233       -5.0146  -22.4864  -57.7908 H         1 UNK         0.0600 
    234 H234       -4.3003  -21.3440  -58.9228 H         1 UNK         0.0600 
    235 H235       -4.1353  -21.7888  -54.9586 H         1 UNK         0.3000 
    236 H236       -1.2861  -21.6962  -55.2516 H         1 UNK         0.0600 
    237 H237       -1.2863  -22.6528  -52.9672 H         1 UNK         0.0600 
    238 H238       -2.9802  -22.2406  -52.7552 H         1 UNK         0.0600 
    239 H239       -2.5077  -23.4536  -53.9461 H         1 UNK         0.0600 
    240 H240       -3.5971  -19.4309  -53.9082 H         1 UNK         0.3000 
    241 H241       -1.5404  -17.8458  -52.5169 H         1 UNK         0.0600 
    242 H242       -2.0372  -16.3813  -56.1637 H         1 UNK         0.3800 
    243 H243       -2.2863  -18.0624  -55.7670 H         1 UNK         0.3800 
    244 H244       -3.4373  -16.4810  -51.6897 H         1 UNK         0.0800 
    245 H245       -4.5555  -17.3771  -52.6768 H         1 UNK         0.0800 
    246 H246       -3.3970  -16.9605  -49.1494 H         1 UNK         0.0800 
    247 H247       -2.9844  -18.5394  -48.5361 H         1 UNK         0.0800 
@<TRIPOS>BOND
     1    1    2 1    
     2    1  127 1    
     3    1  128 1    
     4    1  129 1    
     5    2    3 2    
     6    2    4 am   BACKBONE|DICT|INTERRES
     7    4    5 1    
     8    4  130 1    
     9    5    6 1    
    10    5   65 1    
    11    5  131 1    
    12    6    7 1    
    13    6  132 1    
    14    6  133 1    
    15    7    8 1    
    16    8    9 1    
    17    8  134 1    
    18    8  135 1    
    19    9   10 ar   
    20    9   14 ar   
    21   10   11 ar   
    22   10  136 1    
    23   11   12 ar   
    24   11  126 1    
    25   12   13 ar   
    26   12  137 1    
    27   13   14 ar   
    28   13   15 1    
    29   14  138 1    
    30   15   16 1    
    31   15  139 1    
    32   15  140 1    
    33   16   17 1    
    34   17   18 1    
    35   17  141 1    
    36   17  142 1    
    37   18   19 1    
    38   18   67 1    
    39   18  143 1    
    40   19   20 am   BACKBONE|DICT|INTERRES
    41   19  144 1    
    42   20   21 2    
    43   20   22 1    
    44   22   23 1    
    45   22   24 1    
    46   22  145 1    
    47   23  146 1    
    48   23  147 1    
    49   23  148 1    
    50   24   25 am   BACKBONE|DICT|INTERRES
    51   24  149 1    
    52   25   26 2    
    53   25   27 1    
    54   27   28 1    
    55   27   29 1    
    56   27  150 1    
    57   28  151 1    
    58   28  152 1    
    59   28  153 1    
    60   29   30 am   BACKBONE|DICT|INTERRES
    61   29  154 1    
    62   30   31 2    
    63   30   32 1    
    64   32   33 1    
    65   32   34 1    
    66   32  155 1    
    67   33  156 1    
    68   33  157 1    
    69   33  158 1    
    70   34   35 am   BACKBONE|DICT|INTERRES
    71   34  159 1    
    72   35   36 2    
    73   35   37 1    
    74   37   38 1    
    75   37   39 1    
    76   37  160 1    
    77   38  161 1    
    78   38  162 1    
    79   38  163 1    
    80   39   40 am   BACKBONE|DICT|INTERRES
    81   39  164 1    
    82   40   41 2    
    83   40   42 1    
    84   42   43 1    
    85   42   44 1    
    86   42  165 1    
    87   43  166 1    
    88   43  167 1    
    89   43  168 1    
    90   44   45 am   BACKBONE|DICT|INTERRES
    91   44  169 1    
    92   45   46 2    
    93   45   47 1    
    94   47   48 1    
    95   47   49 1    
    96   47  170 1    
    97   48  171 1    
    98   48  172 1    
    99   48  173 1    
   100   49   50 am   BACKBONE|DICT|INTERRES
   101   49  174 1    
   102   50   51 2    
   103   50   52 1    
   104   52   53 1    
   105   52   54 1    
   106   52  175 1    
   107   53  176 1    
   108   53  177 1    
   109   53  178 1    
   110   54   55 am   BACKBONE|DICT|INTERRES
   111   54  179 1    
   112   55   56 2    
   113   55   57 1    
   114   57   58 1    
   115   57   59 1    
   116   57  180 1    
   117   58  181 1    
   118   58  182 1    
   119   58  183 1    
   120   59   60 am   BACKBONE|DICT|INTERRES
   121   59  184 1    
   122   60   61 2    
   123   60   62 1    
   124   62   63 1    
   125   62   64 1    
   126   62  185 1    
   127   63  186 1    
   128   63  187 1    
   129   63  188 1    
   130   64   65 am   BACKBONE|DICT|INTERRES
   131   64  189 1    
   132   65   66 2    
   133   67   68 2    
   134   67   69 am   BACKBONE|DICT|INTERRES
   135   69   70 1    
   136   69  190 1    
   137   70   71 1    
   138   70   72 1    
   139   70  191 1    
   140   71  192 1    
   141   71  193 1    
   142   71  194 1    
   143   72   73 2    
   144   72   74 am   BACKBONE|DICT|INTERRES
   145   74   75 1    
   146   74  195 1    
   147   75   76 1    
   148   75   77 1    
   149   75  196 1    
   150   76  197 1    
   151   76  198 1    
   152   76  199 1    
   153   77   78 2    
   154   77   79 am   BACKBONE|DICT|INTERRES
   155   79   80 1    
   156   79  200 1    
   157   80   81 1    
   158   80   82 1    
   159   80  201 1    
   160   81  202 1    
   161   81  203 1    
   162   81  204 1    
   163   82   83 2    
   164   82   84 am   BACKBONE|DICT|INTERRES
   165   84   85 1    
   166   84  205 1    
   167   85   86 1    
   168   85   87 1    
   169   85  206 1    
   170   86  207 1    
   171   86  208 1    
   172   86  209 1    
   173   87   88 2    
   174   87   89 am   BACKBONE|DICT|INTERRES
   175   89   90 1    
   176   89  210 1    
   177   90   91 1    
   178   90   92 1    
   179   90  211 1    
   180   91  212 1    
   181   91  213 1    
   182   91  214 1    
   183   92   93 2    
   184   92   94 am   BACKBONE|DICT|INTERRES
   185   94   95 1    
   186   94  215 1    
   187   95   96 1    
   188   95   97 1    
   189   95  216 1    
   190   96  217 1    
   191   96  218 1    
   192   96  219 1    
   193   97   98 2    
   194   97   99 am   BACKBONE|DICT|INTERRES
   195   99  100 1    
   196   99  220 1    
   197  100  101 1    
   198  100  102 1    
   199  100  221 1    
   200  101  222 1    
   201  101  223 1    
   202  101  224 1    
   203  102  103 2    
   204  102  104 am   BACKBONE|DICT|INTERRES
   205  104  105 1    
   206  104  225 1    
   207  105  106 1    
   208  105  107 1    
   209  105  226 1    
   210  106  227 1    
   211  106  228 1    
   212  106  229 1    
   213  107  108 2    
   214  107  109 am   BACKBONE|DICT|INTERRES
   215  109  110 1    
   216  109  230 1    
   217  110  111 1    
   218  110  112 1    
   219  110  231 1    
   220  111  232 1    
   221  111  233 1    
   222  111  234 1    
   223  112  113 2    
   224  112  114 am   BACKBONE|DICT|INTERRES
   225  114  115 1    
   226  114  235 1    
   227  115  116 1    
   228  115  117 1    
   229  115  236 1    
   230  116  237 1    
   231  116  238 1    
   232  116  239 1    
   233  117  118 2    
   234  117  119 am   BACKBONE|DICT|INTERRES
   235  119  120 1    
   236  119  240 1    
   237  120  121 1    
   238  120  124 1    
   239  120  241 1    
   240  121  122 am   BACKBONE|DICT|INTERRES
   241  121  123 2    
   242  122  242 1    
   243  122  243 1    
   244  124  125 1    
   245  124  244 1    
   246  124  245 1    
   247  125  126 1    
   248  126  246 1    
   249  126  247 1    
@<TRIPOS>SUBSTRUCTURE
     1 UNK         1 GROUP             0       ****    0 ROOT    
