@<TRIPOS>MOLECULE
3R540
247   249    1
SMALL
USER_CHARGES


@<TRIPOS>ATOM
      1 CA         -3.6884  -11.4844  -45.2034 C.3       0 UNK        -0.1800 
      2 C          -2.6621  -11.7393  -46.2990 C.2       0 UNK         0.5000 
      3 O          -2.0832  -10.7909  -46.8302 O.2       0 UNK        -0.5000 
      4 N          -2.4451  -13.0140  -46.6423 N.am      1 UNK        -0.5000 
      5 CA         -1.4445  -13.4672  -47.6156 C.3       1 UNK         0.1400 
      6 C6         -1.6990  -14.9260  -48.0862 C.3       23 UNK        -0.0398 
      7 S7         -3.4214  -15.3110  -48.5584 S.3       23 UNK        -0.2404 
      8 C8         -3.6237  -16.9952  -47.8776 C.3       23 UNK        -0.0205 
      9 C9         -3.0621  -18.0718  -48.7975 C.ar      23 UNK        -0.0193 
     10 C10        -3.9270  -18.9510  -49.4550 C.ar      23 UNK        -0.1150 
     11 C11        -3.4250  -19.9518  -50.2916 C.ar      23 UNK        -0.0193 
     12 C12        -2.0437  -20.0597  -50.4806 C.ar      23 UNK        -0.1150 
     13 C13        -1.1683  -19.1681  -49.8550 C.ar      23 UNK        -0.0193 
     14 C14        -1.6832  -18.1984  -48.9917 C.ar      23 UNK        -0.1150 
     15 C15         0.3224  -19.1888  -50.1696 C.3       23 UNK        -0.0205 
     16 S16         1.2065  -20.6071  -49.4544 S.3       23 UNK        -0.2404 
     17 C17         0.9745  -20.3478  -47.6609 C.3       23 UNK        -0.0398 
     18 CA          0.5684  -21.6489  -46.9336 C.3       11 UNK         0.1400 
     19 N           0.6823  -21.5268  -45.4799 N.am      11 UNK        -0.5000 
     20 C           0.6116  -22.5576  -44.6262 C.2       10 UNK         0.5000 
     21 O           0.4502  -23.7261  -44.9769 O.2       10 UNK        -0.5000 
     22 CA          0.6843  -22.2248  -43.1266 C.3       10 UNK         0.1400 
     23 CB          2.1247  -21.8996  -42.7044 C.3       10 UNK        -0.1800 
     24 N          -0.2042  -21.1233  -42.7587 N.am      10 UNK        -0.5000 
     25 C          -1.5402  -21.1624  -42.8719 C.2       9 UNK         0.5000 
     26 O          -2.1682  -22.1500  -43.2546 O.2       9 UNK        -0.5000 
     27 CA         -2.3014  -19.8692  -42.5349 C.3       9 UNK         0.1400 
     28 CB         -2.4758  -19.7204  -41.0163 C.3       9 UNK        -0.1800 
     29 N          -1.6543  -18.6723  -43.0706 N.am      9 UNK        -0.5000 
     30 C          -1.4660  -18.4211  -44.3742 C.2       8 UNK         0.5000 
     31 O          -1.8183  -19.1717  -45.2821 O.2       8 UNK        -0.5000 
     32 CA         -0.7132  -17.1263  -44.7174 C.3       8 UNK         0.1400 
     33 CB         -1.5986  -15.9020  -44.4292 C.3       8 UNK        -0.1800 
     34 N           0.5473  -17.0121  -43.9847 N.am      8 UNK        -0.5000 
     35 C           1.5568  -17.8936  -44.0434 C.2       7 UNK         0.5000 
     36 O           1.5677  -18.8792  -44.7800 O.2       7 UNK        -0.5000 
     37 CA          2.7287  -17.6661  -43.0737 C.3       7 UNK         0.1400 
     38 CB          3.7552  -16.6839  -43.6596 C.3       7 UNK        -0.1800 
     39 N           2.2705  -17.1875  -41.7697 N.am      7 UNK        -0.5000 
     40 C           1.5773  -17.9281  -40.8926 C.2       6 UNK         0.5000 
     41 O           1.2879  -19.1114  -41.0714 O.2       6 UNK        -0.5000 
     42 CA          1.0842  -17.2047  -39.6260 C.3       6 UNK         0.1400 
     43 CB          2.2172  -17.0709  -38.5973 C.3       6 UNK        -0.1800 
     44 N           0.5372  -15.8799  -39.9245 N.am      6 UNK        -0.5000 
     45 C          -0.5818  -15.6708  -40.6323 C.2       5 UNK         0.5000 
     46 O          -1.3022  -16.5787  -41.0460 O.2       5 UNK        -0.5000 
     47 CA         -0.9370  -14.2084  -40.9696 C.3       5 UNK         0.1400 
     48 CB         -1.8632  -13.6205  -39.8950 C.3       5 UNK        -0.1800 
     49 N           0.2263  -13.3309  -41.1374 N.am      5 UNK        -0.5000 
     50 C           1.1913  -13.4969  -42.0516 C.2       4 UNK         0.5000 
     51 O           1.2361  -14.4458  -42.8383 O.2       4 UNK        -0.5000 
     52 CA          2.3262  -12.4655  -42.0364 C.3       4 UNK         0.1400 
     53 CB          3.2644  -12.7257  -40.8401 C.3       4 UNK        -0.1800 
     54 N           3.0716  -12.5584  -43.2879 N.am      4 UNK        -0.5000 
     55 C           3.9575  -11.6628  -43.7396 C.2       3 UNK         0.5000 
     56 O           4.2076  -10.6028  -43.1638 O.2       3 UNK        -0.5000 
     57 CA          4.7151  -12.0063  -45.0364 C.3       3 UNK         0.1400 
     58 CB          6.0950  -12.5936  -44.7008 C.3       3 UNK        -0.1800 
     59 N           3.9992  -12.9561  -45.8886 N.am      3 UNK        -0.5000 
     60 C           3.0340  -12.6253  -46.7558 C.2       2 UNK         0.5000 
     61 O           2.6691  -11.4642  -46.9556 O.2       2 UNK        -0.5000 
     62 CA          2.4016  -13.7802  -47.5685 C.3       2 UNK         0.1400 
     63 CB          2.5613  -15.1691  -46.9028 C.3       2 UNK        -0.1800 
     64 N           0.9901  -13.5600  -47.9061 N.am      2 UNK        -0.5000 
     65 C          -0.0123  -13.3639  -47.0366 C.2       1 UNK         0.5000 
     66 O           0.1577  -13.1984  -45.8264 O.2       1 UNK        -0.5000 
     67 C          -0.8222  -22.1587  -47.3623 C.2       11 UNK         0.5000 
     68 O          -0.8920  -23.0840  -48.1682 O.2       11 UNK        -0.5000 
     69 N          -1.8943  -21.6092  -46.7745 N.am      12 UNK        -0.5000 
     70 CA         -3.2752  -22.0228  -47.0339 C.3       12 UNK         0.1400 
     71 CB         -4.2381  -21.0803  -46.2972 C.3       12 UNK        -0.1800 
     72 C          -3.5647  -23.4917  -46.6658 C.2       12 UNK         0.5000 
     73 O          -4.4224  -24.1100  -47.2953 O.2       12 UNK        -0.5000 
     74 N          -2.8452  -24.0277  -45.6711 N.am      13 UNK        -0.5000 
     75 CA         -2.8860  -25.4383  -45.2985 C.3       13 UNK         0.1400 
     76 CB         -2.4408  -25.5931  -43.8356 C.3       13 UNK        -0.1800 
     77 C          -2.0220  -26.3051  -46.2336 C.2       13 UNK         0.5000 
     78 O          -2.4977  -27.3331  -46.7173 O.2       13 UNK        -0.5000 
     79 N          -0.7644  -25.8944  -46.4499 N.am      14 UNK        -0.5000 
     80 CA          0.2440  -26.6603  -47.1857 C.3       14 UNK         0.1400 
     81 CB          1.6362  -26.0899  -46.8738 C.3       14 UNK        -0.1800 
     82 C           0.0184  -26.7041  -48.7075 C.2       14 UNK         0.5000 
     83 O           0.2724  -27.7390  -49.3257 O.2       14 UNK        -0.5000 
     84 N          -0.4326  -25.5871  -49.2843 N.am      15 UNK        -0.5000 
     85 CA         -0.6362  -25.3874  -50.7135 C.3       15 UNK         0.1400 
     86 CB          0.5290  -24.5564  -51.2782 C.3       15 UNK        -0.1800 
     87 C          -2.0038  -24.7207  -50.9073 C.2       15 UNK         0.5000 
     88 O          -2.0887  -23.5536  -51.2856 O.2       15 UNK        -0.5000 
     89 N          -3.0589  -25.4892  -50.6127 N.am      16 UNK        -0.5000 
     90 CA         -4.4601  -25.0606  -50.5884 C.3       16 UNK         0.1400 
     91 CB         -5.2897  -26.1778  -49.9338 C.3       16 UNK        -0.1800 
     92 C          -5.0673  -24.6620  -51.9521 C.2       16 UNK         0.5000 
     93 O          -6.2088  -24.2002  -51.9788 O.2       16 UNK        -0.5000 
     94 N          -4.3276  -24.8514  -53.0501 N.am      17 UNK        -0.5000 
     95 CA         -4.7179  -24.4826  -54.4047 C.3       17 UNK         0.1400 
     96 CB         -5.0925  -25.7542  -55.1824 C.3       17 UNK        -0.1800 
     97 C          -3.5542  -23.7539  -55.0910 C.2       17 UNK         0.5000 
     98 O          -2.3932  -24.0836  -54.8362 O.2       17 UNK        -0.5000 
     99 N          -3.8972  -22.8130  -55.9811 N.am      18 UNK        -0.5000 
    100 CA        -3.0560  -22.0909  -56.9458 C.3       18 UNK         0.1400 
    101 CB        -2.4144  -23.0701  -57.9467 C.3       18 UNK        -0.1800 
    102 C         -1.9910  -21.1324  -56.3742 C.2       18 UNK         0.5000 
    103 O         -1.7496  -20.0938  -56.9910 O.2       18 UNK        -0.5000 
    104 N         -1.3706  -21.4712  -55.2371 N.am      19 UNK        -0.5000 
    105 CA        -0.2025  -20.7906  -54.6616 C.3       19 UNK         0.1400 
    106 CB         0.2963  -21.5828  -53.4459 C.3       19 UNK        -0.1800 
    107 C         -0.3923  -19.2960  -54.3274 C.2       19 UNK         0.5000 
    108 O          0.5813  -18.5429  -54.3729 O.2       19 UNK        -0.5000 
    109 N         -1.6333  -18.8841  -54.0525 N.am      20 UNK        -0.5000 
    110 CA        -2.0586  -17.4863  -53.9788 C.3       20 UNK         0.1400 
    111 CB        -2.0790  -17.0147  -52.5139 C.3       20 UNK        -0.1800 
    112 C         -3.4202  -17.3451  -54.6805 C.2       20 UNK         0.5000 
    113 O         -4.3229  -16.6893  -54.1572 O.2       20 UNK        -0.5000 
    114 N         -3.5637  -18.0283  -55.8284 N.am      21 UNK        -0.5000 
    115 CA        -4.7850  -18.2856  -56.6050 C.3       21 UNK         0.1400 
    116 CB        -5.4754  -16.9876  -57.0662 C.3       21 UNK        -0.1800 
    117 C         -5.7555  -19.2299  -55.8701 C.2       21 UNK         0.5000 
    118 O         -6.0982  -20.2844  -56.4061 O.2       21 UNK        -0.5000 
    119 N         -6.1173  -18.8622  -54.6353 N.am      22 UNK        -0.5000 
    120 CA        -6.8408  -19.6746  -53.6415 C.3       22 UNK         0.1400 
    121 C         -8.3439  -19.9315  -53.9670 C.2       22 UNK         0.5000 
    122 N         -8.9460  -19.2245  -54.9153 N.am      22 UNK        -0.7600 
    123 O         -8.9884  -20.7604  -53.3303 O.2       22 UNK        -0.5000 
    124 C124       -6.0821  -20.9794  -53.2650 C.3       23 UNK        -0.0398 
    125 S125       -4.3374  -20.6855  -52.8003 S.3       23 UNK        -0.2404 
    126 C126       -4.3778  -20.9069  -50.9938 C.3       23 UNK        -0.0205 
    127 H127       -4.1263  -12.4122  -44.8339 H         1 UNK         0.0600 
    128 H128       -4.4939  -10.8550  -45.5819 H         1 UNK         0.0600 
    129 H129       -3.2195  -10.9725  -44.3630 H         1 UNK         0.0600 
    130 H130       -2.9553  -13.7459  -46.1720 H         1 UNK         0.3000 
    131 H131       -1.5035  -12.8119  -48.4873 H         1 UNK         0.0600 
    132 H132       -1.3959  -15.6193  -47.3034 H         1 UNK         0.0800 
    133 H133       -1.0715  -15.1551  -48.9491 H         1 UNK         0.0800 
    134 H134       -4.6885  -17.1650  -47.7116 H         1 UNK         0.0800 
    135 H135       -3.1575  -17.0801  -46.8974 H         1 UNK         0.0800 
    136 H136       -4.9942  -18.8585  -49.3117 H         1 UNK         0.1150 
    137 H137       -1.6564  -20.8236  -51.1364 H         1 UNK         0.1150 
    138 H138       -1.0040  -17.5253  -48.4938 H         1 UNK         0.1150 
    139 H139        0.4506  -19.2098  -51.2524 H         1 UNK         0.0800 
    140 H140        0.8007  -18.2687  -49.8305 H         1 UNK         0.0800 
    141 H141        0.2494  -19.5573  -47.4658 H         1 UNK         0.0800 
    142 H142        1.9237  -19.9849  -47.2648 H         1 UNK         0.0800 
    143 H143        1.2875  -22.4172  -47.2273 H         1 UNK         0.0600 
    144 H144        0.8331  -20.5891  -45.1158 H         1 UNK         0.3000 
    145 H145        0.3623  -23.1103  -42.5747 H         1 UNK         0.0600 
    146 H146        2.1934  -21.7433  -41.6278 H         1 UNK         0.0600 
    147 H147        2.4971  -21.0013  -43.1969 H         1 UNK         0.0600 
    148 H148        2.7998  -22.7178  -42.9582 H         1 UNK         0.0600 
    149 H149        0.2349  -20.2843  -42.3943 H         1 UNK         0.3000 
    150 H150       -3.2926  -19.9408  -42.9871 H         1 UNK         0.0600 
    151 H151       -2.9628  -20.5982  -40.5898 H         1 UNK         0.0600 
    152 H152       -3.0935  -18.8553  -40.7744 H         1 UNK         0.0600 
    153 H153       -1.5168  -19.5964  -40.5115 H         1 UNK         0.0600 
    154 H154       -1.3539  -17.9793  -42.3905 H         1 UNK         0.3000 
    155 H155       -0.4679  -17.1435  -45.7806 H         1 UNK         0.0600 
    156 H156       -2.4334  -15.8439  -45.1251 H         1 UNK         0.0600 
    157 H157       -1.0376  -14.9742  -44.5093 H         1 UNK         0.0600 
    158 H158       -2.0303  -15.9343  -43.4310 H         1 UNK         0.0600 
    159 H159        0.6624  -16.1901  -43.3986 H         1 UNK         0.3000 
    160 H160        3.2284  -18.6257  -42.9266 H         1 UNK         0.0600 
    161 H161        3.3324  -15.6913  -43.8082 H         1 UNK         0.0600 
    162 H162        4.1193  -17.0336  -44.6264 H         1 UNK         0.0600 
    163 H163        4.6205  -16.5827  -43.0044 H         1 UNK         0.0600 
    164 H164        2.4042  -16.2061  -41.5768 H         1 UNK         0.3000 
    165 H165        0.2904  -17.8104  -39.1833 H         1 UNK         0.0600 
    166 H166        1.8555  -16.6290  -37.6687 H         1 UNK         0.0600 
    167 H167        2.6360  -18.0473  -38.3499 H         1 UNK         0.0600 
    168 H168        3.0319  -16.4488  -38.9702 H         1 UNK         0.0600 
    169 H169        1.0682  -15.0804  -39.6133 H         1 UNK         0.3000 
    170 H170       -1.4794  -14.2121  -41.9162 H         1 UNK         0.0600 
    171 H171       -1.3654  -13.5534  -38.9269 H         1 UNK         0.0600 
    172 H172       -2.2025  -12.6215  -40.1695 H         1 UNK         0.0600 
    173 H173       -2.7524  -14.2391  -39.7650 H         1 UNK         0.0600 
    174 H174        0.2754  -12.5349  -40.5178 H         1 UNK         0.3000 
    175 H175        1.8864  -11.4694  -41.9565 H         1 UNK         0.0600 
    176 H176        3.7363  -13.7067  -40.9081 H         1 UNK         0.0600 
    177 H177        4.0565  -11.9794  -40.7821 H         1 UNK         0.0600 
    178 H178        2.7227  -12.6859  -39.8945 H         1 UNK         0.0600 
    179 H179        2.8473  -13.3748  -43.8421 H         1 UNK         0.3000 
    180 H180        4.8688  -11.0759  -45.5870 H         1 UNK         0.0600 
    181 H181        6.6725  -12.7866  -45.6050 H         1 UNK         0.0600 
    182 H182        6.0109  -13.5304  -44.1485 H         1 UNK         0.0600 
    183 H183        6.6753  -11.9027  -44.0877 H         1 UNK         0.0600 
    184 H184        4.2585  -13.9272  -45.7990 H         1 UNK         0.3000 
    185 H185        2.9392  -13.8059  -48.5175 H         1 UNK         0.0600 
    186 H186        2.1135  -15.1937  -45.9083 H         1 UNK         0.0600 
    187 H187        2.0788  -15.9458  -47.4966 H         1 UNK         0.0600 
    188 H188        3.6093  -15.4546  -46.8081 H         1 UNK         0.0600 
    189 H189        0.7712  -13.6270  -48.8899 H         1 UNK         0.3000 
    190 H190       -1.7696  -20.8262  -46.1364 H         1 UNK         0.3000 
    191 H191       -3.4499  -21.9187  -48.1064 H         1 UNK         0.0600 
    192 H192       -4.1042  -20.0484  -46.6215 H         1 UNK         0.0600 
    193 H193       -4.0839  -21.1152  -45.2182 H         1 UNK         0.0600 
    194 H194       -5.2766  -21.3500  -46.4925 H         1 UNK         0.0600 
    195 H195       -2.1915  -23.4380  -45.1712 H         1 UNK         0.3000 
    196 H196       -3.9164  -25.7934  -45.3695 H         1 UNK         0.0600 
    197 H197       -3.0963  -25.0363  -43.1656 H         1 UNK         0.0600 
    198 H198       -1.4240  -25.2323  -43.6788 H         1 UNK         0.0600 
    199 H199       -2.4706  -26.6386  -43.5268 H         1 UNK         0.0600 
    200 H200       -0.4397  -25.0421  -45.9995 H         1 UNK         0.3000 
    201 H201        0.2156  -27.6893  -46.8206 H         1 UNK         0.0600 
    202 H202        1.8504  -26.1339  -45.8057 H         1 UNK         0.0600 
    203 H203        1.7223  -25.0492  -47.1895 H         1 UNK         0.0600 
    204 H204        2.4160  -26.6551  -47.3857 H         1 UNK         0.0600 
    205 H205       -0.6374  -24.7694  -48.7087 H         1 UNK         0.3000 
    206 H206       -0.6621  -26.3440  -51.2394 H         1 UNK         0.0600 
    207 H207        0.5839  -23.5701  -50.8143 H         1 UNK         0.0600 
    208 H208        1.4846  -25.0555  -51.1176 H         1 UNK         0.0600 
    209 H209        0.4119  -24.4146  -52.3522 H         1 UNK         0.0600 
    210 H210       -2.8832  -26.4327  -50.2989 H         1 UNK         0.3000 
    211 H211       -4.5198  -24.1766  -49.9520 H         1 UNK         0.0600 
    212 H212       -5.2675  -27.0937  -50.5254 H         1 UNK         0.0600 
    213 H213       -6.3336  -25.8810  -49.8249 H         1 UNK         0.0600 
    214 H214       -4.9181  -26.4116  -48.9355 H         1 UNK         0.0600 
    215 H215       -3.3664  -25.1458  -52.9454 H         1 UNK         0.3000 
    216 H216       -5.5841  -23.8213  -54.3875 H         1 UNK         0.0600 
    217 H217       -5.3892  -25.5151  -56.2045 H         1 UNK         0.0600 
    218 H218       -5.9302  -26.2698  -54.7126 H         1 UNK         0.0600 
    219 H219       -4.2569  -26.4533  -55.2369 H         1 UNK         0.0600 
    220 H220       -4.8804  -22.5923  -56.0669 H         1 UNK         0.3000 
    221 H221       -3.7483  -21.4651  -57.5110 H         1 UNK         0.0600 
    222 H222       -1.8766  -22.5324  -58.7287 H         1 UNK         0.0600 
    223 H223       -1.7011  -23.7376  -57.4622 H         1 UNK         0.0600 
    224 H224       -3.1696  -23.6845  -58.4370 H         1 UNK         0.0600 
    225 H225       -1.6318  -22.3610  -54.8202 H         1 UNK         0.3000 
    226 H226        0.5841  -20.8292  -55.4179 H         1 UNK         0.0600 
    227 H227        0.7052  -22.5433  -53.7574 H         1 UNK         0.0600 
    228 H228        1.0884  -21.0521  -52.9159 H         1 UNK         0.0600 
    229 H229       -0.5055  -21.7802  -52.7368 H         1 UNK         0.0600 
    230 H230       -2.3724  -19.5740  -54.0047 H         1 UNK         0.3000 
    231 H231       -1.3619  -16.8547  -54.5335 H         1 UNK         0.0600 
    232 H232       -1.1030  -17.1372  -52.0454 H         1 UNK         0.0600 
    233 H233       -2.8081  -17.5729  -51.9265 H         1 UNK         0.0600 
    234 H234       -2.3418  -15.9588  -52.4436 H         1 UNK         0.0600 
    235 H235       -2.7547  -18.5471  -56.1567 H         1 UNK         0.3000 
    236 H236       -4.4541  -18.8108  -57.5025 H         1 UNK         0.0600 
    237 H237       -5.8845  -16.4153  -56.2337 H         1 UNK         0.0600 
    238 H238       -4.7807  -16.3439  -57.6056 H         1 UNK         0.0600 
    239 H239       -6.3024  -17.2107  -57.7410 H         1 UNK         0.0600 
    240 H240       -5.7385  -17.9838  -54.2925 H         1 UNK         0.3000 
    241 H241       -6.8639  -19.0576  -52.7428 H         1 UNK         0.0600 
    242 H242       -8.4318  -18.5356  -55.4405 H         1 UNK         0.3800 
    243 H243       -9.9208  -19.3860  -55.1148 H         1 UNK         0.3800 
    244 H244       -6.0960  -21.6643  -54.1102 H         1 UNK         0.0800 
    245 H245       -6.5896  -21.5026  -52.4535 H         1 UNK         0.0800 
    246 H246       -5.3928  -20.7629  -50.6217 H         1 UNK         0.0800 
    247 H247       -4.1035  -21.9325  -50.7516 H         1 UNK         0.0800 
@<TRIPOS>BOND
     1    1    2 1    
     2    1  127 1    
     3    1  128 1    
     4    1  129 1    
     5    2    3 2    
     6    2    4 am   BACKBONE|DICT|INTERRES
     7    4    5 1    
     8    4  130 1    
     9    5    6 1    
    10    5   65 1    
    11    5  131 1    
    12    6    7 1    
    13    6  132 1    
    14    6  133 1    
    15    7    8 1    
    16    8    9 1    
    17    8  134 1    
    18    8  135 1    
    19    9   10 ar   
    20    9   14 ar   
    21   10   11 ar   
    22   10  136 1    
    23   11   12 ar   
    24   11  126 1    
    25   12   13 ar   
    26   12  137 1    
    27   13   14 ar   
    28   13   15 1    
    29   14  138 1    
    30   15   16 1    
    31   15  139 1    
    32   15  140 1    
    33   16   17 1    
    34   17   18 1    
    35   17  141 1    
    36   17  142 1    
    37   18   19 1    
    38   18   67 1    
    39   18  143 1    
    40   19   20 am   BACKBONE|DICT|INTERRES
    41   19  144 1    
    42   20   21 2    
    43   20   22 1    
    44   22   23 1    
    45   22   24 1    
    46   22  145 1    
    47   23  146 1    
    48   23  147 1    
    49   23  148 1    
    50   24   25 am   BACKBONE|DICT|INTERRES
    51   24  149 1    
    52   25   26 2    
    53   25   27 1    
    54   27   28 1    
    55   27   29 1    
    56   27  150 1    
    57   28  151 1    
    58   28  152 1    
    59   28  153 1    
    60   29   30 am   BACKBONE|DICT|INTERRES
    61   29  154 1    
    62   30   31 2    
    63   30   32 1    
    64   32   33 1    
    65   32   34 1    
    66   32  155 1    
    67   33  156 1    
    68   33  157 1    
    69   33  158 1    
    70   34   35 am   BACKBONE|DICT|INTERRES
    71   34  159 1    
    72   35   36 2    
    73   35   37 1    
    74   37   38 1    
    75   37   39 1    
    76   37  160 1    
    77   38  161 1    
    78   38  162 1    
    79   38  163 1    
    80   39   40 am   BACKBONE|DICT|INTERRES
    81   39  164 1    
    82   40   41 2    
    83   40   42 1    
    84   42   43 1    
    85   42   44 1    
    86   42  165 1    
    87   43  166 1    
    88   43  167 1    
    89   43  168 1    
    90   44   45 am   BACKBONE|DICT|INTERRES
    91   44  169 1    
    92   45   46 2    
    93   45   47 1    
    94   47   48 1    
    95   47   49 1    
    96   47  170 1    
    97   48  171 1    
    98   48  172 1    
    99   48  173 1    
   100   49   50 am   BACKBONE|DICT|INTERRES
   101   49  174 1    
   102   50   51 2    
   103   50   52 1    
   104   52   53 1    
   105   52   54 1    
   106   52  175 1    
   107   53  176 1    
   108   53  177 1    
   109   53  178 1    
   110   54   55 am   BACKBONE|DICT|INTERRES
   111   54  179 1    
   112   55   56 2    
   113   55   57 1    
   114   57   58 1    
   115   57   59 1    
   116   57  180 1    
   117   58  181 1    
   118   58  182 1    
   119   58  183 1    
   120   59   60 am   BACKBONE|DICT|INTERRES
   121   59  184 1    
   122   60   61 2    
   123   60   62 1    
   124   62   63 1    
   125   62   64 1    
   126   62  185 1    
   127   63  186 1    
   128   63  187 1    
   129   63  188 1    
   130   64   65 am   BACKBONE|DICT|INTERRES
   131   64  189 1    
   132   65   66 2    
   133   67   68 2    
   134   67   69 am   BACKBONE|DICT|INTERRES
   135   69   70 1    
   136   69  190 1    
   137   70   71 1    
   138   70   72 1    
   139   70  191 1    
   140   71  192 1    
   141   71  193 1    
   142   71  194 1    
   143   72   73 2    
   144   72   74 am   BACKBONE|DICT|INTERRES
   145   74   75 1    
   146   74  195 1    
   147   75   76 1    
   148   75   77 1    
   149   75  196 1    
   150   76  197 1    
   151   76  198 1    
   152   76  199 1    
   153   77   78 2    
   154   77   79 am   BACKBONE|DICT|INTERRES
   155   79   80 1    
   156   79  200 1    
   157   80   81 1    
   158   80   82 1    
   159   80  201 1    
   160   81  202 1    
   161   81  203 1    
   162   81  204 1    
   163   82   83 2    
   164   82   84 am   BACKBONE|DICT|INTERRES
   165   84   85 1    
   166   84  205 1    
   167   85   86 1    
   168   85   87 1    
   169   85  206 1    
   170   86  207 1    
   171   86  208 1    
   172   86  209 1    
   173   87   88 2    
   174   87   89 am   BACKBONE|DICT|INTERRES
   175   89   90 1    
   176   89  210 1    
   177   90   91 1    
   178   90   92 1    
   179   90  211 1    
   180   91  212 1    
   181   91  213 1    
   182   91  214 1    
   183   92   93 2    
   184   92   94 am   BACKBONE|DICT|INTERRES
   185   94   95 1    
   186   94  215 1    
   187   95   96 1    
   188   95   97 1    
   189   95  216 1    
   190   96  217 1    
   191   96  218 1    
   192   96  219 1    
   193   97   98 2    
   194   97   99 am   BACKBONE|DICT|INTERRES
   195   99  100 1    
   196   99  220 1    
   197  100  101 1    
   198  100  102 1    
   199  100  221 1    
   200  101  222 1    
   201  101  223 1    
   202  101  224 1    
   203  102  103 2    
   204  102  104 am   BACKBONE|DICT|INTERRES
   205  104  105 1    
   206  104  225 1    
   207  105  106 1    
   208  105  107 1    
   209  105  226 1    
   210  106  227 1    
   211  106  228 1    
   212  106  229 1    
   213  107  108 2    
   214  107  109 am   BACKBONE|DICT|INTERRES
   215  109  110 1    
   216  109  230 1    
   217  110  111 1    
   218  110  112 1    
   219  110  231 1    
   220  111  232 1    
   221  111  233 1    
   222  111  234 1    
   223  112  113 2    
   224  112  114 am   BACKBONE|DICT|INTERRES
   225  114  115 1    
   226  114  235 1    
   227  115  116 1    
   228  115  117 1    
   229  115  236 1    
   230  116  237 1    
   231  116  238 1    
   232  116  239 1    
   233  117  118 2    
   234  117  119 am   BACKBONE|DICT|INTERRES
   235  119  120 1    
   236  119  240 1    
   237  120  121 1    
   238  120  124 1    
   239  120  241 1    
   240  121  122 am   BACKBONE|DICT|INTERRES
   241  121  123 2    
   242  122  242 1    
   243  122  243 1    
   244  124  125 1    
   245  124  244 1    
   246  124  245 1    
   247  125  126 1    
   248  126  246 1    
   249  126  247 1    
@<TRIPOS>SUBSTRUCTURE
     1 UNK         1 GROUP             0       ****    0 ROOT    
