@<TRIPOS>MOLECULE
3R540
247   249    1
SMALL
USER_CHARGES


@<TRIPOS>ATOM
      1 CA          1.5646   -8.7662  -46.5010 C.3       0 UNK        -0.1800 
      2 C           1.2878  -10.1966  -46.0637 C.2       0 UNK         0.5000 
      3 O           1.9330  -10.6875  -45.1380 O.2       0 UNK        -0.5000 
      4 N           0.3200  -10.8616  -46.7100 N.am      1 UNK        -0.5000 
      5 CA         -0.0853  -12.2507  -46.4491 C.3       1 UNK         0.1400 
      6 C6         -1.1500  -12.7223  -47.4717 C.3       23 UNK        -0.0398 
      7 S7         -1.2495  -14.5364  -47.6523 S.3       23 UNK        -0.2404 
      8 C8         -0.1214  -14.8118  -49.0544 C.3       23 UNK        -0.0205 
      9 C9         -0.2609  -16.2148  -49.6267 C.ar      23 UNK        -0.0193 
     10 C10        -1.3648  -16.5242  -50.4267 C.ar      23 UNK        -0.1150 
     11 C11        -1.4867  -17.7857  -51.0125 C.ar      23 UNK        -0.0193 
     12 C12        -0.4853  -18.7348  -50.8045 C.ar      23 UNK        -0.1150 
     13 C13         0.6071  -18.4582  -49.9776 C.ar      23 UNK        -0.0193 
     14 C14         0.7158  -17.1908  -49.3925 C.ar      23 UNK        -0.1150 
     15 C15         1.6819  -19.5171  -49.7521 C.3       23 UNK        -0.0205 
     16 S16         1.2734  -20.6820  -48.4033 S.3       23 UNK        -0.2404 
     17 C17        -0.0358  -21.7228  -49.1535 C.3       23 UNK        -0.0398 
     18 CA         -1.4440  -21.5255  -48.5295 C.3       11 UNK         0.1400 
     19 N          -1.7266  -20.1176  -48.2322 N.am      11 UNK        -0.5000 
     20 C          -2.6934  -19.6459  -47.4371 C.2       10 UNK         0.5000 
     21 O          -3.6410  -20.3257  -47.0429 O.2       10 UNK        -0.5000 
     22 CA         -2.5331  -18.1732  -47.0084 C.3       10 UNK         0.1400 
     23 CB         -3.4928  -17.7636  -45.8731 C.3       10 UNK        -0.1800 
     24 N          -1.1402  -17.8559  -46.6612 N.am      10 UNK        -0.5000 
     25 C          -0.3944  -18.4315  -45.7049 C.2       9 UNK         0.5000 
     26 O          -0.8129  -19.2923  -44.9249 O.2       9 UNK        -0.5000 
     27 CA          1.0720  -17.9758  -45.6086 C.3       9 UNK         0.1400 
     28 CB          1.1862  -16.4423  -45.5179 C.3       9 UNK        -0.1800 
     29 N           1.6714  -18.6277  -44.4462 N.am      9 UNK        -0.5000 
     30 C           2.9646  -18.6407  -44.1125 C.2       8 UNK         0.5000 
     31 O           3.8472  -18.0525  -44.7408 O.2       8 UNK        -0.5000 
     32 CA          3.3459  -19.4681  -42.8776 C.3       8 UNK         0.1400 
     33 CB          4.1474  -20.7149  -43.3076 C.3       8 UNK        -0.1800 
     34 N           4.1137  -18.6116  -41.9772 N.am      8 UNK        -0.5000 
     35 C           4.5918  -18.9365  -40.7695 C.2       7 UNK         0.5000 
     36 O           4.4468  -20.0391  -40.2407 O.2       7 UNK        -0.5000 
     37 CA          5.3215  -17.8221  -40.0031 C.3       7 UNK         0.1400 
     38 CB          6.4858  -17.2279  -40.8155 C.3       7 UNK        -0.1800 
     39 N           4.3649  -16.7708  -39.6740 N.am      7 UNK        -0.5000 
     40 C           3.7347  -16.6479  -38.4971 C.2       6 UNK         0.5000 
     41 O           4.0015  -17.3234  -37.5023 O.2       6 UNK        -0.5000 
     42 CA          2.5958  -15.6089  -38.4165 C.3       6 UNK         0.1400 
     43 CB          3.1198  -14.2776  -37.8584 C.3       6 UNK        -0.1800 
     44 N           1.9485  -15.3694  -39.7082 N.am      6 UNK        -0.5000 
     45 C           1.2357  -16.2863  -40.3810 C.2       5 UNK         0.5000 
     46 O           0.9404  -17.3883  -39.9179 O.2       5 UNK        -0.5000 
     47 CA          0.8071  -15.9462  -41.8225 C.3       5 UNK         0.1400 
     48 CB         -0.6917  -15.6115  -41.8724 C.3       5 UNK        -0.1800 
     49 N           1.5654  -14.8621  -42.4540 N.am      5 UNK        -0.5000 
     50 C           2.8917  -14.8310  -42.6523 C.2       4 UNK         0.5000 
     51 O           3.6519  -15.7437  -42.3283 O.2       4 UNK        -0.5000 
     52 CA          3.4779  -13.5410  -43.2562 C.3       4 UNK         0.1400 
     53 CB          3.5878  -13.6526  -44.7830 C.3       4 UNK        -0.1800 
     54 N           2.7180  -12.3366  -42.9147 N.am      4 UNK        -0.5000 
     55 C           2.5341  -11.8640  -41.6731 C.2       3 UNK         0.5000 
     56 O           2.9872  -12.4009  -40.6621 O.2       3 UNK        -0.5000 
     57 CA          1.6617  -10.6057  -41.5407 C.3       3 UNK         0.1400 
     58 CB          2.4485   -9.3425  -41.9241 C.3       3 UNK        -0.1800 
     59 N           0.4629  -10.7127  -42.3713 N.am      3 UNK        -0.5000 
     60 C          -0.6429  -11.3788  -42.0106 C.2       2 UNK         0.5000 
     61 O          -0.7953  -11.9000  -40.9057 O.2       2 UNK        -0.5000 
     62 CA         -1.7679  -11.4946  -43.0585 C.3       2 UNK         0.1400 
     63 CB         -2.7863  -10.3583  -42.8813 C.3       2 UNK        -0.1800 
     64 N          -1.2856  -11.4921  -44.4414 N.am      2 UNK        -0.5000 
     65 C          -0.5491  -12.4686  -44.9914 C.2       1 UNK         0.5000 
     66 O          -0.1872  -13.4712  -44.3786 O.2       1 UNK        -0.5000 
     67 C          -2.5402  -22.2354  -49.3604 C.2       11 UNK         0.5000 
     68 O          -2.4900  -23.4541  -49.5186 O.2       11 UNK        -0.5000 
     69 N          -3.5310  -21.4834  -49.8586 N.am      12 UNK        -0.5000 
     70 CA         -4.7624  -22.0211  -50.4383 C.3       12 UNK         0.1400 
     71 CB         -5.4682  -20.9244  -51.2470 C.3       12 UNK        -0.1800 
     72 C          -5.7079  -22.6148  -49.3738 C.2       12 UNK         0.5000 
     73 O          -6.4696  -23.5256  -49.6929 O.2       12 UNK        -0.5000 
     74 N          -5.6325  -22.1249  -48.1271 N.am      13 UNK        -0.5000 
     75 CA         -6.3669  -22.6809  -46.9875 C.3       13 UNK         0.1400 
     76 CB         -6.5408  -21.5952  -45.9144 C.3       13 UNK        -0.1800 
     77 C          -5.6634  -23.9169  -46.3949 C.2       13 UNK         0.5000 
     78 O          -6.3187  -24.7440  -45.7594 O.2       13 UNK        -0.5000 
     79 N          -4.3479  -24.0351  -46.6226 N.am      14 UNK        -0.5000 
     80 CA         -3.4981  -25.1381  -46.1791 C.3       14 UNK         0.1400 
     81 CB         -2.0397  -24.6494  -46.1139 C.3       14 UNK        -0.1800 
     82 C          -3.6689  -26.3658  -47.0939 C.2       14 UNK         0.5000 
     83 O          -2.7751  -26.6862  -47.8775 O.2       14 UNK        -0.5000 
     84 N          -4.8404  -27.0098  -46.9990 N.am      15 UNK        -0.5000 
     85 CA         -5.2398  -28.2302  -47.7127 C.3       15 UNK         0.1400 
     86 CB         -4.4264  -29.4387  -47.2035 C.3       15 UNK        -0.1800 
     87 C          -5.2025  -28.0902  -49.2512 C.2       15 UNK         0.5000 
     88 O          -4.8789  -29.0514  -49.9510 O.2       15 UNK        -0.5000 
     89 N          -5.5344  -26.8864  -49.7426 N.am      16 UNK        -0.5000 
     90 CA         -5.5899  -26.4869  -51.1531 C.3       16 UNK         0.1400 
     91 CB         -6.6599  -27.2996  -51.9139 C.3       16 UNK        -0.1800 
     92 C          -4.2249  -26.4774  -51.8744 C.2       16 UNK         0.5000 
     93 O          -4.2022  -26.4862  -53.1062 O.2       16 UNK        -0.5000 
     94 N          -3.1151  -26.4246  -51.1199 N.am      17 UNK        -0.5000 
     95 CA         -1.7413  -26.5313  -51.6270 C.3       17 UNK         0.1400 
     96 CB         -0.7545  -26.4975  -50.4505 C.3       17 UNK        -0.1800 
     97 C          -1.3520  -25.4816  -52.6863 C.2       17 UNK         0.5000 
     98 O          -0.5941  -25.8075  -53.6010 O.2       17 UNK        -0.5000 
     99 N          -1.8899  -24.2621  -52.5603 N.am      18 UNK        -0.5000 
    100 CA        -1.6919  -23.1651  -53.5112 C.3       18 UNK         0.1400 
    101 CB        -0.9052  -22.0398  -52.8283 C.3       18 UNK        -0.1800 
    102 C         -3.0195  -22.6396  -54.0816 C.2       18 UNK         0.5000 
    103 O         -3.0375  -21.5410  -54.6376 O.2       18 UNK        -0.5000 
    104 N         -4.1124  -23.4089  -53.9648 N.am      19 UNK        -0.5000 
    105 CA        -5.4357  -23.0114  -54.4630 C.3       19 UNK         0.1400 
    106 CB        -6.4969  -24.0073  -53.9793 C.3       19 UNK        -0.1800 
    107 C         -5.4855  -22.8563  -55.9948 C.2       19 UNK         0.5000 
    108 O         -6.1779  -21.9707  -56.4952 O.2       19 UNK        -0.5000 
    109 N         -4.7054  -23.6806  -56.7066 N.am      20 UNK        -0.5000 
    110 CA        -4.5302  -23.6098  -58.1581 C.3       20 UNK         0.1400 
    111 CB        -3.8451  -24.8987  -58.6376 C.3       20 UNK        -0.1800 
    112 C         -3.7324  -22.3724  -58.6197 C.2       20 UNK         0.5000 
    113 O         -3.8907  -21.9505  -59.7659 O.2       20 UNK        -0.5000 
    114 N         -2.8908  -21.8212  -57.7340 N.am      21 UNK        -0.5000 
    115 CA        -2.0840  -20.6303  -57.9888 C.3       21 UNK         0.1400 
    116 CB        -0.7597  -20.7319  -57.2131 C.3       21 UNK        -0.1800 
    117 C         -2.8490  -19.3531  -57.6089 C.2       21 UNK         0.5000 
    118 O         -2.9255  -18.4277  -58.4185 O.2       21 UNK        -0.5000 
    119 N         -3.3944  -19.3250  -56.3868 N.am      22 UNK        -0.5000 
    120 CA        -4.1187  -18.1736  -55.8278 C.3       22 UNK         0.1400 
    121 C         -5.5811  -18.0229  -56.3354 C.2       22 UNK         0.5000 
    122 N         -6.2270  -19.0597  -56.8536 N.am      22 UNK        -0.7600 
    123 O         -6.1410  -16.9321  -56.2668 O.2       22 UNK        -0.5000 
    124 C124       -4.0714  -18.1668  -54.2802 C.3       23 UNK        -0.0398 
    125 S125       -2.3794  -17.9561  -53.6298 S.3       23 UNK        -0.2404 
    126 C126       -2.7060  -18.1328  -51.8518 C.3       23 UNK        -0.0205 
    127 H127        2.5959   -8.6727  -46.8409 H         1 UNK         0.0600 
    128 H128        1.4176   -8.0841  -45.6636 H         1 UNK         0.0600 
    129 H129        0.9079   -8.4555  -47.3138 H         1 UNK         0.0600 
    130 H130       -0.1750  -10.3929  -47.4555 H         1 UNK         0.3000 
    131 H131        0.8105  -12.8575  -46.5943 H         1 UNK         0.0600 
    132 H132       -2.1395  -12.3452  -47.2067 H         1 UNK         0.0800 
    133 H133       -0.9374  -12.2997  -48.4545 H         1 UNK         0.0800 
    134 H134        0.9049  -14.6244  -48.7347 H         1 UNK         0.0800 
    135 H135       -0.3335  -14.0909  -49.8454 H         1 UNK         0.0800 
    136 H136       -2.1266  -15.7764  -50.5986 H         1 UNK         0.1150 
    137 H137       -0.5651  -19.6926  -51.2901 H         1 UNK         0.1150 
    138 H138        1.5727  -16.9575  -48.7760 H         1 UNK         0.1150 
    139 H139        1.8612  -20.0720  -50.6744 H         1 UNK         0.0800 
    140 H140        2.6282  -19.0309  -49.5102 H         1 UNK         0.0800 
    141 H141        0.2666  -22.7658  -49.0439 H         1 UNK         0.0800 
    142 H142       -0.0485  -21.5430  -50.2239 H         1 UNK         0.0800 
    143 H143       -1.4322  -22.0302  -47.5619 H         1 UNK         0.0600 
    144 H144       -0.9960  -19.4759  -48.5085 H         1 UNK         0.3000 
    145 H145       -2.7799  -17.5696  -47.8828 H         1 UNK         0.0600 
    146 H146       -4.5325  -17.8866  -46.1784 H         1 UNK         0.0600 
    147 H147       -3.3435  -18.3655  -44.9763 H         1 UNK         0.0600 
    148 H148       -3.3550  -16.7168  -45.6018 H         1 UNK         0.0600 
    149 H149       -0.7156  -17.1364  -47.2306 H         1 UNK         0.3000 
    150 H150        1.5972  -18.3239  -46.4995 H         1 UNK         0.0600 
    151 H151        0.9454  -15.9755  -46.4701 H         1 UNK         0.0600 
    152 H152        2.1949  -16.1220  -45.2690 H         1 UNK         0.0600 
    153 H153        0.5073  -16.0332  -44.7714 H         1 UNK         0.0600 
    154 H154        1.0014  -19.1769  -43.9194 H         1 UNK         0.3000 
    155 H155        2.4385  -19.7839  -42.3589 H         1 UNK         0.0600 
    156 H156        5.1159  -20.4423  -43.7287 H         1 UNK         0.0600 
    157 H157        3.6076  -21.2817  -44.0673 H         1 UNK         0.0600 
    158 H158        4.3233  -21.3934  -42.4736 H         1 UNK         0.0600 
    159 H159        4.2311  -17.6572  -42.3090 H         1 UNK         0.3000 
    160 H160        5.7406  -18.2569  -39.0932 H         1 UNK         0.0600 
    161 H161        6.1460  -16.7280  -41.7230 H         1 UNK         0.0600 
    162 H162        7.1901  -18.0060  -41.1123 H         1 UNK         0.0600 
    163 H163        7.0389  -16.4977  -40.2247 H         1 UNK         0.0600 
    164 H164        4.0461  -16.2079  -40.4562 H         1 UNK         0.3000 
    165 H165        1.8415  -15.9953  -37.7280 H         1 UNK         0.0600 
    166 H166        2.3191  -13.5432  -37.7685 H         1 UNK         0.0600 
    167 H167        3.5507  -14.4134  -36.8657 H         1 UNK         0.0600 
    168 H168        3.8951  -13.8523  -38.4969 H         1 UNK         0.0600 
    169 H169        2.1478  -14.4832  -40.1560 H         1 UNK         0.3000 
    170 H170        0.9720  -16.8457  -42.4159 H         1 UNK         0.0600 
    171 H171       -1.2861  -16.3921  -41.3958 H         1 UNK         0.0600 
    172 H172       -0.9095  -14.6735  -41.3611 H         1 UNK         0.0600 
    173 H173       -1.0452  -15.5250  -42.8996 H         1 UNK         0.0600 
    174 H174        1.0151  -14.0978  -42.8309 H         1 UNK         0.3000 
    175 H175        4.4845  -13.4222  -42.8506 H         1 UNK         0.0600 
    176 H176        4.0939  -12.7847  -45.2060 H         1 UNK         0.0600 
    177 H177        2.6054  -13.7248  -45.2491 H         1 UNK         0.0600 
    178 H178        4.1583  -14.5365  -45.0719 H         1 UNK         0.0600 
    179 H179        2.3338  -11.8106  -43.6962 H         1 UNK         0.3000 
    180 H180        1.3660  -10.5088  -40.4936 H         1 UNK         0.0600 
    181 H181        1.8419   -8.4466  -41.7921 H         1 UNK         0.0600 
    182 H182        2.7850   -9.3686  -42.9608 H         1 UNK         0.0600 
    183 H183        3.3334   -9.2313  -41.2962 H         1 UNK         0.0600 
    184 H184        0.5333  -10.3611  -43.3160 H         1 UNK         0.3000 
    185 H185       -2.2805  -12.4431  -42.8836 H         1 UNK         0.0600 
    186 H186       -3.6308  -10.4754  -43.5607 H         1 UNK         0.0600 
    187 H187       -3.1866  -10.3473  -41.8666 H         1 UNK         0.0600 
    188 H188       -2.3369   -9.3820  -43.0675 H         1 UNK         0.0600 
    189 H189       -1.5167  -10.6856  -45.0029 H         1 UNK         0.3000 
    190 H190       -3.5095  -20.4926  -49.6695 H         1 UNK         0.3000 
    191 H191       -4.5014  -22.8290  -51.1246 H         1 UNK         0.0600 
    192 H192       -6.4123  -21.2861  -51.6567 H         1 UNK         0.0600 
    193 H193       -4.8542  -20.6073  -52.0886 H         1 UNK         0.0600 
    194 H194       -5.6883  -20.0481  -50.6363 H         1 UNK         0.0600 
    195 H195       -4.9704  -21.3842  -47.9107 H         1 UNK         0.3000 
    196 H196       -7.3615  -22.9890  -47.3172 H         1 UNK         0.0600 
    197 H197       -5.5839  -21.2822  -45.4956 H         1 UNK         0.0600 
    198 H198       -7.0338  -20.7123  -46.3215 H         1 UNK         0.0600 
    199 H199       -7.1540  -21.9592  -45.0892 H         1 UNK         0.0600 
    200 H200       -3.9038  -23.3296  -47.1896 H         1 UNK         0.3000 
    201 H201       -3.7941  -25.4302  -45.1693 H         1 UNK         0.0600 
    202 H202       -1.9419  -23.7759  -45.4690 H         1 UNK         0.0600 
    203 H203       -1.6543  -24.3866  -47.0990 H         1 UNK         0.0600 
    204 H204       -1.3899  -25.4265  -45.7097 H         1 UNK         0.0600 
    205 H205       -5.5355  -26.6130  -46.3755 H         1 UNK         0.3000 
    206 H206       -6.2848  -28.4058  -47.4539 H         1 UNK         0.0600 
    207 H207       -4.4860  -29.5253  -46.1186 H         1 UNK         0.0600 
    208 H208       -4.8050  -30.3718  -47.6223 H         1 UNK         0.0600 
    209 H209       -3.3734  -29.3610  -47.4765 H         1 UNK         0.0600 
    210 H210       -5.7698  -26.1596  -49.0809 H         1 UNK         0.3000 
    211 H211       -5.9199  -25.4518  -51.1590 H         1 UNK         0.0600 
    212 H212       -6.8270  -26.8969  -52.9127 H         1 UNK         0.0600 
    213 H213       -7.6176  -27.2732  -51.3942 H         1 UNK         0.0600 
    214 H214       -6.3702  -28.3437  -52.0327 H         1 UNK         0.0600 
    215 H215       -3.2123  -26.4004  -50.1118 H         1 UNK         0.3000 
    216 H216       -1.6563  -27.5093  -52.1049 H         1 UNK         0.0600 
    217 H217       -0.8494  -25.5786  -49.8711 H         1 UNK         0.0600 
    218 H218        0.2770  -26.5622  -50.7989 H         1 UNK         0.0600 
    219 H219       -0.9198  -27.3371  -49.7754 H         1 UNK         0.0600 
    220 H220       -2.4575  -24.0726  -51.7437 H         1 UNK         0.3000 
    221 H221       -1.1112  -23.5020  -54.3719 H         1 UNK         0.0600 
    222 H222        0.0262  -22.4118  -52.4020 H         1 UNK         0.0600 
    223 H223       -1.4982  -21.5855  -52.0369 H         1 UNK         0.0600 
    224 H224       -0.6447  -21.2506  -53.5351 H         1 UNK         0.0600 
    225 H225       -4.0235  -24.3388  -53.5736 H         1 UNK         0.3000 
    226 H226       -5.6740  -22.0349  -54.0370 H         1 UNK         0.0600 
    227 H227       -6.2838  -25.0189  -54.3254 H         1 UNK         0.0600 
    228 H228       -6.5549  -24.0204  -52.8918 H         1 UNK         0.0600 
    229 H229       -7.4862  -23.7354  -54.3498 H         1 UNK         0.0600 
    230 H230       -4.1716  -24.3828  -56.2156 H         1 UNK         0.3000 
    231 H231       -5.5183  -23.5554  -58.6200 H         1 UNK         0.0600 
    232 H232       -2.8547  -25.0167  -58.1961 H         1 UNK         0.0600 
    233 H233       -3.7230  -24.8965  -59.7216 H         1 UNK         0.0600 
    234 H234       -4.4353  -25.7786  -58.3807 H         1 UNK         0.0600 
    235 H235       -2.8683  -22.1870  -56.7929 H         1 UNK         0.3000 
    236 H236       -1.8397  -20.5741  -59.0519 H         1 UNK         0.0600 
    237 H237       -0.9180  -20.7885  -56.1359 H         1 UNK         0.0600 
    238 H238       -0.1945  -21.6139  -57.5144 H         1 UNK         0.0600 
    239 H239       -0.1305  -19.8618  -57.4044 H         1 UNK         0.0600 
    240 H240       -3.2697  -20.1209  -55.7653 H         1 UNK         0.3000 
    241 H241       -3.6034  -17.2708  -56.1625 H         1 UNK         0.0600 
    242 H242       -7.1709  -18.9318  -57.1813 H         1 UNK         0.3800 
    243 H243       -5.8307  -19.9920  -56.8540 H         1 UNK         0.3800 
    244 H244       -4.4938  -19.0928  -53.8881 H         1 UNK         0.0800 
    245 H245       -4.6795  -17.3535  -53.8795 H         1 UNK         0.0800 
    246 H246       -3.5480  -17.4988  -51.5694 H         1 UNK         0.0800 
    247 H247       -3.0083  -19.1599  -51.6487 H         1 UNK         0.0800 
@<TRIPOS>BOND
     1    1    2 1    
     2    1  127 1    
     3    1  128 1    
     4    1  129 1    
     5    2    3 2    
     6    2    4 am   BACKBONE|DICT|INTERRES
     7    4    5 1    
     8    4  130 1    
     9    5    6 1    
    10    5   65 1    
    11    5  131 1    
    12    6    7 1    
    13    6  132 1    
    14    6  133 1    
    15    7    8 1    
    16    8    9 1    
    17    8  134 1    
    18    8  135 1    
    19    9   10 ar   
    20    9   14 ar   
    21   10   11 ar   
    22   10  136 1    
    23   11   12 ar   
    24   11  126 1    
    25   12   13 ar   
    26   12  137 1    
    27   13   14 ar   
    28   13   15 1    
    29   14  138 1    
    30   15   16 1    
    31   15  139 1    
    32   15  140 1    
    33   16   17 1    
    34   17   18 1    
    35   17  141 1    
    36   17  142 1    
    37   18   19 1    
    38   18   67 1    
    39   18  143 1    
    40   19   20 am   BACKBONE|DICT|INTERRES
    41   19  144 1    
    42   20   21 2    
    43   20   22 1    
    44   22   23 1    
    45   22   24 1    
    46   22  145 1    
    47   23  146 1    
    48   23  147 1    
    49   23  148 1    
    50   24   25 am   BACKBONE|DICT|INTERRES
    51   24  149 1    
    52   25   26 2    
    53   25   27 1    
    54   27   28 1    
    55   27   29 1    
    56   27  150 1    
    57   28  151 1    
    58   28  152 1    
    59   28  153 1    
    60   29   30 am   BACKBONE|DICT|INTERRES
    61   29  154 1    
    62   30   31 2    
    63   30   32 1    
    64   32   33 1    
    65   32   34 1    
    66   32  155 1    
    67   33  156 1    
    68   33  157 1    
    69   33  158 1    
    70   34   35 am   BACKBONE|DICT|INTERRES
    71   34  159 1    
    72   35   36 2    
    73   35   37 1    
    74   37   38 1    
    75   37   39 1    
    76   37  160 1    
    77   38  161 1    
    78   38  162 1    
    79   38  163 1    
    80   39   40 am   BACKBONE|DICT|INTERRES
    81   39  164 1    
    82   40   41 2    
    83   40   42 1    
    84   42   43 1    
    85   42   44 1    
    86   42  165 1    
    87   43  166 1    
    88   43  167 1    
    89   43  168 1    
    90   44   45 am   BACKBONE|DICT|INTERRES
    91   44  169 1    
    92   45   46 2    
    93   45   47 1    
    94   47   48 1    
    95   47   49 1    
    96   47  170 1    
    97   48  171 1    
    98   48  172 1    
    99   48  173 1    
   100   49   50 am   BACKBONE|DICT|INTERRES
   101   49  174 1    
   102   50   51 2    
   103   50   52 1    
   104   52   53 1    
   105   52   54 1    
   106   52  175 1    
   107   53  176 1    
   108   53  177 1    
   109   53  178 1    
   110   54   55 am   BACKBONE|DICT|INTERRES
   111   54  179 1    
   112   55   56 2    
   113   55   57 1    
   114   57   58 1    
   115   57   59 1    
   116   57  180 1    
   117   58  181 1    
   118   58  182 1    
   119   58  183 1    
   120   59   60 am   BACKBONE|DICT|INTERRES
   121   59  184 1    
   122   60   61 2    
   123   60   62 1    
   124   62   63 1    
   125   62   64 1    
   126   62  185 1    
   127   63  186 1    
   128   63  187 1    
   129   63  188 1    
   130   64   65 am   BACKBONE|DICT|INTERRES
   131   64  189 1    
   132   65   66 2    
   133   67   68 2    
   134   67   69 am   BACKBONE|DICT|INTERRES
   135   69   70 1    
   136   69  190 1    
   137   70   71 1    
   138   70   72 1    
   139   70  191 1    
   140   71  192 1    
   141   71  193 1    
   142   71  194 1    
   143   72   73 2    
   144   72   74 am   BACKBONE|DICT|INTERRES
   145   74   75 1    
   146   74  195 1    
   147   75   76 1    
   148   75   77 1    
   149   75  196 1    
   150   76  197 1    
   151   76  198 1    
   152   76  199 1    
   153   77   78 2    
   154   77   79 am   BACKBONE|DICT|INTERRES
   155   79   80 1    
   156   79  200 1    
   157   80   81 1    
   158   80   82 1    
   159   80  201 1    
   160   81  202 1    
   161   81  203 1    
   162   81  204 1    
   163   82   83 2    
   164   82   84 am   BACKBONE|DICT|INTERRES
   165   84   85 1    
   166   84  205 1    
   167   85   86 1    
   168   85   87 1    
   169   85  206 1    
   170   86  207 1    
   171   86  208 1    
   172   86  209 1    
   173   87   88 2    
   174   87   89 am   BACKBONE|DICT|INTERRES
   175   89   90 1    
   176   89  210 1    
   177   90   91 1    
   178   90   92 1    
   179   90  211 1    
   180   91  212 1    
   181   91  213 1    
   182   91  214 1    
   183   92   93 2    
   184   92   94 am   BACKBONE|DICT|INTERRES
   185   94   95 1    
   186   94  215 1    
   187   95   96 1    
   188   95   97 1    
   189   95  216 1    
   190   96  217 1    
   191   96  218 1    
   192   96  219 1    
   193   97   98 2    
   194   97   99 am   BACKBONE|DICT|INTERRES
   195   99  100 1    
   196   99  220 1    
   197  100  101 1    
   198  100  102 1    
   199  100  221 1    
   200  101  222 1    
   201  101  223 1    
   202  101  224 1    
   203  102  103 2    
   204  102  104 am   BACKBONE|DICT|INTERRES
   205  104  105 1    
   206  104  225 1    
   207  105  106 1    
   208  105  107 1    
   209  105  226 1    
   210  106  227 1    
   211  106  228 1    
   212  106  229 1    
   213  107  108 2    
   214  107  109 am   BACKBONE|DICT|INTERRES
   215  109  110 1    
   216  109  230 1    
   217  110  111 1    
   218  110  112 1    
   219  110  231 1    
   220  111  232 1    
   221  111  233 1    
   222  111  234 1    
   223  112  113 2    
   224  112  114 am   BACKBONE|DICT|INTERRES
   225  114  115 1    
   226  114  235 1    
   227  115  116 1    
   228  115  117 1    
   229  115  236 1    
   230  116  237 1    
   231  116  238 1    
   232  116  239 1    
   233  117  118 2    
   234  117  119 am   BACKBONE|DICT|INTERRES
   235  119  120 1    
   236  119  240 1    
   237  120  121 1    
   238  120  124 1    
   239  120  241 1    
   240  121  122 am   BACKBONE|DICT|INTERRES
   241  121  123 2    
   242  122  242 1    
   243  122  243 1    
   244  124  125 1    
   245  124  244 1    
   246  124  245 1    
   247  125  126 1    
   248  126  246 1    
   249  126  247 1    
@<TRIPOS>SUBSTRUCTURE
     1 UNK         1 GROUP             0       ****    0 ROOT    
