@<TRIPOS>MOLECULE
3R540
247   249    1
SMALL
USER_CHARGES


@<TRIPOS>ATOM
      1 CA         -5.3613  -12.6648  -51.0678 C.3       0 UNK        -0.1800 
      2 C          -4.3800  -13.6557  -50.4598 C.2       0 UNK         0.5000 
      3 O          -4.4257  -14.8403  -50.7899 O.2       0 UNK        -0.5000 
      4 N          -3.4905  -13.1807  -49.5829 N.am      1 UNK        -0.5000 
      5 CA         -2.4747  -13.9946  -48.9113 C.3       1 UNK         0.1400 
      6 C6         -3.0486  -15.0552  -47.9288 C.3       23 UNK        -0.0398 
      7 S7         -4.1961  -14.3810  -46.6713 S.3       23 UNK        -0.2404 
      8 C8         -4.4126  -15.8025  -45.5428 C.3       23 UNK        -0.0205 
      9 C9         -5.0961  -17.0356  -46.1386 C.ar      23 UNK        -0.0193 
     10 C10        -5.9116  -16.9674  -47.2743 C.ar      23 UNK        -0.1150 
     11 C11        -6.5182  -18.1100  -47.7999 C.ar      23 UNK        -0.0193 
     12 C12        -6.3082  -19.3383  -47.1608 C.ar      23 UNK        -0.1150 
     13 C13        -5.5032  -19.4364  -46.0229 C.ar      23 UNK        -0.0193 
     14 C14        -4.9110  -18.2731  -45.5129 C.ar      23 UNK        -0.1150 
     15 C15        -5.3036  -20.8280  -45.4164 C.3       23 UNK        -0.0205 
     16 S16        -4.1692  -20.9417  -43.9860 S.3       23 UNK        -0.2404 
     17 C17        -3.4983  -22.6313  -44.1766 C.3       23 UNK        -0.0398 
     18 CA         -1.9420  -22.6079  -44.2648 C.3       11 UNK         0.1400 
     19 N          -1.2730  -22.6797  -42.9556 N.am      11 UNK        -0.5000 
     20 C          -1.3123  -23.7001  -42.0835 C.2       10 UNK         0.5000 
     21 O          -2.0090  -24.7028  -42.2397 O.2       10 UNK        -0.5000 
     22 CA         -0.3993  -23.6142  -40.8463 C.3       10 UNK         0.1400 
     23 CB          0.9391  -24.3158  -41.1306 C.3       10 UNK        -0.1800 
     24 N          -0.1308  -22.2319  -40.4485 N.am      10 UNK        -0.5000 
     25 C          -0.3695  -21.7117  -39.2365 C.2       9 UNK         0.5000 
     26 O          -0.8063  -22.3596  -38.2843 O.2       9 UNK        -0.5000 
     27 CA         -0.0823  -20.2046  -39.0533 C.3       9 UNK         0.1400 
     28 CB          1.3352  -19.9910  -38.5011 C.3       9 UNK        -0.1800 
     29 N          -0.2306  -19.4387  -40.2927 N.am      9 UNK        -0.5000 
     30 C          -1.3852  -19.2791  -40.9521 C.2       8 UNK         0.5000 
     31 O          -2.4765  -19.6169  -40.4929 O.2       8 UNK        -0.5000 
     32 CA         -1.3250  -18.6780  -42.3714 C.3       8 UNK         0.1400 
     33 CB         -1.9536  -17.2783  -42.3952 C.3       8 UNK        -0.1800 
     34 N          -0.0099  -18.6157  -43.0243 N.am      8 UNK        -0.5000 
     35 C           0.8266  -19.6390  -43.2574 C.2       7 UNK         0.5000 
     36 O           0.7102  -20.7556  -42.7501 O.2       7 UNK        -0.5000 
     37 CA          1.9111  -19.3728  -44.3187 C.3       7 UNK         0.1400 
     38 CB          2.8156  -20.5933  -44.5936 C.3       7 UNK        -0.1800 
     39 N           1.2732  -18.8856  -45.5447 N.am      7 UNK        -0.5000 
     40 C           0.3568  -19.5371  -46.2770 C.2       6 UNK         0.5000 
     41 O           0.1071  -20.7381  -46.1684 O.2       6 UNK        -0.5000 
     42 CA         -0.4526  -18.6994  -47.2746 C.3       6 UNK         0.1400 
     43 CB         -1.7599  -18.2534  -46.6112 C.3       6 UNK        -0.1800 
     44 N           0.2744  -17.5297  -47.7566 N.am      6 UNK        -0.5000 
     45 C           1.1611  -17.5685  -48.7600 C.2       5 UNK         0.5000 
     46 O           1.3954  -18.5753  -49.4258 O.2       5 UNK        -0.5000 
     47 CA          1.9177  -16.2636  -49.0614 C.3       5 UNK         0.1400 
     48 CB          1.2459  -15.5087  -50.2183 C.3       5 UNK        -0.1800 
     49 N           2.0268  -15.3931  -47.8828 N.am      5 UNK        -0.5000 
     50 C           2.8614  -15.6513  -46.8633 C.2       4 UNK         0.5000 
     51 O           3.5853  -16.6458  -46.8141 O.2       4 UNK        -0.5000 
     52 CA          2.8996  -14.6528  -45.6951 C.3       4 UNK         0.1400 
     53 CB          3.7855  -13.4481  -46.0468 C.3       4 UNK        -0.1800 
     54 N           1.5918  -14.1690  -45.2628 N.am      4 UNK        -0.5000 
     55 C           0.5980  -14.8953  -44.7401 C.2       3 UNK         0.5000 
     56 O           0.6123  -16.1259  -44.6646 O.2       3 UNK        -0.5000 
     57 CA         -0.6246  -14.1169  -44.2069 C.3       3 UNK         0.1400 
     58 CB         -0.3734  -13.6026  -42.7780 C.3       3 UNK        -0.1800 
     59 N          -1.1008  -13.0462  -45.0924 N.am      3 UNK        -0.5000 
     60 C          -0.4854  -11.9191  -45.4873 C.2       2 UNK         0.5000 
     61 O           0.5894  -11.5286  -45.0286 O.2       2 UNK        -0.5000 
     62 CA         -1.1599  -11.1495  -46.6484 C.3       2 UNK         0.1400 
     63 CB         -0.1604  -10.2892  -47.4490 C.3       2 UNK        -0.1800 
     64 N          -1.9163  -12.0329  -47.5504 N.am      2 UNK        -0.5000 
     65 C          -1.4383  -13.1050  -48.2074 C.2       1 UNK         0.5000 
     66 O          -0.2516  -13.4357  -48.2190 O.2       1 UNK        -0.5000 
     67 C          -1.3412  -23.6063  -45.2891 C.2       11 UNK         0.5000 
     68 O          -1.9783  -23.9352  -46.2915 O.2       11 UNK        -0.5000 
     69 N          -0.1007  -24.0517  -45.0410 N.am      12 UNK        -0.5000 
     70 CA          0.6120  -25.0468  -45.8404 C.3       12 UNK         0.1400 
     71 CB          1.8598  -25.5046  -45.0707 C.3       12 UNK        -0.1800 
     72 C           0.9947  -24.5459  -47.2434 C.2       12 UNK         0.5000 
     73 O           0.9261  -25.3164  -48.2010 O.2       12 UNK        -0.5000 
     74 N           1.3702  -23.2649  -47.3528 N.am      13 UNK        -0.5000 
     75 CA          1.7296  -22.6434  -48.6272 C.3       13 UNK         0.1400 
     76 CB          2.7106  -21.4886  -48.3838 C.3       13 UNK        -0.1800 
     77 C           0.4828  -22.2209  -49.4300 C.2       13 UNK         0.5000 
     78 O           0.5366  -22.2070  -50.6590 O.2       13 UNK        -0.5000 
     79 N          -0.6418  -21.9683  -48.7416 N.am      14 UNK        -0.5000 
     80 CA         -1.9624  -21.8017  -49.3535 C.3       14 UNK         0.1400 
     81 CB         -2.9722  -21.2270  -48.3470 C.3       14 UNK        -0.1800 
     82 C          -2.4780  -23.1138  -49.9621 C.2       14 UNK         0.5000 
     83 O          -2.9732  -23.0977  -51.0869 O.2       14 UNK        -0.5000 
     84 N          -2.2909  -24.2327  -49.2470 N.am      15 UNK        -0.5000 
     85 CA         -2.5897  -25.5830  -49.7341 C.3       15 UNK         0.1400 
     86 CB         -2.4201  -26.5903  -48.5871 C.3       15 UNK        -0.1800 
     87 C          -1.7385  -25.9870  -50.9572 C.2       15 UNK         0.5000 
     88 O          -2.2311  -26.6999  -51.8318 O.2       15 UNK        -0.5000 
     89 N          -0.4955  -25.4890  -51.0169 N.am      16 UNK        -0.5000 
     90 CA          0.4100  -25.6188  -52.1616 C.3       16 UNK         0.1400 
     91 CB          1.8552  -25.4442  -51.6682 C.3       16 UNK        -0.1800 
     92 C           0.1088  -24.6202  -53.3023 C.2       16 UNK         0.5000 
     93 O           0.6935  -24.7536  -54.3780 O.2       16 UNK        -0.5000 
     94 N          -0.7748  -23.6418  -53.0506 N.am      17 UNK        -0.5000 
     95 CA         -1.1799  -22.5398  -53.9284 C.3       17 UNK         0.1400 
     96 CB         -1.9787  -23.0683  -55.1373 C.3       17 UNK        -0.1800 
     97 C          -0.0074  -21.6186  -54.3260 C.2       17 UNK         0.5000 
     98 O           0.0987  -21.2094  -55.4845 O.2       17 UNK        -0.5000 
     99 N           0.8556  -21.2943  -53.3537 N.am      18 UNK        -0.5000 
    100 CA         2.0489  -20.4589  -53.5097 C.3       18 UNK         0.1400 
    101 CB         3.0176  -20.7716  -52.3580 C.3       18 UNK        -0.1800 
    102 C          1.7085  -18.9546  -53.5989 C.2       18 UNK         0.5000 
    103 O          2.1303  -18.1685  -52.7512 O.2       18 UNK        -0.5000 
    104 N          0.9320  -18.5900  -54.6272 N.am      19 UNK        -0.5000 
    105 CA         0.4550  -17.2461  -54.9831 C.3       19 UNK         0.1400 
    106 CB         1.6258  -16.2603  -55.1796 C.3       19 UNK        -0.1800 
    107 C         -0.6373  -16.6725  -54.0543 C.2       19 UNK         0.5000 
    108 O         -1.1008  -15.5570  -54.2973 O.2       19 UNK        -0.5000 
    109 N         -1.0733  -17.4393  -53.0458 N.am      20 UNK        -0.5000 
    110 CA        -2.2695  -17.1517  -52.2552 C.3       20 UNK         0.1400 
    111 CB        -2.2371  -17.9840  -50.9642 C.3       20 UNK        -0.1800 
    112 C         -3.5325  -17.4769  -53.0735 C.2       20 UNK         0.5000 
    113 O         -3.5227  -18.4272  -53.8613 O.2       20 UNK        -0.5000 
    114 N         -4.6094  -16.7169  -52.8432 N.am      21 UNK        -0.5000 
    115 CA        -5.8927  -16.8227  -53.5485 C.3       21 UNK         0.1400 
    116 CB        -6.8042  -15.6713  -53.0969 C.3       21 UNK        -0.1800 
    117 C         -6.6047  -18.1770  -53.3613 C.2       21 UNK         0.5000 
    118 O         -7.3825  -18.5822  -54.2260 O.2       21 UNK        -0.5000 
    119 N         -6.3064  -18.8512  -52.2464 N.am      22 UNK        -0.5000 
    120 CA        -6.7559  -20.2125  -51.9276 C.3       22 UNK         0.1400 
    121 C         -5.8989  -21.3325  -52.5902 C.2       22 UNK         0.5000 
    122 N         -4.8141  -21.0326  -53.2960 N.am      22 UNK        -0.7600 
    123 O         -6.2429  -22.5058  -52.4807 O.2       22 UNK        -0.5000 
    124 C124       -6.8645  -20.4118  -50.3948 C.3       23 UNK        -0.0398 
    125 S125       -8.2327  -19.4413  -49.6698 S.3       23 UNK        -0.2404 
    126 C126       -7.3808  -17.9456  -49.0539 C.3       23 UNK        -0.0205 
    127 H127       -5.2080  -12.5998  -52.1449 H         1 UNK         0.0600 
    128 H128       -5.2456  -11.6668  -50.6447 H         1 UNK         0.0600 
    129 H129       -6.3844  -12.9947  -50.8874 H         1 UNK         0.0600 
    130 H130       -3.4577  -12.1892  -49.3932 H         1 UNK         0.3000 
    131 H131       -1.9361  -14.5292  -49.6954 H         1 UNK         0.0600 
    132 H132       -2.2319  -15.5639  -47.4166 H         1 UNK         0.0800 
    133 H133       -3.5714  -15.8301  -48.4895 H         1 UNK         0.0800 
    134 H134       -3.4335  -16.0778  -45.1535 H         1 UNK         0.0800 
    135 H135       -5.0005  -15.4707  -44.6862 H         1 UNK         0.0800 
    136 H136       -6.0816  -16.0194  -47.7639 H         1 UNK         0.1150 
    137 H137       -6.7659  -20.2386  -47.5420 H         1 UNK         0.1150 
    138 H138       -4.2875  -18.3193  -44.6326 H         1 UNK         0.1150 
    139 H139       -6.2739  -21.2220  -45.1113 H         1 UNK         0.0800 
    140 H140       -4.9472  -21.4801  -46.2131 H         1 UNK         0.0800 
    141 H141       -3.9529  -23.0930  -45.0527 H         1 UNK         0.0800 
    142 H142       -3.8452  -23.2330  -43.3372 H         1 UNK         0.0800 
    143 H143       -1.6582  -21.6363  -44.6649 H         1 UNK         0.0600 
    144 H144       -0.6194  -21.9210  -42.7778 H         1 UNK         0.3000 
    145 H145       -0.9048  -24.1523  -40.0420 H         1 UNK         0.0600 
    146 H146        1.5661  -24.3388  -40.2392 H         1 UNK         0.0600 
    147 H147        0.7830  -25.3488  -41.4446 H         1 UNK         0.0600 
    148 H148        1.4989  -23.8116  -41.9195 H         1 UNK         0.0600 
    149 H149        0.2383  -21.6189  -41.1701 H         1 UNK         0.3000 
    150 H150       -0.7975  -19.8161  -38.3253 H         1 UNK         0.0600 
    151 H151        1.4733  -20.5285  -37.5620 H         1 UNK         0.0600 
    152 H152        1.5267  -18.9364  -38.3019 H         1 UNK         0.0600 
    153 H153        2.0959  -20.3460  -39.1977 H         1 UNK         0.0600 
    154 H154        0.6190  -19.1382  -40.7471 H         1 UNK         0.3000 
    155 H155       -1.9411  -19.3253  -42.9962 H         1 UNK         0.0600 
    156 H156       -2.0686  -16.9268  -43.4182 H         1 UNK         0.0600 
    157 H157       -1.3445  -16.5562  -41.8512 H         1 UNK         0.0600 
    158 H158       -2.9469  -17.2808  -41.9441 H         1 UNK         0.0600 
    159 H159        0.1922  -17.7440  -43.5037 H         1 UNK         0.3000 
    160 H160        2.5389  -18.5635  -43.9434 H         1 UNK         0.0600 
    161 H161        2.2470  -21.4727  -44.8946 H         1 UNK         0.0600 
    162 H162        3.3777  -20.8647  -43.6995 H         1 UNK         0.0600 
    163 H163        3.5383  -20.3765  -45.3801 H         1 UNK         0.0600 
    164 H164        1.3733  -17.8919  -45.7066 H         1 UNK         0.3000 
    165 H165       -0.6977  -19.3368  -48.1237 H         1 UNK         0.0600 
    166 H166       -1.5895  -17.4894  -45.8531 H         1 UNK         0.0600 
    167 H167       -2.4581  -17.8627  -47.3498 H         1 UNK         0.0600 
    168 H168       -2.2547  -19.0927  -46.1200 H         1 UNK         0.0600 
    169 H169        0.1686  -16.6686  -47.2413 H         1 UNK         0.3000 
    170 H170        2.9258  -16.5334  -49.3838 H         1 UNK         0.0600 
    171 H171        1.2942  -16.0913  -51.1391 H         1 UNK         0.0600 
    172 H172        0.1939  -15.3177  -50.0175 H         1 UNK         0.0600 
    173 H173        1.7347  -14.5536  -50.4102 H         1 UNK         0.0600 
    174 H174        1.4339  -14.5687  -47.8609 H         1 UNK         0.3000 
    175 H175        3.3508  -15.1661  -44.8434 H         1 UNK         0.0600 
    176 H176        3.3585  -12.8600  -46.8603 H         1 UNK         0.0600 
    177 H177        3.9120  -12.7883  -45.1882 H         1 UNK         0.0600 
    178 H178        4.7802  -13.7696  -46.3585 H         1 UNK         0.0600 
    179 H179        1.4577  -13.1612  -45.2729 H         1 UNK         0.3000 
    180 H180       -1.4461  -14.8304  -44.1563 H         1 UNK         0.0600 
    181 H181        0.4360  -12.8732  -42.7408 H         1 UNK         0.0600 
    182 H182       -0.1002  -14.4213  -42.1116 H         1 UNK         0.0600 
    183 H183       -1.2670  -13.1331  -42.3668 H         1 UNK         0.0600 
    184 H184       -1.9787  -13.2491  -45.5493 H         1 UNK         0.3000 
    185 H185       -1.8851  -10.4772  -46.1880 H         1 UNK         0.0600 
    186 H186       -0.6585   -9.7601  -48.2613 H         1 UNK         0.0600 
    187 H187        0.3072   -9.5371  -46.8126 H         1 UNK         0.0600 
    188 H188        0.6381  -10.8927  -47.8819 H         1 UNK         0.0600 
    189 H189       -2.9163  -11.8877  -47.5478 H         1 UNK         0.3000 
    190 H190        0.3697  -23.7078  -44.2178 H         1 UNK         0.3000 
    191 H191       -0.0459  -25.9093  -45.9671 H         1 UNK         0.0600 
    192 H192        1.5914  -25.9422  -44.1089 H         1 UNK         0.0600 
    193 H193        2.4072  -26.2640  -45.6307 H         1 UNK         0.0600 
    194 H194        2.5448  -24.6766  -44.8836 H         1 UNK         0.0600 
    195 H195        1.3258  -22.6603  -46.5430 H         1 UNK         0.3000 
    196 H196        2.2639  -23.3801  -49.2298 H         1 UNK         0.0600 
    197 H197        3.0985  -21.1006  -49.3235 H         1 UNK         0.0600 
    198 H198        3.5679  -21.8181  -47.7969 H         1 UNK         0.0600 
    199 H199        2.2510  -20.6568  -47.8593 H         1 UNK         0.0600 
    200 H200       -0.5931  -21.9658  -47.7300 H         1 UNK         0.3000 
    201 H201       -1.8670  -21.0901  -50.1748 H         1 UNK         0.0600 
    202 H202       -2.8726  -20.1475  -48.2654 H         1 UNK         0.0600 
    203 H203       -2.8481  -21.6549  -47.3533 H         1 UNK         0.0600 
    204 H204       -4.0002  -21.4148  -48.6603 H         1 UNK         0.0600 
    205 H205       -1.9351  -24.1557  -48.2993 H         1 UNK         0.3000 
    206 H206       -3.6365  -25.5971  -50.0446 H         1 UNK         0.0600 
    207 H207       -3.0608  -26.3372  -47.7421 H         1 UNK         0.0600 
    208 H208       -2.6883  -27.5970  -48.9097 H         1 UNK         0.0600 
    209 H209       -1.3920  -26.6249  -48.2275 H         1 UNK         0.0600 
    210 H210       -0.1502  -24.9658  -50.2229 H         1 UNK         0.3000 
    211 H211        0.3116  -26.6259  -52.5717 H         1 UNK         0.0600 
    212 H212        2.0434  -24.4253  -51.3313 H         1 UNK         0.0600 
    213 H213        2.5674  -25.6584  -52.4659 H         1 UNK         0.0600 
    214 H214        2.0788  -26.1201  -50.8425 H         1 UNK         0.0600 
    215 H215       -1.2083  -23.6287  -52.1358 H         1 UNK         0.3000 
    216 H216       -1.8548  -21.9186  -53.3383 H         1 UNK         0.0600 
    217 H217       -2.8123  -23.6925  -54.8151 H         1 UNK         0.0600 
    218 H218       -1.3553  -23.6609  -55.8074 H         1 UNK         0.0600 
    219 H219       -2.3953  -22.2460  -55.7201 H         1 UNK         0.0600 
    220 H220        0.6918  -21.6592  -52.4165 H         1 UNK         0.3000 
    221 H221        2.5457  -20.7359  -54.4418 H         1 UNK         0.0600 
    222 H222        2.5955  -20.4608  -51.4030 H         1 UNK         0.0600 
    223 H223        3.2389  -21.8375  -52.2993 H         1 UNK         0.0600 
    224 H224        3.9639  -20.2452  -52.4865 H         1 UNK         0.0600 
    225 H225        0.6041  -19.3415  -55.2287 H         1 UNK         0.3000 
    226 H226       -0.0273  -17.3657  -55.9542 H         1 UNK         0.0600 
    227 H227        2.1095  -16.0075  -54.2359 H         1 UNK         0.0600 
    228 H228        2.3825  -16.6722  -55.8473 H         1 UNK         0.0600 
    229 H229        1.2783  -15.3264  -55.6228 H         1 UNK         0.0600 
    230 H230       -0.6557  -18.3494  -52.9277 H         1 UNK         0.3000 
    231 H231       -2.2734  -16.0925  -51.9892 H         1 UNK         0.0600 
    232 H232       -3.0932  -17.7546  -50.3281 H         1 UNK         0.0600 
    233 H233       -1.3382  -17.7785  -50.3844 H         1 UNK         0.0600 
    234 H234       -2.2623  -19.0519  -51.1795 H         1 UNK         0.0600 
    235 H235       -4.5474  -15.9865  -52.1332 H         1 UNK         0.3000 
    236 H236       -5.6939  -16.7053  -54.6156 H         1 UNK         0.0600 
    237 H237       -6.3526  -14.7033  -53.3144 H         1 UNK         0.0600 
    238 H238       -7.7647  -15.7045  -53.6128 H         1 UNK         0.0600 
    239 H239       -7.0036  -15.7145  -52.0253 H         1 UNK         0.0600 
    240 H240       -5.6437  -18.4373  -51.6098 H         1 UNK         0.3000 
    241 H241       -7.7568  -20.3426  -52.3439 H         1 UNK         0.0600 
    242 H242       -4.5135  -20.0747  -53.4432 H         1 UNK         0.3800 
    243 H243       -4.2929  -21.7879  -53.7075 H         1 UNK         0.3800 
    244 H244       -5.9208  -20.1642  -49.9069 H         1 UNK         0.0800 
    245 H245       -7.0631  -21.4575  -50.1530 H         1 UNK         0.0800 
    246 H246       -6.7695  -17.5249  -49.8525 H         1 UNK         0.0800 
    247 H247       -8.1484  -17.2008  -48.8394 H         1 UNK         0.0800 
@<TRIPOS>BOND
     1    1    2 1    
     2    1  127 1    
     3    1  128 1    
     4    1  129 1    
     5    2    3 2    
     6    2    4 am   BACKBONE|DICT|INTERRES
     7    4    5 1    
     8    4  130 1    
     9    5    6 1    
    10    5   65 1    
    11    5  131 1    
    12    6    7 1    
    13    6  132 1    
    14    6  133 1    
    15    7    8 1    
    16    8    9 1    
    17    8  134 1    
    18    8  135 1    
    19    9   10 ar   
    20    9   14 ar   
    21   10   11 ar   
    22   10  136 1    
    23   11   12 ar   
    24   11  126 1    
    25   12   13 ar   
    26   12  137 1    
    27   13   14 ar   
    28   13   15 1    
    29   14  138 1    
    30   15   16 1    
    31   15  139 1    
    32   15  140 1    
    33   16   17 1    
    34   17   18 1    
    35   17  141 1    
    36   17  142 1    
    37   18   19 1    
    38   18   67 1    
    39   18  143 1    
    40   19   20 am   BACKBONE|DICT|INTERRES
    41   19  144 1    
    42   20   21 2    
    43   20   22 1    
    44   22   23 1    
    45   22   24 1    
    46   22  145 1    
    47   23  146 1    
    48   23  147 1    
    49   23  148 1    
    50   24   25 am   BACKBONE|DICT|INTERRES
    51   24  149 1    
    52   25   26 2    
    53   25   27 1    
    54   27   28 1    
    55   27   29 1    
    56   27  150 1    
    57   28  151 1    
    58   28  152 1    
    59   28  153 1    
    60   29   30 am   BACKBONE|DICT|INTERRES
    61   29  154 1    
    62   30   31 2    
    63   30   32 1    
    64   32   33 1    
    65   32   34 1    
    66   32  155 1    
    67   33  156 1    
    68   33  157 1    
    69   33  158 1    
    70   34   35 am   BACKBONE|DICT|INTERRES
    71   34  159 1    
    72   35   36 2    
    73   35   37 1    
    74   37   38 1    
    75   37   39 1    
    76   37  160 1    
    77   38  161 1    
    78   38  162 1    
    79   38  163 1    
    80   39   40 am   BACKBONE|DICT|INTERRES
    81   39  164 1    
    82   40   41 2    
    83   40   42 1    
    84   42   43 1    
    85   42   44 1    
    86   42  165 1    
    87   43  166 1    
    88   43  167 1    
    89   43  168 1    
    90   44   45 am   BACKBONE|DICT|INTERRES
    91   44  169 1    
    92   45   46 2    
    93   45   47 1    
    94   47   48 1    
    95   47   49 1    
    96   47  170 1    
    97   48  171 1    
    98   48  172 1    
    99   48  173 1    
   100   49   50 am   BACKBONE|DICT|INTERRES
   101   49  174 1    
   102   50   51 2    
   103   50   52 1    
   104   52   53 1    
   105   52   54 1    
   106   52  175 1    
   107   53  176 1    
   108   53  177 1    
   109   53  178 1    
   110   54   55 am   BACKBONE|DICT|INTERRES
   111   54  179 1    
   112   55   56 2    
   113   55   57 1    
   114   57   58 1    
   115   57   59 1    
   116   57  180 1    
   117   58  181 1    
   118   58  182 1    
   119   58  183 1    
   120   59   60 am   BACKBONE|DICT|INTERRES
   121   59  184 1    
   122   60   61 2    
   123   60   62 1    
   124   62   63 1    
   125   62   64 1    
   126   62  185 1    
   127   63  186 1    
   128   63  187 1    
   129   63  188 1    
   130   64   65 am   BACKBONE|DICT|INTERRES
   131   64  189 1    
   132   65   66 2    
   133   67   68 2    
   134   67   69 am   BACKBONE|DICT|INTERRES
   135   69   70 1    
   136   69  190 1    
   137   70   71 1    
   138   70   72 1    
   139   70  191 1    
   140   71  192 1    
   141   71  193 1    
   142   71  194 1    
   143   72   73 2    
   144   72   74 am   BACKBONE|DICT|INTERRES
   145   74   75 1    
   146   74  195 1    
   147   75   76 1    
   148   75   77 1    
   149   75  196 1    
   150   76  197 1    
   151   76  198 1    
   152   76  199 1    
   153   77   78 2    
   154   77   79 am   BACKBONE|DICT|INTERRES
   155   79   80 1    
   156   79  200 1    
   157   80   81 1    
   158   80   82 1    
   159   80  201 1    
   160   81  202 1    
   161   81  203 1    
   162   81  204 1    
   163   82   83 2    
   164   82   84 am   BACKBONE|DICT|INTERRES
   165   84   85 1    
   166   84  205 1    
   167   85   86 1    
   168   85   87 1    
   169   85  206 1    
   170   86  207 1    
   171   86  208 1    
   172   86  209 1    
   173   87   88 2    
   174   87   89 am   BACKBONE|DICT|INTERRES
   175   89   90 1    
   176   89  210 1    
   177   90   91 1    
   178   90   92 1    
   179   90  211 1    
   180   91  212 1    
   181   91  213 1    
   182   91  214 1    
   183   92   93 2    
   184   92   94 am   BACKBONE|DICT|INTERRES
   185   94   95 1    
   186   94  215 1    
   187   95   96 1    
   188   95   97 1    
   189   95  216 1    
   190   96  217 1    
   191   96  218 1    
   192   96  219 1    
   193   97   98 2    
   194   97   99 am   BACKBONE|DICT|INTERRES
   195   99  100 1    
   196   99  220 1    
   197  100  101 1    
   198  100  102 1    
   199  100  221 1    
   200  101  222 1    
   201  101  223 1    
   202  101  224 1    
   203  102  103 2    
   204  102  104 am   BACKBONE|DICT|INTERRES
   205  104  105 1    
   206  104  225 1    
   207  105  106 1    
   208  105  107 1    
   209  105  226 1    
   210  106  227 1    
   211  106  228 1    
   212  106  229 1    
   213  107  108 2    
   214  107  109 am   BACKBONE|DICT|INTERRES
   215  109  110 1    
   216  109  230 1    
   217  110  111 1    
   218  110  112 1    
   219  110  231 1    
   220  111  232 1    
   221  111  233 1    
   222  111  234 1    
   223  112  113 2    
   224  112  114 am   BACKBONE|DICT|INTERRES
   225  114  115 1    
   226  114  235 1    
   227  115  116 1    
   228  115  117 1    
   229  115  236 1    
   230  116  237 1    
   231  116  238 1    
   232  116  239 1    
   233  117  118 2    
   234  117  119 am   BACKBONE|DICT|INTERRES
   235  119  120 1    
   236  119  240 1    
   237  120  121 1    
   238  120  124 1    
   239  120  241 1    
   240  121  122 am   BACKBONE|DICT|INTERRES
   241  121  123 2    
   242  122  242 1    
   243  122  243 1    
   244  124  125 1    
   245  124  244 1    
   246  124  245 1    
   247  125  126 1    
   248  126  246 1    
   249  126  247 1    
@<TRIPOS>SUBSTRUCTURE
     1 UNK         1 GROUP             0       ****    0 ROOT    
