@<TRIPOS>MOLECULE
3R540
247   249    1
SMALL
USER_CHARGES


@<TRIPOS>ATOM
      1 CA          4.3998  -14.7858  -46.0903 C.3       0 UNK        -0.1800 
      2 C           2.8870  -14.6832  -45.9688 C.2       0 UNK         0.5000 
      3 O           2.3685  -14.4980  -44.8694 O.2       0 UNK        -0.5000 
      4 N           2.1734  -14.7784  -47.0978 N.am      1 UNK        -0.5000 
      5 CA          0.7081  -14.7128  -47.1867 C.3       1 UNK         0.1400 
      6 C6          0.1955  -15.0666  -48.6048 C.3       23 UNK        -0.0398 
      7 S7          0.7683  -13.9371  -49.9263 S.3       23 UNK        -0.2404 
      8 C8          2.2193  -14.8046  -50.6089 C.3       23 UNK        -0.0205 
      9 C9          1.8532  -16.1099  -51.2991 C.ar      23 UNK        -0.0193 
     10 C10         1.1757  -16.0885  -52.5198 C.ar      23 UNK        -0.1150 
     11 C11         0.8575  -17.2800  -53.1745 C.ar      23 UNK        -0.0193 
     12 C12         1.2308  -18.5010  -52.6053 C.ar      23 UNK        -0.1150 
     13 C13         1.9048  -18.5405  -51.3771 C.ar      23 UNK        -0.0193 
     14 C14         2.2132  -17.3372  -50.7340 C.ar      23 UNK        -0.1150 
     15 C15         2.3499  -19.8548  -50.7342 C.3       23 UNK        -0.0205 
     16 S16         1.2918  -21.2979  -51.0977 S.3       23 UNK        -0.2404 
     17 C17        -0.2907  -20.8183  -50.3300 C.3       23 UNK        -0.0398 
     18 CA         -0.6022  -21.6462  -49.0622 C.3       11 UNK         0.1400 
     19 N           0.3548  -21.3932  -47.9794 N.am      11 UNK        -0.5000 
     20 C           0.5275  -22.1980  -46.9223 C.2       10 UNK         0.5000 
     21 O          -0.1077  -23.2361  -46.7469 O.2       10 UNK        -0.5000 
     22 CA          1.5395  -21.7374  -45.8566 C.3       10 UNK         0.1400 
     23 CB          2.9606  -22.1783  -46.2354 C.3       10 UNK        -0.1800 
     24 N           1.5316  -20.2923  -45.6173 N.am      10 UNK        -0.5000 
     25 C           0.4708  -19.5752  -45.2267 C.2       9 UNK         0.5000 
     26 O          -0.6577  -20.0526  -45.0924 O.2       9 UNK        -0.5000 
     27 CA          0.7252  -18.0810  -44.9504 C.3       9 UNK         0.1400 
     28 CB         -0.5579  -17.3221  -44.5652 C.3       9 UNK        -0.1800 
     29 N           1.7087  -17.8970  -43.8876 N.am      9 UNK        -0.5000 
     30 C           3.0387  -17.9741  -44.0190 C.2       8 UNK         0.5000 
     31 O           3.6011  -18.2459  -45.0806 O.2       8 UNK        -0.5000 
     32 CA          3.8707  -17.7463  -42.7474 C.3       8 UNK         0.1400 
     33 CB          3.8878  -16.2597  -42.3609 C.3       8 UNK        -0.1800 
     34 N           3.3189  -18.5149  -41.6347 N.am      8 UNK        -0.5000 
     35 C           3.8355  -19.6531  -41.1543 C.2       7 UNK         0.5000 
     36 O           4.8764  -20.1637  -41.5700 O.2       7 UNK        -0.5000 
     37 CA          3.0632  -20.3433  -40.0109 C.3       7 UNK         0.1400 
     38 CB          3.6397  -19.9290  -38.6483 C.3       7 UNK        -0.1800 
     39 N           1.6275  -20.0570  -40.0242 N.am      7 UNK        -0.5000 
     40 C           0.7745  -20.4846  -40.9646 C.2       6 UNK         0.5000 
     41 O           1.0979  -21.2298  -41.8891 O.2       6 UNK        -0.5000 
     42 CA         -0.6801  -19.9814  -40.8707 C.3       6 UNK         0.1400 
     43 CB         -1.5604  -21.0275  -40.1682 C.3       6 UNK        -0.1800 
     44 N          -0.8621  -18.6905  -40.1944 N.am      6 UNK        -0.5000 
     45 C          -0.2891  -17.5313  -40.5423 C.2       5 UNK         0.5000 
     46 O           0.5960  -17.4285  -41.3932 O.2       5 UNK        -0.5000 
     47 CA         -0.7647  -16.2730  -39.7977 C.3       5 UNK         0.1400 
     48 CB          0.3010  -15.8142  -38.7912 C.3       5 UNK        -0.1800 
     49 N          -1.0429  -15.1788  -40.7263 N.am      5 UNK        -0.5000 
     50 C          -1.9808  -15.1790  -41.6813 C.2       4 UNK         0.5000 
     51 O          -2.7833  -16.1000  -41.8385 O.2       4 UNK        -0.5000 
     52 CA         -2.0511  -13.9635  -42.6312 C.3       4 UNK         0.1400 
     53 CB         -3.1561  -12.9853  -42.1904 C.3       4 UNK        -0.1800 
     54 N          -0.7862  -13.2516  -42.8682 N.am      4 UNK        -0.5000 
     55 C          -0.0354  -12.5362  -42.0155 C.2       3 UNK         0.5000 
     56 O          -0.2805  -12.4269  -40.8141 O.2       3 UNK        -0.5000 
     57 CA          1.2127  -11.8359  -42.5878 C.3       3 UNK         0.1400 
     58 CB          2.4921  -12.5474  -42.1225 C.3       3 UNK        -0.1800 
     59 N           1.2024  -11.7646  -44.0510 N.am      3 UNK        -0.5000 
     60 C           0.5119  -10.8521  -44.7525 C.2       2 UNK         0.5000 
     61 O          -0.1416   -9.9485  -44.2299 O.2       2 UNK        -0.5000 
     62 CA          0.5395  -10.9590  -46.2910 C.3       2 UNK         0.1400 
     63 CB          1.5336   -9.9475  -46.8816 C.3       2 UNK        -0.1800 
     64 N           0.8767  -12.2930  -46.7876 N.am      2 UNK        -0.5000 
     65 C           0.1143  -13.3878  -46.6566 C.2       1 UNK         0.5000 
     66 O          -0.9829  -13.3932  -46.0976 O.2       1 UNK        -0.5000 
     67 C          -2.0664  -21.4354  -48.6215 C.2       11 UNK         0.5000 
     68 O          -2.9603  -22.0141  -49.2370 O.2       11 UNK        -0.5000 
     69 N          -2.3051  -20.6326  -47.5749 N.am      12 UNK        -0.5000 
     70 CA         -3.6237  -20.5019  -46.9554 C.3       12 UNK         0.1400 
     71 CB         -3.7371  -19.1528  -46.2285 C.3       12 UNK        -0.1800 
     72 C          -3.8764  -21.6774  -45.9969 C.2       12 UNK         0.5000 
     73 O          -4.9460  -22.2868  -46.0465 O.2       12 UNK        -0.5000 
     74 N          -2.8638  -21.9911  -45.1746 N.am      13 UNK        -0.5000 
     75 CA         -2.8664  -23.0680  -44.1834 C.3       13 UNK         0.1400 
     76 CB         -1.5483  -23.0284  -43.3994 C.3       13 UNK        -0.1800 
     77 C          -3.0844  -24.4657  -44.7890 C.2       13 UNK         0.5000 
     78 O          -3.8079  -25.2735  -44.2045 O.2       13 UNK        -0.5000 
     79 N          -2.4926  -24.7161  -45.9645 N.am      14 UNK        -0.5000 
     80 CA         -2.6165  -25.9455  -46.7507 C.3       14 UNK         0.1400 
     81 CB         -1.4356  -26.0197  -47.7360 C.3       14 UNK        -0.1800 
     82 C          -3.9838  -26.0716  -47.4604 C.2       14 UNK         0.5000 
     83 O          -4.0306  -26.2804  -48.6723 O.2       14 UNK        -0.5000 
     84 N          -5.0740  -25.9341  -46.6930 N.am      15 UNK        -0.5000 
     85 CA         -6.4786  -26.0548  -47.1006 C.3       15 UNK         0.1400 
     86 CB         -6.8179  -27.5294  -47.4023 C.3       15 UNK        -0.1800 
     87 C          -6.8728  -25.1003  -48.2495 C.2       15 UNK         0.5000 
     88 O          -7.6084  -25.4967  -49.1556 O.2       15 UNK        -0.5000 
     89 N          -6.3681  -23.8587  -48.1859 N.am      16 UNK        -0.5000 
     90 CA         -6.5679  -22.7790  -49.1573 C.3       16 UNK         0.1400 
     91 CB         -8.0346  -22.2998  -49.1566 C.3       16 UNK        -0.1800 
     92 C          -6.0377  -23.1051  -50.5706 C.2       16 UNK         0.5000 
     93 O          -6.6396  -22.6933  -51.5646 O.2       16 UNK        -0.5000 
     94 N          -4.8844  -23.7891  -50.6377 N.am      17 UNK        -0.5000 
     95 CA         -4.1192  -24.0779  -51.8581 C.3       17 UNK         0.1400 
     96 CB         -2.8397  -24.8461  -51.4945 C.3       17 UNK        -0.1800 
     97 C          -3.7607  -22.8299  -52.6888 C.2       17 UNK         0.5000 
     98 O          -3.6284  -22.9360  -53.9079 O.2       17 UNK        -0.5000 
     99 N          -3.6773  -21.6647  -52.0291 N.am      18 UNK        -0.5000 
    100 CA        -3.5508  -20.3262  -52.6129 C.3       18 UNK         0.1400 
    101 CB        -3.6886  -19.2795  -51.4959 C.3       18 UNK        -0.1800 
    102 C         -4.5584  -20.0289  -53.7419 C.2       18 UNK         0.5000 
    103 O         -4.2009  -19.3458  -54.6991 O.2       18 UNK        -0.5000 
    104 N         -5.7739  -20.5899  -53.6502 N.am      19 UNK        -0.5000 
    105 CA        -6.8170  -20.4784  -54.6732 C.3       19 UNK         0.1400 
    106 CB        -8.1158  -21.0960  -54.1337 C.3       19 UNK        -0.1800 
    107 C         -6.4388  -21.1158  -56.0276 C.2       19 UNK         0.5000 
    108 O         -6.9775  -20.7000  -57.0544 O.2       19 UNK        -0.5000 
    109 N         -5.5278  -22.0979  -56.0092 N.am      20 UNK        -0.5000 
    110 CA        -4.9749  -22.7468  -57.1958 C.3       20 UNK         0.1400 
    111 CB        -4.9835  -24.2689  -56.9819 C.3       20 UNK        -0.1800 
    112 C         -3.5469  -22.2556  -57.4914 C.2       20 UNK         0.5000 
    113 O         -3.1964  -22.0966  -58.6613 O.2       20 UNK        -0.5000 
    114 N         -2.7412  -22.0505  -56.4391 N.am      21 UNK        -0.5000 
    115 CA        -1.3269  -21.6892  -56.5341 C.3       21 UNK         0.1400 
    116 CB        -0.6482  -21.9082  -55.1720 C.3       21 UNK        -0.1800 
    117 C         -1.0826  -20.2547  -57.0343 C.2       21 UNK         0.5000 
    118 O         -0.1402  -20.0415  -57.7988 O.2       21 UNK        -0.5000 
    119 N         -1.9075  -19.2986  -56.5908 N.am      22 UNK        -0.5000 
    120 CA        -1.8070  -17.8861  -56.9828 C.3       22 UNK         0.1400 
    121 C         -2.4954  -17.6172  -58.3482 C.2       22 UNK         0.5000 
    122 N         -1.9451  -16.7264  -59.1625 N.am      22 UNK        -0.7600 
    123 O         -3.5450  -18.1741  -58.6621 O.2       22 UNK        -0.5000 
    124 C124       -2.3660  -16.9351  -55.8921 C.3       23 UNK        -0.0398 
    125 S125       -1.6851  -17.1744  -54.2101 S.3       23 UNK        -0.2404 
    126 C126        0.1091  -17.2425  -54.4954 C.3       23 UNK        -0.0205 
    127 H127        4.8748  -13.9516  -45.5740 H         1 UNK         0.0600 
    128 H128        4.7240  -14.7706  -47.1310 H         1 UNK         0.0600 
    129 H129        4.7507  -15.7128  -45.6379 H         1 UNK         0.0600 
    130 H130        2.6565  -14.9073  -47.9734 H         1 UNK         0.3000 
    131 H131        0.3297  -15.4860  -46.5191 H         1 UNK         0.0600 
    132 H132       -0.8959  -15.0672  -48.6163 H         1 UNK         0.0800 
    133 H133        0.4799  -16.0895  -48.8508 H         1 UNK         0.0800 
    134 H134        2.9555  -14.9739  -49.8233 H         1 UNK         0.0800 
    135 H135        2.7036  -14.1488  -51.3339 H         1 UNK         0.0800 
    136 H136        0.8909  -15.1418  -52.9575 H         1 UNK         0.1150 
    137 H137        0.9918  -19.4181  -53.1243 H         1 UNK         0.1150 
    138 H138        2.7462  -17.3558  -49.7936 H         1 UNK         0.1150 
    139 H139        3.3601  -20.0762  -51.0806 H         1 UNK         0.0800 
    140 H140        2.4163  -19.7412  -49.6513 H         1 UNK         0.0800 
    141 H141       -1.0559  -20.9819  -51.0894 H         1 UNK         0.0800 
    142 H142       -0.3025  -19.7493  -50.1116 H         1 UNK         0.0800 
    143 H143       -0.5207  -22.7018  -49.3325 H         1 UNK         0.0600 
    144 H144        0.9149  -20.5576  -48.0479 H         1 UNK         0.3000 
    145 H145        1.2721  -22.2225  -44.9159 H         1 UNK         0.0600 
    146 H146        3.6709  -21.9395  -45.4434 H         1 UNK         0.0600 
    147 H147        3.0053  -23.2562  -46.3970 H         1 UNK         0.0600 
    148 H148        3.3025  -21.6936  -47.1507 H         1 UNK         0.0600 
    149 H149        2.4243  -19.8129  -45.6682 H         1 UNK         0.3000 
    150 H150        1.1158  -17.6408  -45.8695 H         1 UNK         0.0600 
    151 H151       -1.2796  -17.3329  -45.3822 H         1 UNK         0.0600 
    152 H152       -0.3448  -16.2786  -44.3317 H         1 UNK         0.0600 
    153 H153       -1.0411  -17.7623  -43.6919 H         1 UNK         0.0600 
    154 H154        1.3230  -17.6912  -42.9674 H         1 UNK         0.3000 
    155 H155        4.8977  -18.0527  -42.9564 H         1 UNK         0.0600 
    156 H156        2.8844  -15.8902  -42.1465 H         1 UNK         0.0600 
    157 H157        4.3000  -15.6487  -43.1639 H         1 UNK         0.0600 
    158 H158        4.5014  -16.0900  -41.4763 H         1 UNK         0.0600 
    159 H159        2.4277  -18.1942  -41.2718 H         1 UNK         0.3000 
    160 H160        3.1963  -21.4211  -40.1262 H         1 UNK         0.0600 
    161 H161        3.5178  -18.8601  -38.4681 H         1 UNK         0.0600 
    162 H162        4.7059  -20.1521  -38.5912 H         1 UNK         0.0600 
    163 H163        3.1529  -20.4656  -37.8338 H         1 UNK         0.0600 
    164 H164        1.2752  -19.4518  -39.2975 H         1 UNK         0.3000 
    165 H165       -1.0386  -19.8610  -41.8953 H         1 UNK         0.0600 
    166 H166       -2.6173  -20.7738  -40.2524 H         1 UNK         0.0600 
    167 H167       -1.4302  -22.0178  -40.6051 H         1 UNK         0.0600 
    168 H168       -1.3166  -21.1085  -39.1082 H         1 UNK         0.0600 
    169 H169       -1.5629  -18.6761  -39.4675 H         1 UNK         0.3000 
    170 H170       -1.6855  -16.4996  -39.2566 H         1 UNK         0.0600 
    171 H171        0.5205  -16.5997  -38.0670 H         1 UNK         0.0600 
    172 H172        1.2369  -15.5532  -39.2878 H         1 UNK         0.0600 
    173 H173       -0.0351  -14.9410  -38.2317 H         1 UNK         0.0600 
    174 H174       -0.4677  -14.3479  -40.6439 H         1 UNK         0.3000 
    175 H175       -2.3396  -14.3611  -43.6057 H         1 UNK         0.0600 
    176 H176       -2.9513  -12.5540  -41.2102 H         1 UNK         0.0600 
    177 H177       -3.2641  -12.1667  -42.9022 H         1 UNK         0.0600 
    178 H178       -4.1208  -13.4904  -42.1277 H         1 UNK         0.0600 
    179 H179       -0.4710  -13.2816  -43.8293 H         1 UNK         0.3000 
    180 H180        1.2315  -10.8210  -42.1852 H         1 UNK         0.0600 
    181 H181        3.3836  -12.0639  -42.5222 H         1 UNK         0.0600 
    182 H182        2.5065  -13.5902  -42.4349 H         1 UNK         0.0600 
    183 H183        2.5734  -12.5331  -41.0350 H         1 UNK         0.0600 
    184 H184        1.6924  -12.5055  -44.5400 H         1 UNK         0.3000 
    185 H185       -0.4599  -10.7089  -46.6532 H         1 UNK         0.0600 
    186 H186        1.5061   -9.9571  -47.9715 H         1 UNK         0.0600 
    187 H187        1.2958   -8.9322  -46.5613 H         1 UNK         0.0600 
    188 H188        2.5567  -10.1595  -46.5684 H         1 UNK         0.0600 
    189 H189        1.7674  -12.3900  -47.2527 H         1 UNK         0.3000 
    190 H190       -1.5263  -20.2336  -47.0680 H         1 UNK         0.3000 
    191 H191       -4.3904  -20.5192  -47.7320 H         1 UNK         0.0600 
    192 H192       -4.7483  -19.0051  -45.8477 H         1 UNK         0.0600 
    193 H193       -3.5183  -18.3226  -46.9002 H         1 UNK         0.0600 
    194 H194       -3.0598  -19.0843  -45.3778 H         1 UNK         0.0600 
    195 H195       -2.0321  -21.4078  -45.1971 H         1 UNK         0.3000 
    196 H196       -3.6861  -22.8703  -43.4900 H         1 UNK         0.0600 
    197 H197       -0.6984  -23.3024  -44.0242 H         1 UNK         0.0600 
    198 H198       -1.3575  -22.0322  -43.0043 H         1 UNK         0.0600 
    199 H199       -1.5724  -23.7206  -42.5571 H         1 UNK         0.0600 
    200 H200       -1.8649  -24.0118  -46.3410 H         1 UNK         0.3000 
    201 H201       -2.5334  -26.7966  -46.0719 H         1 UNK         0.0600 
    202 H202       -1.4487  -25.1863  -48.4396 H         1 UNK         0.0600 
    203 H203       -1.4613  -26.9431  -48.3159 H         1 UNK         0.0600 
    204 H204       -0.4814  -25.9967  -47.2093 H         1 UNK         0.0600 
    205 H205       -4.9121  -25.7369  -45.7092 H         1 UNK         0.3000 
    206 H206       -7.0735  -25.7499  -46.2386 H         1 UNK         0.0600 
    207 H207       -6.5564  -28.1738  -46.5630 H         1 UNK         0.0600 
    208 H208       -7.8852  -27.6572  -47.5865 H         1 UNK         0.0600 
    209 H209       -6.2871  -27.8934  -48.2827 H         1 UNK         0.0600 
    210 H210       -5.7850  -23.6168  -47.3908 H         1 UNK         0.3000 
    211 H211       -5.9591  -21.9469  -48.8042 H         1 UNK         0.0600 
    212 H212       -8.1534  -21.4032  -49.7661 H         1 UNK         0.0600 
    213 H213       -8.3673  -22.0511  -48.1488 H         1 UNK         0.0600 
    214 H214       -8.7095  -23.0570  -49.5566 H         1 UNK         0.0600 
    215 H215       -4.4598  -24.0892  -49.7707 H         1 UNK         0.3000 
    216 H216       -4.7387  -24.7176  -52.4893 H         1 UNK         0.0600 
    217 H217       -2.2316  -24.2972  -50.7747 H         1 UNK         0.0600 
    218 H218       -2.2236  -25.0252  -52.3768 H         1 UNK         0.0600 
    219 H219       -3.0730  -25.8203  -51.0666 H         1 UNK         0.0600 
    220 H220       -3.7343  -21.7125  -51.0165 H         1 UNK         0.3000 
    221 H221       -2.5498  -20.2403  -53.0356 H         1 UNK         0.0600 
    222 H222       -2.9069  -19.3876  -50.7456 H         1 UNK         0.0600 
    223 H223       -4.6513  -19.3581  -50.9893 H         1 UNK         0.0600 
    224 H224       -3.6093  -18.2679  -51.8964 H         1 UNK         0.0600 
    225 H225       -5.9849  -21.1838  -52.8549 H         1 UNK         0.3000 
    226 H226       -6.9928  -19.4155  -54.8510 H         1 UNK         0.0600 
    227 H227       -8.0013  -22.1634  -53.9403 H         1 UNK         0.0600 
    228 H228       -8.4250  -20.6185  -53.2037 H         1 UNK         0.0600 
    229 H229       -8.9317  -20.9773  -54.8478 H         1 UNK         0.0600 
    230 H230       -5.1105  -22.3577  -55.1224 H         1 UNK         0.3000 
    231 H231       -5.5886  -22.5289  -58.0723 H         1 UNK         0.0600 
    232 H232       -4.3849  -24.5599  -56.1177 H         1 UNK         0.0600 
    233 H233       -4.5793  -24.7878  -57.8519 H         1 UNK         0.0600 
    234 H234       -5.9974  -24.6374  -56.8254 H         1 UNK         0.0600 
    235 H235       -3.0902  -22.2629  -55.5080 H         1 UNK         0.3000 
    236 H236       -0.8599  -22.3695  -57.2496 H         1 UNK         0.0600 
    237 H237       -0.7738  -22.9346  -54.8267 H         1 UNK         0.0600 
    238 H238        0.4233  -21.7145  -55.2346 H         1 UNK         0.0600 
    239 H239       -1.0529  -21.2464  -54.4079 H         1 UNK         0.0600 
    240 H240       -2.6883  -19.5342  -55.9867 H         1 UNK         0.3000 
    241 H241       -0.7503  -17.6454  -57.1102 H         1 UNK         0.0600 
    242 H242       -2.3909  -16.5315  -60.0459 H         1 UNK         0.3800 
    243 H243       -1.0880  -16.2492  -58.9281 H         1 UNK         0.3800 
    244 H244       -3.4501  -17.0388  -55.8226 H         1 UNK         0.0800 
    245 H245       -2.1848  -15.8969  -56.1753 H         1 UNK         0.0800 
    246 H246        0.4221  -16.3753  -55.0788 H         1 UNK         0.0800 
    247 H247        0.3581  -18.1263  -55.0841 H         1 UNK         0.0800 
@<TRIPOS>BOND
     1    1    2 1    
     2    1  127 1    
     3    1  128 1    
     4    1  129 1    
     5    2    3 2    
     6    2    4 am   BACKBONE|DICT|INTERRES
     7    4    5 1    
     8    4  130 1    
     9    5    6 1    
    10    5   65 1    
    11    5  131 1    
    12    6    7 1    
    13    6  132 1    
    14    6  133 1    
    15    7    8 1    
    16    8    9 1    
    17    8  134 1    
    18    8  135 1    
    19    9   10 ar   
    20    9   14 ar   
    21   10   11 ar   
    22   10  136 1    
    23   11   12 ar   
    24   11  126 1    
    25   12   13 ar   
    26   12  137 1    
    27   13   14 ar   
    28   13   15 1    
    29   14  138 1    
    30   15   16 1    
    31   15  139 1    
    32   15  140 1    
    33   16   17 1    
    34   17   18 1    
    35   17  141 1    
    36   17  142 1    
    37   18   19 1    
    38   18   67 1    
    39   18  143 1    
    40   19   20 am   BACKBONE|DICT|INTERRES
    41   19  144 1    
    42   20   21 2    
    43   20   22 1    
    44   22   23 1    
    45   22   24 1    
    46   22  145 1    
    47   23  146 1    
    48   23  147 1    
    49   23  148 1    
    50   24   25 am   BACKBONE|DICT|INTERRES
    51   24  149 1    
    52   25   26 2    
    53   25   27 1    
    54   27   28 1    
    55   27   29 1    
    56   27  150 1    
    57   28  151 1    
    58   28  152 1    
    59   28  153 1    
    60   29   30 am   BACKBONE|DICT|INTERRES
    61   29  154 1    
    62   30   31 2    
    63   30   32 1    
    64   32   33 1    
    65   32   34 1    
    66   32  155 1    
    67   33  156 1    
    68   33  157 1    
    69   33  158 1    
    70   34   35 am   BACKBONE|DICT|INTERRES
    71   34  159 1    
    72   35   36 2    
    73   35   37 1    
    74   37   38 1    
    75   37   39 1    
    76   37  160 1    
    77   38  161 1    
    78   38  162 1    
    79   38  163 1    
    80   39   40 am   BACKBONE|DICT|INTERRES
    81   39  164 1    
    82   40   41 2    
    83   40   42 1    
    84   42   43 1    
    85   42   44 1    
    86   42  165 1    
    87   43  166 1    
    88   43  167 1    
    89   43  168 1    
    90   44   45 am   BACKBONE|DICT|INTERRES
    91   44  169 1    
    92   45   46 2    
    93   45   47 1    
    94   47   48 1    
    95   47   49 1    
    96   47  170 1    
    97   48  171 1    
    98   48  172 1    
    99   48  173 1    
   100   49   50 am   BACKBONE|DICT|INTERRES
   101   49  174 1    
   102   50   51 2    
   103   50   52 1    
   104   52   53 1    
   105   52   54 1    
   106   52  175 1    
   107   53  176 1    
   108   53  177 1    
   109   53  178 1    
   110   54   55 am   BACKBONE|DICT|INTERRES
   111   54  179 1    
   112   55   56 2    
   113   55   57 1    
   114   57   58 1    
   115   57   59 1    
   116   57  180 1    
   117   58  181 1    
   118   58  182 1    
   119   58  183 1    
   120   59   60 am   BACKBONE|DICT|INTERRES
   121   59  184 1    
   122   60   61 2    
   123   60   62 1    
   124   62   63 1    
   125   62   64 1    
   126   62  185 1    
   127   63  186 1    
   128   63  187 1    
   129   63  188 1    
   130   64   65 am   BACKBONE|DICT|INTERRES
   131   64  189 1    
   132   65   66 2    
   133   67   68 2    
   134   67   69 am   BACKBONE|DICT|INTERRES
   135   69   70 1    
   136   69  190 1    
   137   70   71 1    
   138   70   72 1    
   139   70  191 1    
   140   71  192 1    
   141   71  193 1    
   142   71  194 1    
   143   72   73 2    
   144   72   74 am   BACKBONE|DICT|INTERRES
   145   74   75 1    
   146   74  195 1    
   147   75   76 1    
   148   75   77 1    
   149   75  196 1    
   150   76  197 1    
   151   76  198 1    
   152   76  199 1    
   153   77   78 2    
   154   77   79 am   BACKBONE|DICT|INTERRES
   155   79   80 1    
   156   79  200 1    
   157   80   81 1    
   158   80   82 1    
   159   80  201 1    
   160   81  202 1    
   161   81  203 1    
   162   81  204 1    
   163   82   83 2    
   164   82   84 am   BACKBONE|DICT|INTERRES
   165   84   85 1    
   166   84  205 1    
   167   85   86 1    
   168   85   87 1    
   169   85  206 1    
   170   86  207 1    
   171   86  208 1    
   172   86  209 1    
   173   87   88 2    
   174   87   89 am   BACKBONE|DICT|INTERRES
   175   89   90 1    
   176   89  210 1    
   177   90   91 1    
   178   90   92 1    
   179   90  211 1    
   180   91  212 1    
   181   91  213 1    
   182   91  214 1    
   183   92   93 2    
   184   92   94 am   BACKBONE|DICT|INTERRES
   185   94   95 1    
   186   94  215 1    
   187   95   96 1    
   188   95   97 1    
   189   95  216 1    
   190   96  217 1    
   191   96  218 1    
   192   96  219 1    
   193   97   98 2    
   194   97   99 am   BACKBONE|DICT|INTERRES
   195   99  100 1    
   196   99  220 1    
   197  100  101 1    
   198  100  102 1    
   199  100  221 1    
   200  101  222 1    
   201  101  223 1    
   202  101  224 1    
   203  102  103 2    
   204  102  104 am   BACKBONE|DICT|INTERRES
   205  104  105 1    
   206  104  225 1    
   207  105  106 1    
   208  105  107 1    
   209  105  226 1    
   210  106  227 1    
   211  106  228 1    
   212  106  229 1    
   213  107  108 2    
   214  107  109 am   BACKBONE|DICT|INTERRES
   215  109  110 1    
   216  109  230 1    
   217  110  111 1    
   218  110  112 1    
   219  110  231 1    
   220  111  232 1    
   221  111  233 1    
   222  111  234 1    
   223  112  113 2    
   224  112  114 am   BACKBONE|DICT|INTERRES
   225  114  115 1    
   226  114  235 1    
   227  115  116 1    
   228  115  117 1    
   229  115  236 1    
   230  116  237 1    
   231  116  238 1    
   232  116  239 1    
   233  117  118 2    
   234  117  119 am   BACKBONE|DICT|INTERRES
   235  119  120 1    
   236  119  240 1    
   237  120  121 1    
   238  120  124 1    
   239  120  241 1    
   240  121  122 am   BACKBONE|DICT|INTERRES
   241  121  123 2    
   242  122  242 1    
   243  122  243 1    
   244  124  125 1    
   245  124  244 1    
   246  124  245 1    
   247  125  126 1    
   248  126  246 1    
   249  126  247 1    
@<TRIPOS>SUBSTRUCTURE
     1 UNK         1 GROUP             0       ****    0 ROOT    
