@<TRIPOS>MOLECULE
3R540
247   249    1
SMALL
USER_CHARGES


@<TRIPOS>ATOM
      1 CA          4.8086  -13.5250  -46.1733 C.3       0 UNK        -0.1800 
      2 C           3.4428  -12.9096  -46.4399 C.2       0 UNK         0.5000 
      3 O           3.3643  -11.8246  -47.0160 O.2       0 UNK        -0.5000 
      4 N           2.3748  -13.5857  -45.9975 N.am      1 UNK        -0.5000 
      5 CA          0.9596  -13.2228  -46.1361 C.3       1 UNK         0.1400 
      6 C6          0.4605  -13.1670  -47.6049 C.3       23 UNK        -0.0398 
      7 S7          0.5393  -14.7950  -48.4272 S.3       23 UNK        -0.2404 
      8 C8         -1.1815  -14.9752  -48.9894 C.3       23 UNK        -0.0205 
      9 C9         -1.3384  -16.1498  -49.9412 C.ar      23 UNK        -0.0193 
     10 C10        -1.1021  -15.9754  -51.3090 C.ar      23 UNK        -0.1150 
     11 C11        -1.2738  -17.0385  -52.2001 C.ar      23 UNK        -0.0193 
     12 C12        -1.6820  -18.2815  -51.7138 C.ar      23 UNK        -0.1150 
     13 C13        -1.9235  -18.4674  -50.3504 C.ar      23 UNK        -0.0193 
     14 C14        -1.7476  -17.3999  -49.4655 C.ar      23 UNK        -0.1150 
     15 C15        -2.4225  -19.8144  -49.8618 C.3       23 UNK        -0.0205 
     16 S16        -1.1005  -21.0678  -49.8574 S.3       23 UNK        -0.2404 
     17 C17        -0.4843  -20.9413  -48.1428 C.3       23 UNK        -0.0398 
     18 CA         -0.5921  -22.2582  -47.3328 C.3       11 UNK         0.1400 
     19 N          -0.0272  -22.1039  -45.9905 N.am      11 UNK        -0.5000 
     20 C           0.1659  -23.1022  -45.1172 C.2       10 UNK         0.5000 
     21 O          -0.0561  -24.2849  -45.3695 O.2       10 UNK        -0.5000 
     22 CA          0.6352  -22.7122  -43.7057 C.3       10 UNK         0.1400 
     23 CB          2.1510  -22.4689  -43.6842 C.3       10 UNK        -0.1800 
     24 N          -0.0690  -21.5391  -43.1857 N.am      10 UNK        -0.5000 
     25 C          -1.3890  -21.4890  -42.9521 C.2       9 UNK         0.5000 
     26 O          -2.1452  -22.4482  -43.1038 O.2       9 UNK        -0.5000 
     27 CA         -1.9725  -20.1276  -42.5314 C.3       9 UNK         0.1400 
     28 CB         -1.7068  -19.8504  -41.0447 C.3       9 UNK        -0.1800 
     29 N          -1.4559  -19.0228  -43.3398 N.am      9 UNK        -0.5000 
     30 C          -1.6427  -18.8951  -44.6614 C.2       8 UNK         0.5000 
     31 O          -2.3165  -19.6706  -45.3387 O.2       8 UNK        -0.5000 
     32 CA         -0.9025  -17.7398  -45.3546 C.3       8 UNK         0.1400 
     33 CB         -1.6746  -16.4204  -45.2118 C.3       8 UNK        -0.1800 
     34 N           0.4619  -17.5877  -44.8506 N.am      8 UNK        -0.5000 
     35 C           1.4398  -18.4803  -45.0645 C.2       7 UNK         0.5000 
     36 O           1.3018  -19.4949  -45.7481 O.2       7 UNK        -0.5000 
     37 CA          2.7794  -18.2193  -44.3554 C.3       7 UNK         0.1400 
     38 CB          3.6350  -17.2348  -45.1643 C.3       7 UNK        -0.1800 
     39 N           2.5897  -17.7100  -42.9961 N.am      7 UNK        -0.5000 
     40 C           2.1146  -18.4515  -41.9829 C.2       6 UNK         0.5000 
     41 O           1.8211  -19.6407  -42.0928 O.2       6 UNK        -0.5000 
     42 CA          1.8837  -17.7476  -40.6316 C.3       6 UNK         0.1400 
     43 CB          3.1466  -17.8309  -39.7619 C.3       6 UNK        -0.1800 
     44 N           1.4871  -16.3471  -40.7672 N.am      6 UNK        -0.5000 
     45 C           0.3992  -15.9080  -41.4155 C.2       5 UNK         0.5000 
     46 O          -0.4452  -16.6544  -41.9114 O.2       5 UNK        -0.5000 
     47 CA          0.2632  -14.3824  -41.5895 C.3       5 UNK         0.1400 
     48 CB         -0.7098  -13.8075  -40.5502 C.3       5 UNK        -0.1800 
     49 N           1.5370  -13.6545  -41.5126 N.am      5 UNK        -0.5000 
     50 C           2.5696  -13.8247  -42.3485 C.2       4 UNK         0.5000 
     51 O           2.5718  -14.6379  -43.2766 O.2       4 UNK        -0.5000 
     52 CA          3.8014  -12.9461  -42.1048 C.3       4 UNK         0.1400 
     53 CB          5.1064  -13.7491  -42.2821 C.3       4 UNK        -0.1800 
     54 N           3.7555  -11.8121  -43.0236 N.am      4 UNK        -0.5000 
     55 C           4.4800  -10.6916  -42.9009 C.2       3 UNK         0.5000 
     56 O           5.2617  -10.4885  -41.9710 O.2       3 UNK        -0.5000 
     57 CA          4.3208   -9.6097  -43.9875 C.3       3 UNK         0.1400 
     58 CB          5.5089   -9.6381  -44.9618 C.3       3 UNK        -0.1800 
     59 N           3.0795   -9.7392  -44.7516 N.am      3 UNK        -0.5000 
     60 C           1.9075   -9.1991  -44.3869 C.2       2 UNK         0.5000 
     61 O           1.7513   -8.5250  -43.3683 O.2       2 UNK        -0.5000 
     62 CA          0.7027   -9.4675  -45.3103 C.3       2 UNK         0.1400 
     63 CB          0.5831   -8.3684  -46.3767 C.3       2 UNK        -0.1800 
     64 N           0.7897  -10.7700  -45.9713 N.am      2 UNK        -0.5000 
     65 C           0.6527  -11.9417  -45.3375 C.2       1 UNK         0.5000 
     66 O           0.3418  -12.0350  -44.1509 O.2       1 UNK        -0.5000 
     67 C          -2.0283  -22.8274  -47.2800 C.2       11 UNK         0.5000 
     68 O          -2.3241  -23.7965  -47.9807 O.2       11 UNK        -0.5000 
     69 N          -2.8857  -22.2554  -46.4242 N.am      12 UNK        -0.5000 
     70 CA         -4.2549  -22.7203  -46.1972 C.3       12 UNK         0.1400 
     71 CB         -4.9762  -21.7569  -45.2435 C.3       12 UNK        -0.1800 
     72 C          -4.3256  -24.1699  -45.6794 C.2       12 UNK         0.5000 
     73 O          -5.1562  -24.9429  -46.1573 O.2       12 UNK        -0.5000 
     74 N          -3.4438  -24.5099  -44.7315 N.am      13 UNK        -0.5000 
     75 CA         -3.3642  -25.8268  -44.1081 C.3       13 UNK         0.1400 
     76 CB         -2.5884  -25.7162  -42.7849 C.3       13 UNK        -0.1800 
     77 C          -2.7431  -26.8982  -45.0227 C.2       13 UNK         0.5000 
     78 O          -3.3913  -27.9078  -45.3007 O.2       13 UNK        -0.5000 
     79 N          -1.4853  -26.6900  -45.4326 N.am      14 UNK        -0.5000 
     80 CA         -0.6496  -27.7205  -46.0505 C.3       14 UNK         0.1400 
     81 CB          0.8178  -27.4859  -45.6580 C.3       14 UNK        -0.1800 
     82 C          -0.7877  -27.7786  -47.5781 C.2       14 UNK         0.5000 
     83 O          -0.7441  -28.8732  -48.1411 O.2       14 UNK        -0.5000 
     84 N          -0.9465  -26.6162  -48.2243 N.am      15 UNK        -0.5000 
     85 CA         -1.0538  -26.4986  -49.6824 C.3       15 UNK         0.1400 
     86 CB         -0.2474  -25.2767  -50.1594 C.3       15 UNK        -0.1800 
     87 C          -2.5161  -26.4253  -50.1595 C.2       15 UNK         0.5000 
     88 O          -2.7438  -26.2257  -51.3531 O.2       15 UNK        -0.5000 
     89 N          -3.4789  -26.5521  -49.2315 N.am      16 UNK        -0.5000 
     90 CA         -4.9304  -26.4653  -49.4398 C.3       16 UNK         0.1400 
     91 CB         -5.4361  -27.6871  -50.2342 C.3       16 UNK        -0.1800 
     92 C          -5.3579  -25.1209  -50.0673 C.2       16 UNK         0.5000 
     93 O          -6.2191  -25.0859  -50.9486 O.2       16 UNK        -0.5000 
     94 N          -4.6911  -24.0423  -49.6318 N.am      17 UNK        -0.5000 
     95 CA         -4.7998  -22.6666  -50.1227 C.3       17 UNK         0.1400 
     96 CB         -6.2097  -22.0918  -49.8735 C.3       17 UNK        -0.1800 
     97 C          -4.3374  -22.4966  -51.5856 C.2       17 UNK         0.5000 
     98 O          -4.7455  -21.5373  -52.2426 O.2       17 UNK        -0.5000 
     99 N          -3.5084  -23.4310  -52.0803 N.am      18 UNK        -0.5000 
    100 CA        -2.9429  -23.4929  -53.4340 C.3       18 UNK         0.1400 
    101 CB        -1.9093  -22.3637  -53.6289 C.3       18 UNK        -0.1800 
    102 C         -4.0184  -23.5086  -54.5426 C.2       18 UNK         0.5000 
    103 O         -3.7762  -23.0067  -55.6408 O.2       18 UNK        -0.5000 
    104 N         -5.2153  -24.0198  -54.2074 N.am      19 UNK        -0.5000 
    105 CA        -6.4520  -23.9919  -54.9994 C.3       19 UNK         0.1400 
    106 CB        -6.3214  -24.9161  -56.2277 C.3       19 UNK        -0.1800 
    107 C         -6.9205  -22.5665  -55.3839 C.2       19 UNK         0.5000 
    108 O         -7.6877  -22.4179  -56.3365 O.2       19 UNK        -0.5000 
    109 N         -6.4372  -21.5463  -54.6539 N.am      20 UNK        -0.5000 
    110 CA        -6.5933  -20.1099  -54.9048 C.3       20 UNK         0.1400 
    111 CB        -8.0543  -19.6717  -54.6748 C.3       20 UNK        -0.1800 
    112 C         -6.0377  -19.6600  -56.2763 C.2       20 UNK         0.5000 
    113 O         -6.5370  -18.6893  -56.8494 O.2       20 UNK        -0.5000 
    114 N         -5.0112  -20.3636  -56.7830 N.am      21 UNK        -0.5000 
    115 CA        -4.4366  -20.1834  -58.1220 C.3       21 UNK         0.1400 
    116 CB        -3.3749  -21.2662  -58.3657 C.3       21 UNK        -0.1800 
    117 C         -3.8509  -18.7846  -58.4002 C.2       21 UNK         0.5000 
    118 O         -3.8192  -18.3662  -59.5585 O.2       21 UNK        -0.5000 
    119 N         -3.4178  -18.0833  -57.3456 N.am      22 UNK        -0.5000 
    120 CA        -2.9811  -16.6794  -57.3985 C.3       22 UNK         0.1400 
    121 C         -4.1377  -15.6357  -57.4766 C.2       22 UNK         0.5000 
    122 N         -5.4052  -16.0204  -57.3721 N.am      22 UNK        -0.7600 
    123 O         -3.8793  -14.4485  -57.6560 O.2       22 UNK        -0.5000 
    124 C124       -1.9624  -16.3504  -56.2767 C.3       23 UNK        -0.0398 
    125 S125       -2.5955  -16.6243  -54.5857 S.3       23 UNK        -0.2404 
    126 C126       -1.0300  -16.8505  -53.6881 C.3       23 UNK        -0.0205 
    127 H127        5.3719  -12.9092  -45.4736 H         1 UNK         0.0600 
    128 H128        5.3755  -13.5941  -47.1015 H         1 UNK         0.0600 
    129 H129        4.7273  -14.5262  -45.7520 H         1 UNK         0.0600 
    130 H130        2.5337  -14.4011  -45.4189 H         1 UNK         0.3000 
    131 H131        0.4076  -14.0168  -45.6332 H         1 UNK         0.0600 
    132 H132        1.0460  -12.4641  -48.1986 H         1 UNK         0.0800 
    133 H133       -0.5681  -12.8033  -47.6350 H         1 UNK         0.0800 
    134 H134       -1.8380  -15.0948  -48.1266 H         1 UNK         0.0800 
    135 H135       -1.4981  -14.0601  -49.4926 H         1 UNK         0.0800 
    136 H136       -0.7915  -15.0085  -51.6797 H         1 UNK         0.1150 
    137 H137       -1.8268  -19.1044  -52.4003 H         1 UNK         0.1150 
    138 H138       -1.9481  -17.5353  -48.4130 H         1 UNK         0.1150 
    139 H139       -2.8874  -19.7353  -48.8777 H         1 UNK         0.0800 
    140 H140       -3.2123  -20.1330  -50.5386 H         1 UNK         0.0800 
    141 H141       -0.9976  -20.1331  -47.6230 H         1 UNK         0.0800 
    142 H142        0.5609  -20.6342  -48.1969 H         1 UNK         0.0800 
    143 H143        0.0213  -23.0031  -47.8438 H         1 UNK         0.0600 
    144 H144        0.2340  -21.1616  -45.7172 H         1 UNK         0.3000 
    145 H145        0.4179  -23.5514  -43.0417 H         1 UNK         0.0600 
    146 H146        2.5056  -22.2869  -42.6696 H         1 UNK         0.0600 
    147 H147        2.6916  -23.3357  -44.0664 H         1 UNK         0.0600 
    148 H148        2.4308  -21.6105  -44.2952 H         1 UNK         0.0600 
    149 H149        0.5016  -20.7241  -42.9786 H         1 UNK         0.3000 
    150 H150       -3.0534  -20.1685  -42.6805 H         1 UNK         0.0600 
    151 H151       -2.1427  -18.9000  -40.7358 H         1 UNK         0.0600 
    152 H152       -2.1449  -20.6295  -40.4198 H         1 UNK         0.0600 
    153 H153       -0.6401  -19.8166  -40.8252 H         1 UNK         0.0600 
    154 H154       -0.9286  -18.3044  -42.8524 H         1 UNK         0.3000 
    155 H155       -0.8401  -17.9775  -46.4176 H         1 UNK         0.0600 
    156 H156       -1.7287  -16.0872  -44.1755 H         1 UNK         0.0600 
    157 H157       -2.6975  -16.5281  -45.5750 H         1 UNK         0.0600 
    158 H158       -1.2093  -15.6298  -45.7969 H         1 UNK         0.0600 
    159 H159        0.6400  -16.8113  -44.2308 H         1 UNK         0.3000 
    160 H160        3.3196  -19.1664  -44.2934 H         1 UNK         0.0600 
    161 H161        3.1147  -16.2917  -45.3239 H         1 UNK         0.0600 
    162 H162        3.8739  -17.6444  -46.1465 H         1 UNK         0.0600 
    163 H163        4.5779  -17.0201  -44.6610 H         1 UNK         0.0600 
    164 H164        2.7634  -16.7223  -42.8514 H         1 UNK         0.3000 
    165 H165        1.0772  -18.2722  -40.1164 H         1 UNK         0.0600 
    166 H166        2.9725  -17.4102  -38.7714 H         1 UNK         0.0600 
    167 H167        3.4570  -18.8674  -39.6232 H         1 UNK         0.0600 
    168 H168        3.9827  -17.2951  -40.2134 H         1 UNK         0.0600 
    169 H169        2.1208  -15.6594  -40.3887 H         1 UNK         0.3000 
    170 H170       -0.1576  -14.2117  -42.5823 H         1 UNK         0.0600 
    171 H171       -1.6757  -14.3125  -40.5975 H         1 UNK         0.0600 
    172 H172       -0.3283  -13.9214  -39.5348 H         1 UNK         0.0600 
    173 H173       -0.8912  -12.7469  -40.7259 H         1 UNK         0.0600 
    174 H174        1.6056  -12.9538  -40.7886 H         1 UNK         0.3000 
    175 H175        3.7630  -12.5732  -41.0791 H         1 UNK         0.0600 
    176 H176        5.2261  -14.1101  -43.3032 H         1 UNK         0.0600 
    177 H177        5.9828  -13.1498  -42.0361 H         1 UNK         0.0600 
    178 H178        5.1185  -14.6200  -41.6257 H         1 UNK         0.0600 
    179 H179        3.0862  -11.8854  -43.7764 H         1 UNK         0.3000 
    180 H180        4.3329   -8.6415  -43.4822 H         1 UNK         0.0600 
    181 H181        5.5426  -10.5635  -45.5355 H         1 UNK         0.0600 
    182 H182        6.4563   -9.5465  -44.4290 H         1 UNK         0.0600 
    183 H183        5.4547   -8.8106  -45.6693 H         1 UNK         0.0600 
    184 H184        3.1245  -10.2817  -45.6075 H         1 UNK         0.3000 
    185 H185       -0.2005   -9.4489  -44.6965 H         1 UNK         0.0600 
    186 H186       -0.3012   -8.5154  -46.9971 H         1 UNK         0.0600 
    187 H187        0.4949   -7.3843  -45.9144 H         1 UNK         0.0600 
    188 H188        1.4544   -8.3462  -47.0326 H         1 UNK         0.0600 
    189 H189        1.1145  -10.7698  -46.9281 H         1 UNK         0.3000 
    190 H190       -2.5898  -21.4367  -45.8975 H         1 UNK         0.3000 
    191 H191       -4.7769  -22.6887  -47.1533 H         1 UNK         0.0600 
    192 H192       -5.0016  -20.7461  -45.6509 H         1 UNK         0.0600 
    193 H193       -6.0086  -22.0685  -45.0805 H         1 UNK         0.0600 
    194 H194       -4.4886  -21.7116  -44.2698 H         1 UNK         0.0600 
    195 H195       -2.8234  -23.7941  -44.3639 H         1 UNK         0.3000 
    196 H196       -4.3793  -26.1496  -43.8667 H         1 UNK         0.0600 
    197 H197       -2.5031  -26.6880  -42.2972 H         1 UNK         0.0600 
    198 H198       -3.0943  -25.0464  -42.0892 H         1 UNK         0.0600 
    199 H199       -1.5785  -25.3333  -42.9371 H         1 UNK         0.0600 
    200 H200       -1.0297  -25.8005  -45.2343 H         1 UNK         0.3000 
    201 H201       -0.9399  -28.6968  -45.6557 H         1 UNK         0.0600 
    202 H202        0.9382  -27.4641  -44.5748 H         1 UNK         0.0600 
    203 H203        1.1990  -26.5453  -46.0568 H         1 UNK         0.0600 
    204 H204        1.4553  -28.2841  -46.0403 H         1 UNK         0.0600 
    205 H205       -1.0193  -25.7575  -47.6933 H         1 UNK         0.3000 
    206 H206       -0.6138  -27.3774  -50.1579 H         1 UNK         0.0600 
    207 H207        0.7729  -25.3015  -49.7768 H         1 UNK         0.0600 
    208 H208       -0.1828  -25.2559  -51.2479 H         1 UNK         0.0600 
    209 H209       -0.6993  -24.3358  -49.8504 H         1 UNK         0.0600 
    210 H210       -3.1805  -26.6784  -48.2748 H         1 UNK         0.3000 
    211 H211       -5.3883  -26.5007  -48.4505 H         1 UNK         0.0600 
    212 H212       -5.0573  -27.6911  -51.2568 H         1 UNK         0.0600 
    213 H213       -6.5253  -27.6942  -50.2889 H         1 UNK         0.0600 
    214 H214       -5.1300  -28.6193  -49.7595 H         1 UNK         0.0600 
    215 H215       -3.9481  -24.1907  -48.9528 H         1 UNK         0.3000 
    216 H216       -4.1028  -22.0897  -49.5168 H         1 UNK         0.0600 
    217 H217       -6.2323  -21.0186  -50.0659 H         1 UNK         0.0600 
    218 H218       -6.5237  -22.2409  -48.8407 H         1 UNK         0.0600 
    219 H219       -6.9563  -22.5527  -50.5208 H         1 UNK         0.0600 
    220 H220       -3.2745  -24.2227  -51.4918 H         1 UNK         0.3000 
    221 H221       -2.4157  -24.4449  -53.5065 H         1 UNK         0.0600 
    222 H222       -2.3792  -21.3797  -53.6265 H         1 UNK         0.0600 
    223 H223       -1.1583  -22.3772  -52.8388 H         1 UNK         0.0600 
    224 H224       -1.3823  -22.4722  -54.5775 H         1 UNK         0.0600 
    225 H225       -5.3145  -24.3850  -53.2687 H         1 UNK         0.3000 
    226 H226       -7.2320  -24.4018  -54.3563 H         1 UNK         0.0600 
    227 H227       -5.9939  -25.9143  -55.9372 H         1 UNK         0.0600 
    228 H228       -7.2779  -25.0274  -56.7396 H         1 UNK         0.0600 
    229 H229       -5.6066  -24.5261  -56.9531 H         1 UNK         0.0600 
    230 H230       -5.8198  -21.7674  -53.8775 H         1 UNK         0.3000 
    231 H231       -5.9789  -19.6080  -54.1559 H         1 UNK         0.0600 
    232 H232       -8.7245  -20.0827  -55.4302 H         1 UNK         0.0600 
    233 H233       -8.1478  -18.5857  -54.7114 H         1 UNK         0.0600 
    234 H234       -8.4124  -19.9933  -53.6968 H         1 UNK         0.0600 
    235 H235       -4.6618  -21.1570  -56.2565 H         1 UNK         0.3000 
    236 H236       -5.2443  -20.3370  -58.8403 H         1 UNK         0.0600 
    237 H237       -3.8111  -22.2638  -58.3106 H         1 UNK         0.0600 
    238 H238       -2.9271  -21.1641  -59.3551 H         1 UNK         0.0600 
    239 H239       -2.5701  -21.2108  -57.6316 H         1 UNK         0.0600 
    240 H240       -3.4919  -18.4918  -56.4257 H         1 UNK         0.3000 
    241 H241       -2.4382  -16.5519  -58.3371 H         1 UNK         0.0600 
    242 H242       -5.6564  -16.9938  -57.2282 H         1 UNK         0.3800 
    243 H243       -6.1345  -15.3281  -57.4336 H         1 UNK         0.3800 
    244 H244       -1.0739  -16.9671  -56.4188 H         1 UNK         0.0800 
    245 H245       -1.6177  -15.3180  -56.3575 H         1 UNK         0.0800 
    246 H246       -0.3840  -15.9882  -53.8611 H         1 UNK         0.0800 
    247 H247       -0.5027  -17.7193  -54.0854 H         1 UNK         0.0800 
@<TRIPOS>BOND
     1    1    2 1    
     2    1  127 1    
     3    1  128 1    
     4    1  129 1    
     5    2    3 2    
     6    2    4 am   BACKBONE|DICT|INTERRES
     7    4    5 1    
     8    4  130 1    
     9    5    6 1    
    10    5   65 1    
    11    5  131 1    
    12    6    7 1    
    13    6  132 1    
    14    6  133 1    
    15    7    8 1    
    16    8    9 1    
    17    8  134 1    
    18    8  135 1    
    19    9   10 ar   
    20    9   14 ar   
    21   10   11 ar   
    22   10  136 1    
    23   11   12 ar   
    24   11  126 1    
    25   12   13 ar   
    26   12  137 1    
    27   13   14 ar   
    28   13   15 1    
    29   14  138 1    
    30   15   16 1    
    31   15  139 1    
    32   15  140 1    
    33   16   17 1    
    34   17   18 1    
    35   17  141 1    
    36   17  142 1    
    37   18   19 1    
    38   18   67 1    
    39   18  143 1    
    40   19   20 am   BACKBONE|DICT|INTERRES
    41   19  144 1    
    42   20   21 2    
    43   20   22 1    
    44   22   23 1    
    45   22   24 1    
    46   22  145 1    
    47   23  146 1    
    48   23  147 1    
    49   23  148 1    
    50   24   25 am   BACKBONE|DICT|INTERRES
    51   24  149 1    
    52   25   26 2    
    53   25   27 1    
    54   27   28 1    
    55   27   29 1    
    56   27  150 1    
    57   28  151 1    
    58   28  152 1    
    59   28  153 1    
    60   29   30 am   BACKBONE|DICT|INTERRES
    61   29  154 1    
    62   30   31 2    
    63   30   32 1    
    64   32   33 1    
    65   32   34 1    
    66   32  155 1    
    67   33  156 1    
    68   33  157 1    
    69   33  158 1    
    70   34   35 am   BACKBONE|DICT|INTERRES
    71   34  159 1    
    72   35   36 2    
    73   35   37 1    
    74   37   38 1    
    75   37   39 1    
    76   37  160 1    
    77   38  161 1    
    78   38  162 1    
    79   38  163 1    
    80   39   40 am   BACKBONE|DICT|INTERRES
    81   39  164 1    
    82   40   41 2    
    83   40   42 1    
    84   42   43 1    
    85   42   44 1    
    86   42  165 1    
    87   43  166 1    
    88   43  167 1    
    89   43  168 1    
    90   44   45 am   BACKBONE|DICT|INTERRES
    91   44  169 1    
    92   45   46 2    
    93   45   47 1    
    94   47   48 1    
    95   47   49 1    
    96   47  170 1    
    97   48  171 1    
    98   48  172 1    
    99   48  173 1    
   100   49   50 am   BACKBONE|DICT|INTERRES
   101   49  174 1    
   102   50   51 2    
   103   50   52 1    
   104   52   53 1    
   105   52   54 1    
   106   52  175 1    
   107   53  176 1    
   108   53  177 1    
   109   53  178 1    
   110   54   55 am   BACKBONE|DICT|INTERRES
   111   54  179 1    
   112   55   56 2    
   113   55   57 1    
   114   57   58 1    
   115   57   59 1    
   116   57  180 1    
   117   58  181 1    
   118   58  182 1    
   119   58  183 1    
   120   59   60 am   BACKBONE|DICT|INTERRES
   121   59  184 1    
   122   60   61 2    
   123   60   62 1    
   124   62   63 1    
   125   62   64 1    
   126   62  185 1    
   127   63  186 1    
   128   63  187 1    
   129   63  188 1    
   130   64   65 am   BACKBONE|DICT|INTERRES
   131   64  189 1    
   132   65   66 2    
   133   67   68 2    
   134   67   69 am   BACKBONE|DICT|INTERRES
   135   69   70 1    
   136   69  190 1    
   137   70   71 1    
   138   70   72 1    
   139   70  191 1    
   140   71  192 1    
   141   71  193 1    
   142   71  194 1    
   143   72   73 2    
   144   72   74 am   BACKBONE|DICT|INTERRES
   145   74   75 1    
   146   74  195 1    
   147   75   76 1    
   148   75   77 1    
   149   75  196 1    
   150   76  197 1    
   151   76  198 1    
   152   76  199 1    
   153   77   78 2    
   154   77   79 am   BACKBONE|DICT|INTERRES
   155   79   80 1    
   156   79  200 1    
   157   80   81 1    
   158   80   82 1    
   159   80  201 1    
   160   81  202 1    
   161   81  203 1    
   162   81  204 1    
   163   82   83 2    
   164   82   84 am   BACKBONE|DICT|INTERRES
   165   84   85 1    
   166   84  205 1    
   167   85   86 1    
   168   85   87 1    
   169   85  206 1    
   170   86  207 1    
   171   86  208 1    
   172   86  209 1    
   173   87   88 2    
   174   87   89 am   BACKBONE|DICT|INTERRES
   175   89   90 1    
   176   89  210 1    
   177   90   91 1    
   178   90   92 1    
   179   90  211 1    
   180   91  212 1    
   181   91  213 1    
   182   91  214 1    
   183   92   93 2    
   184   92   94 am   BACKBONE|DICT|INTERRES
   185   94   95 1    
   186   94  215 1    
   187   95   96 1    
   188   95   97 1    
   189   95  216 1    
   190   96  217 1    
   191   96  218 1    
   192   96  219 1    
   193   97   98 2    
   194   97   99 am   BACKBONE|DICT|INTERRES
   195   99  100 1    
   196   99  220 1    
   197  100  101 1    
   198  100  102 1    
   199  100  221 1    
   200  101  222 1    
   201  101  223 1    
   202  101  224 1    
   203  102  103 2    
   204  102  104 am   BACKBONE|DICT|INTERRES
   205  104  105 1    
   206  104  225 1    
   207  105  106 1    
   208  105  107 1    
   209  105  226 1    
   210  106  227 1    
   211  106  228 1    
   212  106  229 1    
   213  107  108 2    
   214  107  109 am   BACKBONE|DICT|INTERRES
   215  109  110 1    
   216  109  230 1    
   217  110  111 1    
   218  110  112 1    
   219  110  231 1    
   220  111  232 1    
   221  111  233 1    
   222  111  234 1    
   223  112  113 2    
   224  112  114 am   BACKBONE|DICT|INTERRES
   225  114  115 1    
   226  114  235 1    
   227  115  116 1    
   228  115  117 1    
   229  115  236 1    
   230  116  237 1    
   231  116  238 1    
   232  116  239 1    
   233  117  118 2    
   234  117  119 am   BACKBONE|DICT|INTERRES
   235  119  120 1    
   236  119  240 1    
   237  120  121 1    
   238  120  124 1    
   239  120  241 1    
   240  121  122 am   BACKBONE|DICT|INTERRES
   241  121  123 2    
   242  122  242 1    
   243  122  243 1    
   244  124  125 1    
   245  124  244 1    
   246  124  245 1    
   247  125  126 1    
   248  126  246 1    
   249  126  247 1    
@<TRIPOS>SUBSTRUCTURE
     1 UNK         1 GROUP             0       ****    0 ROOT    
