@<TRIPOS>MOLECULE
3R540
247   249    1
SMALL
USER_CHARGES


@<TRIPOS>ATOM
      1 CA          7.6870  -11.9402  -50.2988 C.3       0 UNK        -0.1800 
      2 C           6.5948  -12.8699  -49.7887 C.2       0 UNK         0.5000 
      3 O           6.8999  -13.9195  -49.2226 O.2       0 UNK        -0.5000 
      4 N           5.3258  -12.4894  -49.9894 N.am      1 UNK        -0.5000 
      5 CA          4.1427  -13.2427  -49.5510 C.3       1 UNK         0.1400 
      6 C6          2.8704  -12.7538  -50.2926 C.3       23 UNK        -0.0398 
      7 S7          1.5619  -14.0206  -50.3619 S.3       23 UNK        -0.2404 
      8 C8          2.0345  -14.9142  -51.8750 C.3       23 UNK        -0.0205 
      9 C9          1.4363  -16.3104  -51.8850 C.ar      23 UNK        -0.0193 
     10 C10         0.3328  -16.6139  -52.6868 C.ar      23 UNK        -0.1150 
     11 C11        -0.2193  -17.8998  -52.6806 C.ar      23 UNK        -0.0193 
     12 C12         0.3417  -18.8834  -51.8567 C.ar      23 UNK        -0.1150 
     13 C13         1.4475  -18.5883  -51.0502 C.ar      23 UNK        -0.0193 
     14 C14         1.9935  -17.3039  -51.0781 C.ar      23 UNK        -0.1150 
     15 C15         2.0722  -19.6471  -50.1528 C.3       23 UNK        -0.0205 
     16 S16         1.7835  -19.3170  -48.3828 S.3       23 UNK        -0.2404 
     17 C17         0.0050  -19.6844  -48.2240 C.3       23 UNK        -0.0398 
     18 CA         -0.2392  -21.1110  -47.6835 C.3       11 UNK         0.1400 
     19 N           0.1306  -21.2505  -46.2727 N.am      11 UNK        -0.5000 
     20 C           0.2177  -22.4229  -45.6302 C.2       10 UNK         0.5000 
     21 O           0.0218  -23.5121  -46.1678 O.2       10 UNK        -0.5000 
     22 CA          0.5138  -22.3724  -44.1224 C.3       10 UNK         0.1400 
     23 CB          1.9993  -22.0837  -43.8608 C.3       10 UNK        -0.1800 
     24 N          -0.3217  -21.3948  -43.4246 N.am      10 UNK        -0.5000 
     25 C          -1.6595  -21.4610  -43.3546 C.2       9 UNK         0.5000 
     26 O          -2.3245  -22.3789  -43.8362 O.2       9 UNK        -0.5000 
     27 CA         -2.3820  -20.2898  -42.6664 C.3       9 UNK         0.1400 
     28 CB         -2.3419  -20.4513  -41.1397 C.3       9 UNK        -0.1800 
     29 N          -1.8389  -18.9832  -43.0408 N.am      9 UNK        -0.5000 
     30 C          -1.8540  -18.4757  -44.2821 C.2       8 UNK         0.5000 
     31 O          -2.3523  -19.0487  -45.2499 O.2       8 UNK        -0.5000 
     32 CA         -1.1425  -17.1267  -44.4931 C.3       8 UNK         0.1400 
     33 CB         -2.0009  -15.9600  -43.9826 C.3       8 UNK        -0.1800 
     34 N           0.1757  -17.0835  -43.8618 N.am      8 UNK        -0.5000 
     35 C           1.1873  -17.9109  -44.1631 C.2       7 UNK         0.5000 
     36 O           1.1287  -18.7821  -45.0303 O.2       7 UNK        -0.5000 
     37 CA          2.4543  -17.7834  -43.3026 C.3       7 UNK         0.1400 
     38 CB          3.3101  -16.5880  -43.7512 C.3       7 UNK        -0.1800 
     39 N           2.1278  -17.6614  -41.8811 N.am      7 UNK        -0.5000 
     40 C           1.5901  -18.6454  -41.1446 C.2       6 UNK         0.5000 
     41 O           1.3510  -19.7726  -41.5765 O.2       6 UNK        -0.5000 
     42 CA          1.2172  -18.2971  -39.6926 C.3       6 UNK         0.1400 
     43 CB          2.4489  -18.3846  -38.7791 C.3       6 UNK        -0.1800 
     44 N           0.6151  -16.9691  -39.5716 N.am      6 UNK        -0.5000 
     45 C          -0.5690  -16.6220  -40.0963 C.2       5 UNK         0.5000 
     46 O          -1.2991  -17.3982  -40.7097 O.2       5 UNK        -0.5000 
     47 CA         -0.9860  -15.1479  -39.9506 C.3       5 UNK         0.1400 
     48 CB         -1.7432  -14.9283  -38.6327 C.3       5 UNK        -0.1800 
     49 N           0.1474  -14.2230  -40.0216 N.am      5 UNK        -0.5000 
     50 C           0.9218  -14.0527  -41.1007 C.2       4 UNK         0.5000 
     51 O           0.7807  -14.6784  -42.1546 O.2       4 UNK        -0.5000 
     52 CA          2.0837  -13.0559  -40.9524 C.3       4 UNK         0.1400 
     53 CB          3.4131  -13.8059  -40.7734 C.3       4 UNK        -0.1800 
     54 N           2.1929  -12.1588  -42.1007 N.am      4 UNK        -0.5000 
     55 C           1.2924  -11.2247  -42.4396 C.2       3 UNK         0.5000 
     56 O           0.2552  -11.0212  -41.8065 O.2       3 UNK        -0.5000 
     57 CA          1.6111  -10.3422  -43.6638 C.3       3 UNK         0.1400 
     58 CB          1.7418   -8.8675  -43.2458 C.3       3 UNK        -0.1800 
     59 N           2.8513  -10.7422  -44.3361 N.am      3 UNK        -0.5000 
     60 C           2.9155  -11.4703  -45.4568 C.2       2 UNK         0.5000 
     61 O           1.9222  -11.8654  -46.0705 O.2       2 UNK        -0.5000 
     62 CA          4.3414  -11.7851  -45.9545 C.3       2 UNK         0.1400 
     63 CB          5.0139  -12.8690  -45.0852 C.3       2 UNK        -0.1800 
     64 N           4.4067  -12.1199  -47.3827 N.am      2 UNK        -0.5000 
     65 C           3.9651  -13.2211  -48.0132 C.2       1 UNK         0.5000 
     66 O           3.4723  -14.1979  -47.4476 O.2       1 UNK        -0.5000 
     67 C          -1.6876  -21.5642  -47.9538 C.2       11 UNK         0.5000 
     68 O          -1.9337  -22.2102  -48.9728 O.2       11 UNK        -0.5000 
     69 N          -2.6233  -21.2505  -47.0477 N.am      12 UNK        -0.5000 
     70 CA         -4.0165  -21.6904  -47.1293 C.3       12 UNK         0.1400 
     71 CB         -4.8465  -21.0274  -46.0208 C.3       12 UNK        -0.1800 
     72 C          -4.1614  -23.2208  -47.0861 C.2       12 UNK         0.5000 
     73 O          -4.9226  -23.7753  -47.8794 O.2       12 UNK        -0.5000 
     74 N          -3.4131  -23.8613  -46.1799 N.am      13 UNK        -0.5000 
     75 CA         -3.4105  -25.3054  -45.9786 C.3       13 UNK         0.1400 
     76 CB         -2.8575  -25.6193  -44.5785 C.3       13 UNK        -0.1800 
     77 C          -2.6248  -26.0643  -47.0625 C.2       13 UNK         0.5000 
     78 O          -3.1891  -26.9442  -47.7137 O.2       13 UNK        -0.5000 
     79 N          -1.3302  -25.7509  -47.2055 N.am      14 UNK        -0.5000 
     80 CA         -0.3830  -26.5546  -47.9793 C.3       14 UNK         0.1400 
     81 CB          1.0191  -26.4295  -47.3619 C.3       14 UNK        -0.1800 
     82 C          -0.3470  -26.1788  -49.4668 C.2       14 UNK         0.5000 
     83 O          -0.2879  -27.0737  -50.3109 O.2       14 UNK        -0.5000 
     84 N          -0.3712  -24.8732  -49.7666 N.am      15 UNK        -0.5000 
     85 CA         -0.2888  -24.3550  -51.1365 C.3       15 UNK         0.1400 
     86 CB          0.4890  -23.0299  -51.1420 C.3       15 UNK        -0.1800 
     87 C          -1.6697  -24.1830  -51.7931 C.2       15 UNK         0.5000 
     88 O          -1.7235  -23.8917  -52.9864 O.2       15 UNK        -0.5000 
     89 N          -2.7473  -24.3618  -51.0143 N.am      16 UNK        -0.5000 
     90 CA         -4.1548  -24.2212  -51.3950 C.3       16 UNK         0.1400 
     91 CB         -4.5410  -25.2350  -52.4939 C.3       16 UNK        -0.1800 
     92 C          -4.5368  -22.7718  -51.7565 C.2       16 UNK         0.5000 
     93 O          -5.3581  -22.5573  -52.6511 O.2       16 UNK        -0.5000 
     94 N          -3.9582  -21.7889  -51.0494 N.am      17 UNK        -0.5000 
     95 CA         -4.2210  -20.3598  -51.2593 C.3       17 UNK         0.1400 
     96 CB         -3.2349  -19.5190  -50.4398 C.3       17 UNK        -0.1800 
     97 C          -5.6703  -19.9362  -50.9574 C.2       17 UNK         0.5000 
     98 O          -6.1613  -18.9928  -51.5750 O.2       17 UNK        -0.5000 
     99 N          -6.3306  -20.6438  -50.0331 N.am      18 UNK        -0.5000 
    100 CA        -7.7332  -20.4208  -49.6840 C.3       18 UNK         0.1400 
    101 CB        -7.9286  -20.7235  -48.1906 C.3       18 UNK        -0.1800 
    102 C         -8.6852  -21.2821  -50.5327 C.2       18 UNK         0.5000 
    103 O         -9.7995  -20.8455  -50.8220 O.2       18 UNK        -0.5000 
    104 N         -8.2448  -22.4957  -50.8909 N.am      19 UNK        -0.5000 
    105 CA        -9.0767  -23.5119  -51.5343 C.3       19 UNK         0.1400 
    106 CB        -8.5810  -24.9023  -51.1073 C.3       19 UNK        -0.1800 
    107 C         -9.1098  -23.4007  -53.0678 C.2       19 UNK         0.5000 
    108 O        -10.1522  -23.6791  -53.6623 O.2       19 UNK        -0.5000 
    109 N         -7.9810  -23.0260  -53.6834 N.am      20 UNK        -0.5000 
    110 CA        -7.7915  -23.0381  -55.1368 C.3       20 UNK         0.1400 
    111 CB        -7.1120  -24.3619  -55.5357 C.3       20 UNK        -0.1800 
    112 C         -6.9967  -21.8191  -55.6382 C.2       20 UNK         0.5000 
    113 O         -6.4972  -21.8478  -56.7653 O.2       20 UNK        -0.5000 
    114 N         -6.8552  -20.7836  -54.7939 N.am      21 UNK        -0.5000 
    115 CA        -6.0945  -19.5475  -55.0378 C.3       21 UNK         0.1400 
    116 CB        -6.8122  -18.6780  -56.0913 C.3       21 UNK        -0.1800 
    117 C         -4.6082  -19.8001  -55.3844 C.2       21 UNK         0.5000 
    118 O         -4.0182  -19.0281  -56.1399 O.2       21 UNK        -0.5000 
    119 N         -4.0651  -20.9060  -54.8533 N.am      22 UNK        -0.5000 
    120 CA        -2.7691  -21.5289  -55.1717 C.3       22 UNK         0.1400 
    121 C         -2.5194  -21.8692  -56.6748 C.2       22 UNK         0.5000 
    122 N         -3.5520  -21.9920  -57.5025 N.am      22 UNK        -0.7600 
    123 O         -1.3834  -22.0729  -57.0951 O.2       22 UNK        -0.5000 
    124 C124       -1.5530  -20.9139  -54.4141 C.3       23 UNK        -0.0398 
    125 S125       -1.0021  -19.2626  -54.9753 S.3       23 UNK        -0.2404 
    126 C126       -1.4297  -18.2076  -53.5541 C.3       23 UNK        -0.0205 
    127 H127        8.3151  -12.4606  -51.0219 H         1 UNK         0.0600 
    128 H128        8.3171  -11.6128  -49.4718 H         1 UNK         0.0600 
    129 H129        7.2737  -11.0549  -50.7826 H         1 UNK         0.0600 
    130 H130        5.1443  -11.6193  -50.4701 H         1 UNK         0.3000 
    131 H131        4.3177  -14.2836  -49.8329 H         1 UNK         0.0600 
    132 H132        3.1116  -12.4733  -51.3191 H         1 UNK         0.0800 
    133 H133        2.4663  -11.8517  -49.8295 H         1 UNK         0.0800 
    134 H134        1.7128  -14.3448  -52.7484 H         1 UNK         0.0800 
    135 H135        3.1208  -14.9932  -51.9389 H         1 UNK         0.0800 
    136 H136       -0.0988  -15.8459  -53.3134 H         1 UNK         0.1150 
    137 H137       -0.0796  -19.8782  -51.8481 H         1 UNK         0.1150 
    138 H138        2.8447  -17.0711  -50.4532 H         1 UNK         0.1150 
    139 H139        1.7027  -20.6396  -50.4038 H         1 UNK         0.0800 
    140 H140        3.1480  -19.6719  -50.3318 H         1 UNK         0.0800 
    141 H141       -0.4631  -19.5437  -49.1970 H         1 UNK         0.0800 
    142 H142       -0.4473  -18.9423  -47.5636 H         1 UNK         0.0800 
    143 H143        0.3993  -21.7935  -48.2483 H         1 UNK         0.0600 
    144 H144        0.3444  -20.3921  -45.7707 H         1 UNK         0.3000 
    145 H145        0.2852  -23.3570  -43.7091 H         1 UNK         0.0600 
    146 H146        2.2294  -22.1415  -42.7969 H         1 UNK         0.0600 
    147 H147        2.6336  -22.8101  -44.3704 H         1 UNK         0.0600 
    148 H148        2.2876  -21.0928  -44.2114 H         1 UNK         0.0600 
    149 H149        0.1607  -20.6277  -42.9674 H         1 UNK         0.3000 
    150 H150       -3.4271  -20.3150  -42.9805 H         1 UNK         0.0600 
    151 H151       -2.7460  -21.4182  -40.8374 H         1 UNK         0.0600 
    152 H152       -2.9371  -19.6823  -40.6470 H         1 UNK         0.0600 
    153 H153       -1.3240  -20.3841  -40.7544 H         1 UNK         0.0600 
    154 H154       -1.4467  -18.4254  -42.2864 H         1 UNK         0.3000 
    155 H155       -0.9955  -16.9942  -45.5670 H         1 UNK         0.0600 
    156 H156       -2.9688  -15.9405  -44.4849 H         1 UNK         0.0600 
    157 H157       -1.5160  -15.0017  -44.1704 H         1 UNK         0.0600 
    158 H158       -2.1891  -16.0348  -42.9120 H         1 UNK         0.0600 
    159 H159        0.3222  -16.3720  -43.1526 H         1 UNK         0.3000 
    160 H160        3.0448  -18.6919  -43.4384 H         1 UNK         0.0600 
    161 H161        2.7741  -15.6435  -43.6564 H         1 UNK         0.0600 
    162 H162        3.6002  -16.6908  -44.7977 H         1 UNK         0.0600 
    163 H163        4.2268  -16.5157  -43.1659 H         1 UNK         0.0600 
    164 H164        2.2422  -16.7501  -41.4646 H         1 UNK         0.3000 
    165 H165        0.4857  -19.0328  -39.3513 H         1 UNK         0.0600 
    166 H166        2.1788  -18.2170  -37.7363 H         1 UNK         0.0600 
    167 H167        2.9094  -19.3717  -38.8396 H         1 UNK         0.0600 
    168 H168        3.2082  -17.6506  -39.0519 H         1 UNK         0.0600 
    169 H169        1.1470  -16.2676  -39.0785 H         1 UNK         0.3000 
    170 H170       -1.6618  -14.9121  -40.7750 H         1 UNK         0.0600 
    171 H171       -2.6059  -15.5923  -38.5635 H         1 UNK         0.0600 
    172 H172       -1.1100  -15.1213  -37.7658 H         1 UNK         0.0600 
    173 H173       -2.1151  -13.9063  -38.5570 H         1 UNK         0.0600 
    174 H174        0.3302  -13.6732  -39.1944 H         1 UNK         0.3000 
    175 H175        1.9135  -12.4432  -40.0645 H         1 UNK         0.0600 
    176 H176        3.6643  -14.3989  -41.6531 H         1 UNK         0.0600 
    177 H177        4.2348  -13.1126  -40.5930 H         1 UNK         0.0600 
    178 H178        3.3699  -14.4844  -39.9204 H         1 UNK         0.0600 
    179 H179        2.9931  -12.2872  -42.6996 H         1 UNK         0.3000 
    180 H180        0.7638  -10.4237  -44.3478 H         1 UNK         0.0600 
    181 H181        2.5543   -8.7207  -42.5331 H         1 UNK         0.0600 
    182 H182        0.8246   -8.5085  -42.7768 H         1 UNK         0.0600 
    183 H183        1.9327   -8.2294  -44.1088 H         1 UNK         0.0600 
    184 H184        3.7098  -10.4353  -43.9002 H         1 UNK         0.3000 
    185 H185        4.9249  -10.8690  -45.8497 H         1 UNK         0.0600 
    186 H186        5.1431  -12.5246  -44.0588 H         1 UNK         0.0600 
    187 H187        4.4247  -13.7856  -45.0444 H         1 UNK         0.0600 
    188 H188        6.0031  -13.1231  -45.4663 H         1 UNK         0.0600 
    189 H189        4.7946  -11.3932  -47.9670 H         1 UNK         0.3000 
    190 H190       -2.3786  -20.6537  -46.2615 H         1 UNK         0.3000 
    191 H191       -4.4142  -21.3543  -48.0864 H         1 UNK         0.0600 
    192 H192       -4.8608  -19.9434  -46.1353 H         1 UNK         0.0600 
    193 H193       -5.8807  -21.3718  -46.0439 H         1 UNK         0.0600 
    194 H194       -4.4522  -21.2542  -45.0311 H         1 UNK         0.0600 
    195 H195       -2.8397  -23.3127  -45.5460 H         1 UNK         0.3000 
    196 H196       -4.4439  -25.6577  -46.0115 H         1 UNK         0.0600 
    197 H197       -2.8332  -26.6946  -44.3977 H         1 UNK         0.0600 
    198 H198       -3.4796  -25.1726  -43.8026 H         1 UNK         0.0600 
    199 H199       -1.8433  -25.2391  -44.4481 H         1 UNK         0.0600 
    200 H200       -0.9371  -24.9716  -46.6803 H         1 UNK         0.3000 
    201 H201       -0.6743  -27.6053  -47.9107 H         1 UNK         0.0600 
    202 H202        1.0138  -26.7137  -46.3095 H         1 UNK         0.0600 
    203 H203        1.4052  -25.4122  -47.4323 H         1 UNK         0.0600 
    204 H204        1.7282  -27.0828  -47.8719 H         1 UNK         0.0600 
    205 H205       -0.4629  -24.1951  -49.0227 H         1 UNK         0.3000 
    206 H206        0.2723  -25.0585  -51.7551 H         1 UNK         0.0600 
    207 H207        1.4445  -23.1294  -50.6269 H         1 UNK         0.0600 
    208 H208        0.7029  -22.7117  -52.1631 H         1 UNK         0.0600 
    209 H209       -0.0708  -22.2254  -50.6697 H         1 UNK         0.0600 
    210 H210       -2.5757  -24.5583  -50.0384 H         1 UNK         0.3000 
    211 H211       -4.7347  -24.4712  -50.5062 H         1 UNK         0.0600 
    212 H212       -4.0517  -25.0152  -53.4430 H         1 UNK         0.0600 
    213 H213       -5.6144  -25.2263  -52.6806 H         1 UNK         0.0600 
    214 H214       -4.2717  -26.2507  -52.2047 H         1 UNK         0.0600 
    215 H215       -3.2647  -22.0328  -50.3463 H         1 UNK         0.3000 
    216 H216       -4.0378  -20.1436  -52.3105 H         1 UNK         0.0600 
    217 H217       -3.3296  -18.4599  -50.6826 H         1 UNK         0.0600 
    218 H218       -2.2089  -19.8109  -50.6549 H         1 UNK         0.0600 
    219 H219       -3.4032  -19.6193  -49.3686 H         1 UNK         0.0600 
    220 H220       -5.8546  -21.4049  -49.5743 H         1 UNK         0.3000 
    221 H221       -7.9967  -19.3735  -49.8482 H         1 UNK         0.0600 
    222 H222       -7.6505  -21.7492  -47.9444 H         1 UNK         0.0600 
    223 H223       -7.3284  -20.0533  -47.5754 H         1 UNK         0.0600 
    224 H224       -8.9698  -20.5853  -47.8961 H         1 UNK         0.0600 
    225 H225       -7.3110  -22.7708  -50.6325 H         1 UNK         0.3000 
    226 H226      -10.1042  -23.4083  -51.1781 H         1 UNK         0.0600 
    227 H227       -8.6567  -25.0316  -50.0275 H         1 UNK         0.0600 
    228 H228       -9.1769  -25.6901  -51.5701 H         1 UNK         0.0600 
    229 H229       -7.5422  -25.0669  -51.3908 H         1 UNK         0.0600 
    230 H230       -7.1462  -22.8332  -53.1351 H         1 UNK         0.3000 
    231 H231       -8.7583  -22.9837  -55.6409 H         1 UNK         0.0600 
    232 H232       -7.6888  -25.2215  -55.1943 H         1 UNK         0.0600 
    233 H233       -6.1111  -24.4388  -55.1093 H         1 UNK         0.0600 
    234 H234       -7.0166  -24.4484  -56.6186 H         1 UNK         0.0600 
    235 H235       -7.2938  -20.8565  -53.8872 H         1 UNK         0.3000 
    236 H236       -6.0949  -18.9870  -54.1051 H         1 UNK         0.0600 
    237 H237       -6.3392  -17.6994  -56.1807 H         1 UNK         0.0600 
    238 H238       -6.7950  -19.1410  -57.0784 H         1 UNK         0.0600 
    239 H239       -7.8537  -18.5083  -55.8184 H         1 UNK         0.0600 
    240 H240       -4.6608  -21.4654  -54.2527 H         1 UNK         0.3000 
    241 H241       -2.8898  -22.5236  -54.7464 H         1 UNK         0.0600 
    242 H242       -3.3841  -22.2256  -58.4680 H         1 UNK         0.3800 
    243 H243       -4.5041  -21.8517  -57.1813 H         1 UNK         0.3800 
    244 H244       -0.6976  -21.5855  -54.5014 H         1 UNK         0.0800 
    245 H245       -1.7729  -20.8881  -53.3469 H         1 UNK         0.0800 
    246 H246       -2.2173  -18.6652  -52.9586 H         1 UNK         0.0800 
    247 H247       -1.8583  -17.2821  -53.9417 H         1 UNK         0.0800 
@<TRIPOS>BOND
     1    1    2 1    
     2    1  127 1    
     3    1  128 1    
     4    1  129 1    
     5    2    3 2    
     6    2    4 am   BACKBONE|DICT|INTERRES
     7    4    5 1    
     8    4  130 1    
     9    5    6 1    
    10    5   65 1    
    11    5  131 1    
    12    6    7 1    
    13    6  132 1    
    14    6  133 1    
    15    7    8 1    
    16    8    9 1    
    17    8  134 1    
    18    8  135 1    
    19    9   10 ar   
    20    9   14 ar   
    21   10   11 ar   
    22   10  136 1    
    23   11   12 ar   
    24   11  126 1    
    25   12   13 ar   
    26   12  137 1    
    27   13   14 ar   
    28   13   15 1    
    29   14  138 1    
    30   15   16 1    
    31   15  139 1    
    32   15  140 1    
    33   16   17 1    
    34   17   18 1    
    35   17  141 1    
    36   17  142 1    
    37   18   19 1    
    38   18   67 1    
    39   18  143 1    
    40   19   20 am   BACKBONE|DICT|INTERRES
    41   19  144 1    
    42   20   21 2    
    43   20   22 1    
    44   22   23 1    
    45   22   24 1    
    46   22  145 1    
    47   23  146 1    
    48   23  147 1    
    49   23  148 1    
    50   24   25 am   BACKBONE|DICT|INTERRES
    51   24  149 1    
    52   25   26 2    
    53   25   27 1    
    54   27   28 1    
    55   27   29 1    
    56   27  150 1    
    57   28  151 1    
    58   28  152 1    
    59   28  153 1    
    60   29   30 am   BACKBONE|DICT|INTERRES
    61   29  154 1    
    62   30   31 2    
    63   30   32 1    
    64   32   33 1    
    65   32   34 1    
    66   32  155 1    
    67   33  156 1    
    68   33  157 1    
    69   33  158 1    
    70   34   35 am   BACKBONE|DICT|INTERRES
    71   34  159 1    
    72   35   36 2    
    73   35   37 1    
    74   37   38 1    
    75   37   39 1    
    76   37  160 1    
    77   38  161 1    
    78   38  162 1    
    79   38  163 1    
    80   39   40 am   BACKBONE|DICT|INTERRES
    81   39  164 1    
    82   40   41 2    
    83   40   42 1    
    84   42   43 1    
    85   42   44 1    
    86   42  165 1    
    87   43  166 1    
    88   43  167 1    
    89   43  168 1    
    90   44   45 am   BACKBONE|DICT|INTERRES
    91   44  169 1    
    92   45   46 2    
    93   45   47 1    
    94   47   48 1    
    95   47   49 1    
    96   47  170 1    
    97   48  171 1    
    98   48  172 1    
    99   48  173 1    
   100   49   50 am   BACKBONE|DICT|INTERRES
   101   49  174 1    
   102   50   51 2    
   103   50   52 1    
   104   52   53 1    
   105   52   54 1    
   106   52  175 1    
   107   53  176 1    
   108   53  177 1    
   109   53  178 1    
   110   54   55 am   BACKBONE|DICT|INTERRES
   111   54  179 1    
   112   55   56 2    
   113   55   57 1    
   114   57   58 1    
   115   57   59 1    
   116   57  180 1    
   117   58  181 1    
   118   58  182 1    
   119   58  183 1    
   120   59   60 am   BACKBONE|DICT|INTERRES
   121   59  184 1    
   122   60   61 2    
   123   60   62 1    
   124   62   63 1    
   125   62   64 1    
   126   62  185 1    
   127   63  186 1    
   128   63  187 1    
   129   63  188 1    
   130   64   65 am   BACKBONE|DICT|INTERRES
   131   64  189 1    
   132   65   66 2    
   133   67   68 2    
   134   67   69 am   BACKBONE|DICT|INTERRES
   135   69   70 1    
   136   69  190 1    
   137   70   71 1    
   138   70   72 1    
   139   70  191 1    
   140   71  192 1    
   141   71  193 1    
   142   71  194 1    
   143   72   73 2    
   144   72   74 am   BACKBONE|DICT|INTERRES
   145   74   75 1    
   146   74  195 1    
   147   75   76 1    
   148   75   77 1    
   149   75  196 1    
   150   76  197 1    
   151   76  198 1    
   152   76  199 1    
   153   77   78 2    
   154   77   79 am   BACKBONE|DICT|INTERRES
   155   79   80 1    
   156   79  200 1    
   157   80   81 1    
   158   80   82 1    
   159   80  201 1    
   160   81  202 1    
   161   81  203 1    
   162   81  204 1    
   163   82   83 2    
   164   82   84 am   BACKBONE|DICT|INTERRES
   165   84   85 1    
   166   84  205 1    
   167   85   86 1    
   168   85   87 1    
   169   85  206 1    
   170   86  207 1    
   171   86  208 1    
   172   86  209 1    
   173   87   88 2    
   174   87   89 am   BACKBONE|DICT|INTERRES
   175   89   90 1    
   176   89  210 1    
   177   90   91 1    
   178   90   92 1    
   179   90  211 1    
   180   91  212 1    
   181   91  213 1    
   182   91  214 1    
   183   92   93 2    
   184   92   94 am   BACKBONE|DICT|INTERRES
   185   94   95 1    
   186   94  215 1    
   187   95   96 1    
   188   95   97 1    
   189   95  216 1    
   190   96  217 1    
   191   96  218 1    
   192   96  219 1    
   193   97   98 2    
   194   97   99 am   BACKBONE|DICT|INTERRES
   195   99  100 1    
   196   99  220 1    
   197  100  101 1    
   198  100  102 1    
   199  100  221 1    
   200  101  222 1    
   201  101  223 1    
   202  101  224 1    
   203  102  103 2    
   204  102  104 am   BACKBONE|DICT|INTERRES
   205  104  105 1    
   206  104  225 1    
   207  105  106 1    
   208  105  107 1    
   209  105  226 1    
   210  106  227 1    
   211  106  228 1    
   212  106  229 1    
   213  107  108 2    
   214  107  109 am   BACKBONE|DICT|INTERRES
   215  109  110 1    
   216  109  230 1    
   217  110  111 1    
   218  110  112 1    
   219  110  231 1    
   220  111  232 1    
   221  111  233 1    
   222  111  234 1    
   223  112  113 2    
   224  112  114 am   BACKBONE|DICT|INTERRES
   225  114  115 1    
   226  114  235 1    
   227  115  116 1    
   228  115  117 1    
   229  115  236 1    
   230  116  237 1    
   231  116  238 1    
   232  116  239 1    
   233  117  118 2    
   234  117  119 am   BACKBONE|DICT|INTERRES
   235  119  120 1    
   236  119  240 1    
   237  120  121 1    
   238  120  124 1    
   239  120  241 1    
   240  121  122 am   BACKBONE|DICT|INTERRES
   241  121  123 2    
   242  122  242 1    
   243  122  243 1    
   244  124  125 1    
   245  124  244 1    
   246  124  245 1    
   247  125  126 1    
   248  126  246 1    
   249  126  247 1    
@<TRIPOS>SUBSTRUCTURE
     1 UNK         1 GROUP             0       ****    0 ROOT    
