@<TRIPOS>MOLECULE
3R540
247   249    1
SMALL
USER_CHARGES


@<TRIPOS>ATOM
      1 CA          0.2538  -14.5908  -53.3790 C.3       0 UNK        -0.1800 
      2 C           0.2257  -13.9792  -51.9864 C.2       0 UNK         0.5000 
      3 O           0.1872  -12.7552  -51.8600 O.2       0 UNK        -0.5000 
      4 N           0.2621  -14.8225  -50.9451 N.am      1 UNK        -0.5000 
      5 CA          0.2832  -14.3996  -49.5358 C.3       1 UNK         0.1400 
      6 C6          0.6877  -15.5344  -48.5664 C.3       23 UNK        -0.0398 
      7 S7          2.3464  -16.2011  -48.9307 S.3       23 UNK        -0.2404 
      8 C8          1.8986  -17.8205  -49.6122 C.3       23 UNK        -0.0205 
      9 C9          3.1130  -18.5656  -50.1431 C.ar      23 UNK        -0.0193 
     10 C10         3.4865  -18.4362  -51.4847 C.ar      23 UNK        -0.1150 
     11 C11         4.5837  -19.1432  -51.9833 C.ar      23 UNK        -0.0193 
     12 C12         5.3078  -19.9774  -51.1281 C.ar      23 UNK        -0.1150 
     13 C13         4.9597  -20.1097  -49.7811 C.ar      23 UNK        -0.0193 
     14 C14         3.8532  -19.3971  -49.2960 C.ar      23 UNK        -0.1150 
     15 C15         5.8438  -20.9977  -48.9015 C.3       23 UNK        -0.0205 
     16 S16         5.1919  -21.4003  -47.2462 S.3       23 UNK        -0.2404 
     17 C17         3.8913  -22.6206  -47.6383 C.3       23 UNK        -0.0398 
     18 CA          3.7822  -23.7001  -46.5320 C.3       11 UNK         0.1400 
     19 N           3.3174  -23.1235  -45.2638 N.am      11 UNK        -0.5000 
     20 C           3.5503  -23.6254  -44.0447 C.2       10 UNK         0.5000 
     21 O           4.2277  -24.6325  -43.8377 O.2       10 UNK        -0.5000 
     22 CA          2.8698  -22.9085  -42.8615 C.3       10 UNK         0.1400 
     23 CB          3.7270  -21.7312  -42.3732 C.3       10 UNK        -0.1800 
     24 N           1.5158  -22.4371  -43.1724 N.am      10 UNK        -0.5000 
     25 C           0.4824  -23.2365  -43.4767 C.2       9 UNK         0.5000 
     26 O           0.5571  -24.4648  -43.5090 O.2       9 UNK        -0.5000 
     27 CA         -0.8416  -22.5569  -43.8741 C.3       9 UNK         0.1400 
     28 CB         -1.6097  -22.0530  -42.6444 C.3       9 UNK        -0.1800 
     29 N          -0.6492  -21.4620  -44.8235 N.am      9 UNK        -0.5000 
     30 C          -0.1551  -21.6112  -46.0601 C.2       8 UNK         0.5000 
     31 O           0.1109  -22.7045  -46.5585 O.2       8 UNK        -0.5000 
     32 CA          0.1441  -20.3272  -46.8526 C.3       8 UNK         0.1400 
     33 CB         -1.1108  -19.8134  -47.5638 C.3       8 UNK        -0.1800 
     34 N           0.7019  -19.2673  -46.0113 N.am      8 UNK        -0.5000 
     35 C           1.8887  -19.3515  -45.3945 C.2       7 UNK         0.5000 
     36 O           2.6433  -20.3139  -45.5056 O.2       7 UNK        -0.5000 
     37 CA          2.2613  -18.2056  -44.4416 C.3       7 UNK         0.1400 
     38 CB          2.8046  -16.9979  -45.2184 C.3       7 UNK        -0.1800 
     39 N           1.1209  -17.8053  -43.6172 N.am      7 UNK        -0.5000 
     40 C           0.6167  -18.5625  -42.6298 C.2       6 UNK         0.5000 
     41 O           1.0975  -19.6437  -42.2916 O.2       6 UNK        -0.5000 
     42 CA         -0.6586  -18.0573  -41.9262 C.3       6 UNK         0.1400 
     43 CB         -0.2944  -17.1836  -40.7171 C.3       6 UNK        -0.1800 
     44 N          -1.5475  -17.3055  -42.8112 N.am      6 UNK        -0.5000 
     45 C          -2.1363  -17.7975  -43.9099 C.2       5 UNK         0.5000 
     46 O          -2.0610  -18.9774  -44.2513 O.2       5 UNK        -0.5000 
     47 CA         -2.8907  -16.7956  -44.8057 C.3       5 UNK         0.1400 
     48 CB         -4.3997  -16.8653  -44.5346 C.3       5 UNK        -0.1800 
     49 N          -2.4447  -15.4047  -44.6690 N.am      5 UNK        -0.5000 
     50 C          -1.2091  -14.9523  -44.9223 C.2       4 UNK         0.5000 
     51 O          -0.2756  -15.6925  -45.2335 O.2       4 UNK        -0.5000 
     52 CA         -0.9942  -13.4291  -44.8059 C.3       4 UNK         0.1400 
     53 CB          0.4255  -12.9915  -45.2086 C.3       4 UNK        -0.1800 
     54 N          -1.9669  -12.7036  -45.6224 N.am      4 UNK        -0.5000 
     55 C          -3.2056  -12.3705  -45.2338 C.2       3 UNK         0.5000 
     56 O          -3.6415  -12.5850  -44.1022 O.2       3 UNK        -0.5000 
     57 CA         -4.1311  -11.7500  -46.2985 C.3       3 UNK         0.1400 
     58 CB         -4.0204  -10.2182  -46.2845 C.3       3 UNK        -0.1800 
     59 N          -3.8551  -12.2396  -47.6503 N.am      3 UNK        -0.5000 
     60 C          -4.0023  -13.5098  -48.0523 C.2       2 UNK         0.5000 
     61 O          -4.4631  -14.3997  -47.3395 O.2       2 UNK        -0.5000 
     62 CA         -3.5480  -13.8499  -49.4846 C.3       2 UNK         0.1400 
     63 CB         -3.7378  -12.6853  -50.4793 C.3       2 UNK        -0.1800 
     64 N          -2.1702  -14.3461  -49.5483 N.am      2 UNK        -0.5000 
     65 C          -1.0502  -13.7474  -49.1137 C.2       1 UNK         0.5000 
     66 O          -1.0299  -12.7059  -48.4559 O.2       1 UNK        -0.5000 
     67 C           2.9298  -24.9069  -46.9966 C.2       11 UNK         0.5000 
     68 O           3.2382  -25.4861  -48.0389 O.2       11 UNK        -0.5000 
     69 N           1.8929  -25.2761  -46.2276 N.am      12 UNK        -0.5000 
     70 CA          0.9774  -26.4049  -46.4310 C.3       12 UNK         0.1400 
     71 CB          1.7326  -27.7499  -46.3877 C.3       12 UNK        -0.1800 
     72 C           0.0644  -26.2673  -47.6685 C.2       12 UNK         0.5000 
     73 O          -0.4632  -27.2692  -48.1545 O.2       12 UNK        -0.5000 
     74 N          -0.1453  -25.0289  -48.1320 N.am      13 UNK        -0.5000 
     75 CA         -1.1302  -24.6765  -49.1556 C.3       13 UNK         0.1400 
     76 CB         -0.6674  -23.4030  -49.8766 C.3       13 UNK        -0.1800 
     77 C          -2.5367  -24.4808  -48.5548 C.2       13 UNK         0.5000 
     78 O          -3.5179  -24.6023  -49.2869 O.2       13 UNK        -0.5000 
     79 N          -2.5905  -24.2178  -47.2388 N.am      14 UNK        -0.5000 
     80 CA         -3.7603  -23.9505  -46.3948 C.3       14 UNK         0.1400 
     81 CB         -4.8567  -25.0234  -46.5652 C.3       14 UNK        -0.1800 
     82 C          -4.3182  -22.5247  -46.5655 C.2       14 UNK         0.5000 
     83 O          -3.9770  -21.8167  -47.5131 O.2       14 UNK        -0.5000 
     84 N          -5.1597  -22.1281  -45.6056 N.am      15 UNK        -0.5000 
     85 CA         -5.8861  -20.8599  -45.5867 C.3       15 UNK         0.1400 
     86 CB         -6.0219  -20.4162  -44.1190 C.3       15 UNK        -0.1800 
     87 C          -7.2695  -21.0038  -46.2572 C.2       15 UNK         0.5000 
     88 O          -7.6428  -22.1079  -46.6587 O.2       15 UNK        -0.5000 
     89 N          -8.0096  -19.8846  -46.3255 N.am      16 UNK        -0.5000 
     90 CA         -9.3781  -19.7336  -46.8413 C.3       16 UNK         0.1400 
     91 CB        -10.3801  -20.5852  -46.0343 C.3       16 UNK        -0.1800 
     92 C          -9.4650  -20.0037  -48.3555 C.2       16 UNK         0.5000 
     93 O          -9.6440  -21.1476  -48.7755 O.2       16 UNK        -0.5000 
     94 N          -9.2866  -18.9383  -49.1512 N.am      17 UNK        -0.5000 
     95 CA         -9.2657  -18.8767  -50.6246 C.3       17 UNK         0.1400 
     96 CB        -10.5628  -19.4273  -51.2478 C.3       17 UNK        -0.1800 
     97 C          -8.0166  -19.5207  -51.2582 C.2       17 UNK         0.5000 
     98 O          -7.4474  -18.9535  -52.1908 O.2       17 UNK        -0.5000 
     99 N          -7.5617  -20.6456  -50.6936 N.am      18 UNK        -0.5000 
    100 CA        -6.2827  -21.2968  -50.9863 C.3       18 UNK         0.1400 
    101 CB        -6.2945  -22.6982  -50.3600 C.3       18 UNK        -0.1800 
    102 C         -5.0647  -20.4911  -50.4845 C.2       18 UNK         0.5000 
    103 O         -3.9419  -20.7700  -50.9045 O.2       18 UNK        -0.5000 
    104 N         -5.3193  -19.4868  -49.6303 N.am      19 UNK        -0.5000 
    105 CA        -4.3598  -18.6019  -48.9655 C.3       19 UNK         0.1400 
    106 CB        -5.1419  -17.6310  -48.0710 C.3       19 UNK        -0.1800 
    107 C         -3.4192  -17.8102  -49.8959 C.2       19 UNK         0.5000 
    108 O         -2.4071  -17.2863  -49.4309 O.2       19 UNK        -0.5000 
    109 N         -3.7522  -17.7191  -51.1889 N.am      20 UNK        -0.5000 
    110 CA        -2.8636  -17.1863  -52.2187 C.3       20 UNK         0.1400 
    111 CB        -3.6547  -16.9869  -53.5187 C.3       20 UNK        -0.1800 
    112 C         -1.6356  -18.0846  -52.4659 C.2       20 UNK         0.5000 
    113 O         -0.5715  -17.5552  -52.7855 O.2       20 UNK        -0.5000 
    114 N         -1.8010  -19.4089  -52.3139 N.am      21 UNK        -0.5000 
    115 CA        -0.8290  -20.4742  -52.5805 C.3       21 UNK         0.1400 
    116 CB         0.2709  -20.4836  -51.5014 C.3       21 UNK        -0.1800 
    117 C         -0.2790  -20.3964  -54.0201 C.2       21 UNK         0.5000 
    118 O         -0.9273  -20.8954  -54.9410 O.2       21 UNK        -0.5000 
    119 N          0.8778  -19.7440  -54.1882 N.am      22 UNK        -0.5000 
    120 CA         1.4672  -19.3756  -55.4839 C.3       22 UNK         0.1400 
    121 C          0.6329  -18.3370  -56.2909 C.2       22 UNK         0.5000 
    122 N         -0.1911  -17.5133  -55.6541 N.am      22 UNK        -0.7600 
    123 O          0.7411  -18.2775  -57.5126 O.2       22 UNK        -0.5000 
    124 C124        2.9162  -18.8528  -55.3240 C.3       23 UNK        -0.0398 
    125 S125        4.0466  -20.0590  -54.5490 S.3       23 UNK        -0.2404 
    126 C126        5.0161  -18.9930  -53.4342 C.3       23 UNK        -0.0205 
    127 H127        0.9123  -15.4589  -53.4119 H         1 UNK         0.0600 
    128 H128        0.6204  -13.8685  -54.1085 H         1 UNK         0.0600 
    129 H129       -0.7480  -14.8987  -53.6777 H         1 UNK         0.0600 
    130 H130        0.2960  -15.8169  -51.1193 H         1 UNK         0.3000 
    131 H131        1.0460  -13.6221  -49.4502 H         1 UNK         0.0600 
    132 H132        0.7193  -15.1570  -47.5456 H         1 UNK         0.0800 
    133 H133       -0.0510  -16.3374  -48.5671 H         1 UNK         0.0800 
    134 H134        1.4080  -18.4132  -48.8403 H         1 UNK         0.0800 
    135 H135        1.1660  -17.6760  -50.4062 H         1 UNK         0.0800 
    136 H136        2.9235  -17.7855  -52.1391 H         1 UNK         0.1150 
    137 H137        6.1629  -20.5170  -51.5114 H         1 UNK         0.1150 
    138 H138        3.5630  -19.4720  -48.2580 H         1 UNK         0.1150 
    139 H139        6.0700  -21.9272  -49.4262 H         1 UNK         0.0800 
    140 H140        6.7977  -20.4866  -48.7657 H         1 UNK         0.0800 
    141 H141        2.9412  -22.1001  -47.7681 H         1 UNK         0.0800 
    142 H142        4.1267  -23.0742  -48.6025 H         1 UNK         0.0800 
    143 H143        4.7846  -24.1015  -46.3685 H         1 UNK         0.0600 
    144 H144        2.8274  -22.2355  -45.3342 H         1 UNK         0.3000 
    145 H145        2.7887  -23.6281  -42.0442 H         1 UNK         0.0600 
    146 H146        3.2930  -21.2687  -41.4866 H         1 UNK         0.0600 
    147 H147        3.8265  -20.9606  -43.1377 H         1 UNK         0.0600 
    148 H148        4.7318  -22.0627  -42.1086 H         1 UNK         0.0600 
    149 H149        1.3662  -21.4337  -43.1303 H         1 UNK         0.3000 
    150 H150       -1.4564  -23.3121  -44.3638 H         1 UNK         0.0600 
    151 H151       -1.8240  -22.8721  -41.9571 H         1 UNK         0.0600 
    152 H152       -2.5634  -21.6082  -42.9302 H         1 UNK         0.0600 
    153 H153       -1.0427  -21.3039  -42.0932 H         1 UNK         0.0600 
    154 H154       -0.9145  -20.5313  -44.5147 H         1 UNK         0.3000 
    155 H155        0.8851  -20.5775  -47.6146 H         1 UNK         0.0600 
    156 H156       -1.5369  -20.5773  -48.2154 H         1 UNK         0.0600 
    157 H157       -0.8777  -18.9507  -48.1852 H         1 UNK         0.0600 
    158 H158       -1.8851  -19.5208  -46.8551 H         1 UNK         0.0600 
    159 H159        0.1205  -18.4606  -45.8362 H         1 UNK         0.3000 
    160 H160        3.0540  -18.5628  -43.7807 H         1 UNK         0.0600 
    161 H161        2.0694  -16.6033  -45.9184 H         1 UNK         0.0600 
    162 H162        3.6872  -17.2735  -45.7971 H         1 UNK         0.0600 
    163 H163        3.0931  -16.1908  -44.5451 H         1 UNK         0.0600 
    164 H164        0.6398  -16.9561  -43.8926 H         1 UNK         0.3000 
    165 H165       -1.2073  -18.9294  -41.5658 H         1 UNK         0.0600 
    166 H166       -1.1846  -16.8849  -40.1632 H         1 UNK         0.0600 
    167 H167        0.3510  -17.7258  -40.0246 H         1 UNK         0.0600 
    168 H168        0.2344  -16.2785  -41.0187 H         1 UNK         0.0600 
    169 H169       -1.6671  -16.3244  -42.6084 H         1 UNK         0.3000 
    170 H170       -2.7112  -17.0926  -45.8408 H         1 UNK         0.0600 
    171 H171       -4.6365  -16.6040  -43.5025 H         1 UNK         0.0600 
    172 H172       -4.9520  -16.1884  -45.1868 H         1 UNK         0.0600 
    173 H173       -4.7777  -17.8704  -44.7175 H         1 UNK         0.0600 
    174 H174       -3.1525  -14.7242  -44.4221 H         1 UNK         0.3000 
    175 H175       -1.1312  -13.1664  -43.7550 H         1 UNK         0.0600 
    176 H176        0.6308  -13.1949  -46.2591 H         1 UNK         0.0600 
    177 H177        0.5662  -11.9231  -45.0450 H         1 UNK         0.0600 
    178 H178        1.1809  -13.5113  -44.6178 H         1 UNK         0.0600 
    179 H179       -1.7077  -12.5477  -46.5925 H         1 UNK         0.3000 
    180 H180       -5.1574  -12.0232  -46.0448 H         1 UNK         0.0600 
    181 H181       -4.7253   -9.7651  -46.9817 H         1 UNK         0.0600 
    182 H182       -3.0177   -9.8848  -46.5551 H         1 UNK         0.0600 
    183 H183       -4.2430   -9.8198  -45.2937 H         1 UNK         0.0600 
    184 H184       -3.4264  -11.5859  -48.2894 H         1 UNK         0.3000 
    185 H185       -4.1851  -14.6701  -49.8192 H         1 UNK         0.0600 
    186 H186       -3.5591  -13.0182  -51.5019 H         1 UNK         0.0600 
    187 H187       -4.7562  -12.2965  -50.4404 H         1 UNK         0.0600 
    188 H188       -3.0571  -11.8562  -50.2834 H         1 UNK         0.0600 
    189 H189       -2.0717  -15.2715  -49.9475 H         1 UNK         0.3000 
    190 H190        1.7066  -24.7243  -45.3993 H         1 UNK         0.3000 
    191 H191        0.3041  -26.3889  -45.5730 H         1 UNK         0.0600 
    192 H192        1.0366  -28.5890  -46.3580 H         1 UNK         0.0600 
    193 H193        2.3604  -27.8208  -45.4994 H         1 UNK         0.0600 
    194 H194        2.3693  -27.8874  -47.2619 H         1 UNK         0.0600 
    195 H195        0.2814  -24.2502  -47.6368 H         1 UNK         0.3000 
    196 H196       -1.1909  -25.4798  -49.8929 H         1 UNK         0.0600 
    197 H197       -1.3816  -23.1104  -50.6472 H         1 UNK         0.0600 
    198 H198        0.2970  -23.5528  -50.3621 H         1 UNK         0.0600 
    199 H199       -0.5696  -22.5656  -49.1870 H         1 UNK         0.0600 
    200 H200       -1.6981  -24.0793  -46.7846 H         1 UNK         0.3000 
    201 H201       -3.3980  -24.0243  -45.3696 H         1 UNK         0.0600 
    202 H202       -5.3822  -24.9222  -47.5153 H         1 UNK         0.0600 
    203 H203       -5.6069  -24.9452  -45.7779 H         1 UNK         0.0600 
    204 H204       -4.4396  -26.0292  -46.5147 H         1 UNK         0.0600 
    205 H205       -5.4244  -22.7900  -44.8912 H         1 UNK         0.3000 
    206 H206       -5.3158  -20.1039  -46.1289 H         1 UNK         0.0600 
    207 H207       -5.0425  -20.3101  -43.6508 H         1 UNK         0.0600 
    208 H208       -6.5232  -19.4520  -44.0331 H         1 UNK         0.0600 
    209 H209       -6.5962  -21.1351  -43.5332 H         1 UNK         0.0600 
    210 H210       -7.6058  -19.0339  -45.9605 H         1 UNK         0.3000 
    211 H211       -9.6520  -18.6898  -46.6787 H         1 UNK         0.0600 
    212 H212      -10.1972  -21.6544  -46.1433 H         1 UNK         0.0600 
    213 H213      -11.4017  -20.3974  -46.3665 H         1 UNK         0.0600 
    214 H214      -10.3342  -20.3452  -44.9720 H         1 UNK         0.0600 
    215 H215       -9.1255  -18.0482  -48.7000 H         1 UNK         0.3000 
    216 H216       -9.2197  -17.8141  -50.8687 H         1 UNK         0.0600 
    217 H217      -10.5825  -19.2436  -52.3227 H         1 UNK         0.0600 
    218 H218      -11.4417  -18.9453  -50.8199 H         1 UNK         0.0600 
    219 H219      -10.6651  -20.5030  -51.1037 H         1 UNK         0.0600 
    220 H220       -8.1263  -21.0536  -49.9530 H         1 UNK         0.3000 
    221 H221       -6.1886  -21.4007  -52.0690 H         1 UNK         0.0600 
    222 H222       -5.3869  -23.2440  -50.6184 H         1 UNK         0.0600 
    223 H223       -7.1396  -23.2868  -50.7170 H         1 UNK         0.0600 
    224 H224       -6.3508  -22.6525  -49.2712 H         1 UNK         0.0600 
    225 H225       -6.2863  -19.3478  -49.3828 H         1 UNK         0.3000 
    226 H226       -3.7350  -19.2291  -48.3308 H         1 UNK         0.0600 
    227 H227       -5.7738  -18.1556  -47.3568 H         1 UNK         0.0600 
    228 H228       -4.4585  -17.0060  -47.4982 H         1 UNK         0.0600 
    229 H229       -5.7779  -16.9662  -48.6569 H         1 UNK         0.0600 
    230 H230       -4.6076  -18.1577  -51.4987 H         1 UNK         0.3000 
    231 H231       -2.5003  -16.2099  -51.8924 H         1 UNK         0.0600 
    232 H232       -3.0203  -16.5694  -54.3018 H         1 UNK         0.0600 
    233 H233       -4.4857  -16.2966  -53.3723 H         1 UNK         0.0600 
    234 H234       -4.0612  -17.9279  -53.8916 H         1 UNK         0.0600 
    235 H235       -2.7027  -19.7430  -51.9857 H         1 UNK         0.3000 
    236 H236       -1.3767  -21.4143  -52.5019 H         1 UNK         0.0600 
    237 H237        0.8775  -19.5845  -51.5384 H         1 UNK         0.0600 
    238 H238       -0.1586  -20.5474  -50.5022 H         1 UNK         0.0600 
    239 H239        0.9399  -21.3352  -51.6293 H         1 UNK         0.0600 
    240 H240        1.3230  -19.3506  -53.3734 H         1 UNK         0.3000 
    241 H241        1.5037  -20.2824  -56.0905 H         1 UNK         0.0600 
    242 H242       -0.7249  -16.8427  -56.1824 H         1 UNK         0.3800 
    243 H243       -0.2688  -17.5442  -54.6415 H         1 UNK         0.3800 
    244 H244        2.9085  -17.9282  -54.7447 H         1 UNK         0.0800 
    245 H245        3.3389  -18.5962  -56.2973 H         1 UNK         0.0800 
    246 H246        6.0683  -19.2632  -53.5361 H         1 UNK         0.0800 
    247 H247        4.9547  -17.9472  -53.7376 H         1 UNK         0.0800 
@<TRIPOS>BOND
     1    1    2 1    
     2    1  127 1    
     3    1  128 1    
     4    1  129 1    
     5    2    3 2    
     6    2    4 am   BACKBONE|DICT|INTERRES
     7    4    5 1    
     8    4  130 1    
     9    5    6 1    
    10    5   65 1    
    11    5  131 1    
    12    6    7 1    
    13    6  132 1    
    14    6  133 1    
    15    7    8 1    
    16    8    9 1    
    17    8  134 1    
    18    8  135 1    
    19    9   10 ar   
    20    9   14 ar   
    21   10   11 ar   
    22   10  136 1    
    23   11   12 ar   
    24   11  126 1    
    25   12   13 ar   
    26   12  137 1    
    27   13   14 ar   
    28   13   15 1    
    29   14  138 1    
    30   15   16 1    
    31   15  139 1    
    32   15  140 1    
    33   16   17 1    
    34   17   18 1    
    35   17  141 1    
    36   17  142 1    
    37   18   19 1    
    38   18   67 1    
    39   18  143 1    
    40   19   20 am   BACKBONE|DICT|INTERRES
    41   19  144 1    
    42   20   21 2    
    43   20   22 1    
    44   22   23 1    
    45   22   24 1    
    46   22  145 1    
    47   23  146 1    
    48   23  147 1    
    49   23  148 1    
    50   24   25 am   BACKBONE|DICT|INTERRES
    51   24  149 1    
    52   25   26 2    
    53   25   27 1    
    54   27   28 1    
    55   27   29 1    
    56   27  150 1    
    57   28  151 1    
    58   28  152 1    
    59   28  153 1    
    60   29   30 am   BACKBONE|DICT|INTERRES
    61   29  154 1    
    62   30   31 2    
    63   30   32 1    
    64   32   33 1    
    65   32   34 1    
    66   32  155 1    
    67   33  156 1    
    68   33  157 1    
    69   33  158 1    
    70   34   35 am   BACKBONE|DICT|INTERRES
    71   34  159 1    
    72   35   36 2    
    73   35   37 1    
    74   37   38 1    
    75   37   39 1    
    76   37  160 1    
    77   38  161 1    
    78   38  162 1    
    79   38  163 1    
    80   39   40 am   BACKBONE|DICT|INTERRES
    81   39  164 1    
    82   40   41 2    
    83   40   42 1    
    84   42   43 1    
    85   42   44 1    
    86   42  165 1    
    87   43  166 1    
    88   43  167 1    
    89   43  168 1    
    90   44   45 am   BACKBONE|DICT|INTERRES
    91   44  169 1    
    92   45   46 2    
    93   45   47 1    
    94   47   48 1    
    95   47   49 1    
    96   47  170 1    
    97   48  171 1    
    98   48  172 1    
    99   48  173 1    
   100   49   50 am   BACKBONE|DICT|INTERRES
   101   49  174 1    
   102   50   51 2    
   103   50   52 1    
   104   52   53 1    
   105   52   54 1    
   106   52  175 1    
   107   53  176 1    
   108   53  177 1    
   109   53  178 1    
   110   54   55 am   BACKBONE|DICT|INTERRES
   111   54  179 1    
   112   55   56 2    
   113   55   57 1    
   114   57   58 1    
   115   57   59 1    
   116   57  180 1    
   117   58  181 1    
   118   58  182 1    
   119   58  183 1    
   120   59   60 am   BACKBONE|DICT|INTERRES
   121   59  184 1    
   122   60   61 2    
   123   60   62 1    
   124   62   63 1    
   125   62   64 1    
   126   62  185 1    
   127   63  186 1    
   128   63  187 1    
   129   63  188 1    
   130   64   65 am   BACKBONE|DICT|INTERRES
   131   64  189 1    
   132   65   66 2    
   133   67   68 2    
   134   67   69 am   BACKBONE|DICT|INTERRES
   135   69   70 1    
   136   69  190 1    
   137   70   71 1    
   138   70   72 1    
   139   70  191 1    
   140   71  192 1    
   141   71  193 1    
   142   71  194 1    
   143   72   73 2    
   144   72   74 am   BACKBONE|DICT|INTERRES
   145   74   75 1    
   146   74  195 1    
   147   75   76 1    
   148   75   77 1    
   149   75  196 1    
   150   76  197 1    
   151   76  198 1    
   152   76  199 1    
   153   77   78 2    
   154   77   79 am   BACKBONE|DICT|INTERRES
   155   79   80 1    
   156   79  200 1    
   157   80   81 1    
   158   80   82 1    
   159   80  201 1    
   160   81  202 1    
   161   81  203 1    
   162   81  204 1    
   163   82   83 2    
   164   82   84 am   BACKBONE|DICT|INTERRES
   165   84   85 1    
   166   84  205 1    
   167   85   86 1    
   168   85   87 1    
   169   85  206 1    
   170   86  207 1    
   171   86  208 1    
   172   86  209 1    
   173   87   88 2    
   174   87   89 am   BACKBONE|DICT|INTERRES
   175   89   90 1    
   176   89  210 1    
   177   90   91 1    
   178   90   92 1    
   179   90  211 1    
   180   91  212 1    
   181   91  213 1    
   182   91  214 1    
   183   92   93 2    
   184   92   94 am   BACKBONE|DICT|INTERRES
   185   94   95 1    
   186   94  215 1    
   187   95   96 1    
   188   95   97 1    
   189   95  216 1    
   190   96  217 1    
   191   96  218 1    
   192   96  219 1    
   193   97   98 2    
   194   97   99 am   BACKBONE|DICT|INTERRES
   195   99  100 1    
   196   99  220 1    
   197  100  101 1    
   198  100  102 1    
   199  100  221 1    
   200  101  222 1    
   201  101  223 1    
   202  101  224 1    
   203  102  103 2    
   204  102  104 am   BACKBONE|DICT|INTERRES
   205  104  105 1    
   206  104  225 1    
   207  105  106 1    
   208  105  107 1    
   209  105  226 1    
   210  106  227 1    
   211  106  228 1    
   212  106  229 1    
   213  107  108 2    
   214  107  109 am   BACKBONE|DICT|INTERRES
   215  109  110 1    
   216  109  230 1    
   217  110  111 1    
   218  110  112 1    
   219  110  231 1    
   220  111  232 1    
   221  111  233 1    
   222  111  234 1    
   223  112  113 2    
   224  112  114 am   BACKBONE|DICT|INTERRES
   225  114  115 1    
   226  114  235 1    
   227  115  116 1    
   228  115  117 1    
   229  115  236 1    
   230  116  237 1    
   231  116  238 1    
   232  116  239 1    
   233  117  118 2    
   234  117  119 am   BACKBONE|DICT|INTERRES
   235  119  120 1    
   236  119  240 1    
   237  120  121 1    
   238  120  124 1    
   239  120  241 1    
   240  121  122 am   BACKBONE|DICT|INTERRES
   241  121  123 2    
   242  122  242 1    
   243  122  243 1    
   244  124  125 1    
   245  124  244 1    
   246  124  245 1    
   247  125  126 1    
   248  126  246 1    
   249  126  247 1    
@<TRIPOS>SUBSTRUCTURE
     1 UNK         1 GROUP             0       ****    0 ROOT    
