@<TRIPOS>MOLECULE
3R540
247   249    1
SMALL
USER_CHARGES


@<TRIPOS>ATOM
      1 CA         -3.2741  -15.8067  -43.9140 C.3       0 UNK        -0.1800 
      2 C          -3.6197  -14.7536  -44.9526 C.2       0 UNK         0.5000 
      3 O          -4.8009  -14.5164  -45.2051 O.2       0 UNK        -0.5000 
      4 N          -2.6022  -14.1298  -45.5550 N.am      1 UNK        -0.5000 
      5 CA         -2.7579  -13.0911  -46.5706 C.3       1 UNK         0.1400 
      6 C6         -2.6135  -13.6657  -48.0046 C.3       23 UNK        -0.0398 
      7 S7         -0.9344  -14.2353  -48.4525 S.3       23 UNK        -0.2404 
      8 C8         -1.0793  -16.0410  -48.2828 C.3       23 UNK        -0.0205 
      9 C9          0.1320  -16.7314  -48.8892 C.ar      23 UNK        -0.0193 
     10 C10         0.2871  -16.7501  -50.2781 C.ar      23 UNK        -0.1150 
     11 C11         1.4171  -17.3248  -50.8627 C.ar      23 UNK        -0.0193 
     12 C12         2.3936  -17.8974  -50.0450 C.ar      23 UNK        -0.1150 
     13 C13         2.2479  -17.8970  -48.6537 C.ar      23 UNK        -0.0193 
     14 C14         1.1104  -17.3178  -48.0783 C.ar      23 UNK        -0.1150 
     15 C15         3.3538  -18.4783  -47.7856 C.3       23 UNK        -0.0205 
     16 S16         3.4036  -20.2941  -47.8562 S.3       23 UNK        -0.2404 
     17 C17         2.0658  -20.7528  -46.7043 C.3       23 UNK        -0.0398 
     18 CA          2.2092  -22.2161  -46.2133 C.3       11 UNK         0.1400 
     19 N           1.4923  -22.4464  -44.9578 N.am      11 UNK        -0.5000 
     20 C           1.6024  -23.5473  -44.1999 C.2       10 UNK         0.5000 
     21 O           2.3612  -24.4838  -44.4502 O.2       10 UNK        -0.5000 
     22 CA          0.6946  -23.6239  -42.9604 C.3       10 UNK         0.1400 
     23 CB          1.3469  -22.9132  -41.7655 C.3       10 UNK        -0.1800 
     24 N          -0.6273  -23.0497  -43.2119 N.am      10 UNK        -0.5000 
     25 C          -1.5658  -23.6306  -43.9716 C.2       9 UNK         0.5000 
     26 O          -1.4274  -24.7237  -44.5181 O.2       9 UNK        -0.5000 
     27 CA         -2.8617  -22.8359  -44.2000 C.3       9 UNK         0.1400 
     28 CB         -3.8396  -23.0294  -43.0327 C.3       9 UNK        -0.1800 
     29 N          -2.6250  -21.4083  -44.4132 N.am      9 UNK        -0.5000 
     30 C          -1.9571  -20.9011  -45.4584 C.2       8 UNK         0.5000 
     31 O          -1.4747  -21.5856  -46.3607 O.2       8 UNK        -0.5000 
     32 CA         -1.7605  -19.3750  -45.4710 C.3       8 UNK         0.1400 
     33 CB         -3.0176  -18.6830  -46.0211 C.3       8 UNK        -0.1800 
     34 N          -1.4403  -18.8098  -44.1556 N.am      8 UNK        -0.5000 
     35 C          -0.4077  -19.1668  -43.3790 C.2       7 UNK         0.5000 
     36 O           0.3924  -20.0548  -43.6768 O.2       7 UNK        -0.5000 
     37 CA         -0.2441  -18.3703  -42.0742 C.3       7 UNK         0.1400 
     38 CB          0.9976  -18.7831  -41.2605 C.3       7 UNK        -0.1800 
     39 N          -0.1767  -16.9489  -42.3976 N.am      7 UNK        -0.5000 
     40 C          -0.5233  -15.9352  -41.5953 C.2       6 UNK         0.5000 
     41 O          -0.9969  -16.0972  -40.4698 O.2       6 UNK        -0.5000 
     42 CA         -0.2827  -14.5060  -42.1409 C.3       6 UNK         0.1400 
     43 CB         -0.2544  -13.4459  -41.0257 C.3       6 UNK        -0.1800 
     44 N           0.9633  -14.4177  -42.9055 N.am      6 UNK        -0.5000 
     45 C           1.1145  -14.7655  -44.1880 C.2       5 UNK         0.5000 
     46 O           0.1912  -15.1652  -44.9023 O.2       5 UNK        -0.5000 
     47 CA          2.5632  -14.8133  -44.6947 C.3       5 UNK         0.1400 
     48 CB          3.1174  -16.2357  -44.5177 C.3       5 UNK        -0.1800 
     49 N           2.6650  -14.4308  -46.1002 N.am      5 UNK        -0.5000 
     50 C           2.7306  -13.1652  -46.5303 C.2       4 UNK         0.5000 
     51 O           2.6854  -12.1889  -45.7795 O.2       4 UNK        -0.5000 
     52 CA          2.9244  -12.9320  -48.0376 C.3       4 UNK         0.1400 
     53 CB          3.0380  -14.2129  -48.8907 C.3       4 UNK        -0.1800 
     54 N           1.8347  -12.0976  -48.5249 N.am      4 UNK        -0.5000 
     55 C           1.9080  -11.2566  -49.5617 C.2       3 UNK         0.5000 
     56 O           2.9290  -11.0788  -50.2279 O.2       3 UNK        -0.5000 
     57 CA          0.6263  -10.4848  -49.9303 C.3       3 UNK         0.1400 
     58 CB         -0.0903  -11.1734  -51.1029 C.3       3 UNK        -0.1800 
     59 N          -0.3172  -10.3483  -48.8193 N.am      3 UNK        -0.5000 
     60 C          -0.1510   -9.5462  -47.7575 C.2       2 UNK         0.5000 
     61 O           0.8297   -8.8186  -47.5995 O.2       2 UNK        -0.5000 
     62 CA         -1.2754   -9.5442  -46.7015 C.3       2 UNK         0.1400 
     63 CB         -2.1573   -8.2957  -46.8599 C.3       2 UNK        -0.1800 
     64 N          -2.1256  -10.7363  -46.7757 N.am      2 UNK        -0.5000 
     65 C          -1.7839  -11.9337  -46.2829 C.2       1 UNK         0.5000 
     66 O          -0.7443  -12.1389  -45.6537 O.2       1 UNK        -0.5000 
     67 C           1.7917  -23.2279  -47.3016 C.2       11 UNK         0.5000 
     68 O           2.6552  -23.8420  -47.9305 O.2       11 UNK        -0.5000 
     69 N           0.4757  -23.3932  -47.4897 N.am      12 UNK        -0.5000 
     70 CA         -0.0966  -24.2926  -48.4879 C.3       12 UNK         0.1400 
     71 CB         -1.5740  -23.9344  -48.6865 C.3       12 UNK        -0.1800 
     72 C          -0.0058  -25.7752  -48.1020 C.2       12 UNK         0.5000 
     73 O           0.1136  -26.6189  -48.9905 O.2       12 UNK        -0.5000 
     74 N          -0.1774  -26.0676  -46.8040 N.am      13 UNK        -0.5000 
     75 CA         -0.4378  -27.3738  -46.1819 C.3       13 UNK         0.1400 
     76 CB          0.6831  -28.3911  -46.4669 C.3       13 UNK        -0.1800 
     77 C          -1.8299  -27.9382  -46.5382 C.2       13 UNK         0.5000 
     78 O          -2.5631  -28.3701  -45.6477 O.2       13 UNK        -0.5000 
     79 N          -2.1924  -27.8853  -47.8251 N.am      14 UNK        -0.5000 
     80 CA         -3.4760  -28.2830  -48.3973 C.3       14 UNK         0.1400 
     81 CB         -3.2695  -28.5643  -49.8968 C.3       14 UNK        -0.1800 
     82 C          -4.5786  -27.2329  -48.1427 C.2       14 UNK         0.5000 
     83 O          -5.1055  -26.6480  -49.0901 O.2       14 UNK        -0.5000 
     84 N          -4.8984  -27.0023  -46.8612 N.am      15 UNK        -0.5000 
     85 CA         -6.0408  -26.2271  -46.3521 C.3       15 UNK         0.1400 
     86 CB         -7.3399  -27.0346  -46.5524 C.3       15 UNK        -0.1800 
     87 C          -6.1515  -24.7880  -46.9083 C.2       15 UNK         0.5000 
     88 O          -7.2573  -24.3067  -47.1586 O.2       15 UNK        -0.5000 
     89 N          -4.9935  -24.1405  -47.1044 N.am      16 UNK        -0.5000 
     90 CA         -4.8027  -22.7860  -47.6449 C.3       16 UNK         0.1400 
     91 CB         -5.5418  -21.7262  -46.8002 C.3       16 UNK        -0.1800 
     92 C          -5.1131  -22.6375  -49.1505 C.2       16 UNK         0.5000 
     93 O          -5.0467  -21.5168  -49.6548 O.2       16 UNK        -0.5000 
     94 N          -5.4119  -23.7363  -49.8618 N.am      17 UNK        -0.5000 
     95 CA         -5.8344  -23.7148  -51.2664 C.3       17 UNK         0.1400 
     96 CB         -6.3167  -25.1110  -51.6867 C.3       17 UNK        -0.1800 
     97 C          -4.7455  -23.2047  -52.2262 C.2       17 UNK         0.5000 
     98 O          -5.0394  -22.3947  -53.1053 O.2       17 UNK        -0.5000 
     99 N          -3.5014  -23.6592  -52.0204 N.am      18 UNK        -0.5000 
    100 CA        -2.3402  -23.2264  -52.8018 C.3       18 UNK         0.1400 
    101 CB        -1.1608  -24.1776  -52.5513 C.3       18 UNK        -0.1800 
    102 C         -1.9445  -21.7691  -52.5028 C.2       18 UNK         0.5000 
    103 O         -1.5710  -21.0426  -53.4218 O.2       18 UNK        -0.5000 
    104 N         -2.0802  -21.3597  -51.2338 N.am      19 UNK        -0.5000 
    105 CA        -1.8301  -19.9960  -50.7666 C.3       19 UNK         0.1400 
    106 CB        -1.8049  -19.9730  -49.2341 C.3       19 UNK        -0.1800 
    107 C         -2.8512  -18.9941  -51.3328 C.2       19 UNK         0.5000 
    108 O         -2.4712  -17.9058  -51.7621 O.2       19 UNK        -0.5000 
    109 N         -4.1263  -19.4023  -51.3829 N.am      20 UNK        -0.5000 
    110 CA        -5.2090  -18.6544  -52.0211 C.3       20 UNK         0.1400 
    111 CB        -6.5504  -19.3271  -51.6928 C.3       20 UNK        -0.1800 
    112 C         -5.0300  -18.5086  -53.5459 C.2       20 UNK         0.5000 
    113 O         -5.4824  -17.5113  -54.1094 O.2       20 UNK        -0.5000 
    114 N         -4.3739  -19.4895  -54.1831 N.am      21 UNK        -0.5000 
    115 CA        -4.0512  -19.4721  -55.6077 C.3       21 UNK         0.1400 
    116 CB        -3.7382  -20.8941  -56.0998 C.3       21 UNK        -0.1800 
    117 C         -2.9082  -18.4949  -55.9390 C.2       21 UNK         0.5000 
    118 O         -3.0562  -17.7087  -56.8763 O.2       21 UNK        -0.5000 
    119 N         -1.7995  -18.5472  -55.1833 N.am      22 UNK        -0.5000 
    120 CA        -0.6649  -17.6198  -55.3587 C.3       22 UNK         0.1400 
    121 C         -0.9052  -16.1904  -54.7938 C.2       22 UNK         0.5000 
    122 N         -1.7219  -16.0092  -53.7640 N.am      22 UNK        -0.7600 
    123 O         -0.3483  -15.2256  -55.3107 O.2       22 UNK        -0.5000 
    124 C124        0.6959  -18.2102  -54.9009 C.3       23 UNK        -0.0398 
    125 S125        0.7666  -18.7178  -53.1510 S.3       23 UNK        -0.2404 
    126 C126        1.5884  -17.2960  -52.3733 C.3       23 UNK        -0.0205 
    127 H127       -3.9554  -16.6536  -43.9912 H         1 UNK         0.0600 
    128 H128       -3.3616  -15.3906  -42.9106 H         1 UNK         0.0600 
    129 H129       -2.2588  -16.1682  -44.0600 H         1 UNK         0.0600 
    130 H130       -1.6362  -14.3381  -45.3121 H         1 UNK         0.3000 
    131 H131       -3.7588  -12.6617  -46.4889 H         1 UNK         0.0600 
    132 H132       -2.9049  -12.9085  -48.7337 H         1 UNK         0.0800 
    133 H133       -3.3228  -14.4823  -48.1456 H         1 UNK         0.0800 
    134 H134       -1.9822  -16.3922  -48.7845 H         1 UNK         0.0800 
    135 H135       -1.1793  -16.2913  -47.2261 H         1 UNK         0.0800 
    136 H136       -0.4667  -16.2956  -50.9060 H         1 UNK         0.1150 
    137 H137        3.2747  -18.3375  -50.4904 H         1 UNK         0.1150 
    138 H138        0.9971  -17.2977  -47.0035 H         1 UNK         0.1150 
    139 H139        4.3130  -18.0913  -48.1326 H         1 UNK         0.0800 
    140 H140        3.2578  -18.1544  -46.7510 H         1 UNK         0.0800 
    141 H141        1.0978  -20.5737  -47.1757 H         1 UNK         0.0800 
    142 H142        2.1163  -20.0748  -45.8512 H         1 UNK         0.0800 
    143 H143        3.2644  -22.3939  -45.9935 H         1 UNK         0.0600 
    144 H144        0.8902  -21.6963  -44.6324 H         1 UNK         0.3000 
    145 H145        0.5673  -24.6771  -42.7005 H         1 UNK         0.0600 
    146 H146        0.7100  -22.9548  -40.8818 H         1 UNK         0.0600 
    147 H147        2.2956  -23.3844  -41.5057 H         1 UNK         0.0600 
    148 H148        1.5541  -21.8661  -41.9849 H         1 UNK         0.0600 
    149 H149       -0.7973  -22.1234  -42.8494 H         1 UNK         0.3000 
    150 H150       -3.3284  -23.2359  -45.0999 H         1 UNK         0.0600 
    151 H151       -4.0446  -24.0880  -42.8671 H         1 UNK         0.0600 
    152 H152       -4.7943  -22.5431  -43.2338 H         1 UNK         0.0600 
    153 H153       -3.4436  -22.6215  -42.1019 H         1 UNK         0.0600 
    154 H154       -2.9803  -20.7751  -43.7124 H         1 UNK         0.3000 
    155 H155       -0.9255  -19.1575  -46.1403 H         1 UNK         0.0600 
    156 H156       -3.8658  -18.7908  -45.3442 H         1 UNK         0.0600 
    157 H157       -3.3196  -19.1029  -46.9792 H         1 UNK         0.0600 
    158 H158       -2.8476  -17.6193  -46.1799 H         1 UNK         0.0600 
    159 H159       -2.0468  -18.0744  -43.8263 H         1 UNK         0.3000 
    160 H160       -1.1339  -18.5618  -41.4710 H         1 UNK         0.0600 
    161 H161        1.9162  -18.6493  -41.8332 H         1 UNK         0.0600 
    162 H162        0.9390  -19.8302  -40.9643 H         1 UNK         0.0600 
    163 H163        1.0858  -18.1969  -40.3458 H         1 UNK         0.0600 
    164 H164        0.1590  -16.7233  -43.3261 H         1 UNK         0.3000 
    165 H165       -1.1171  -14.2620  -42.7998 H         1 UNK         0.0600 
    166 H166       -0.0977  -12.4479  -41.4358 H         1 UNK         0.0600 
    167 H167       -1.1983  -13.4238  -40.4797 H         1 UNK         0.0600 
    168 H168        0.5399  -13.6415  -40.3043 H         1 UNK         0.0600 
    169 H169        1.7824  -14.1539  -42.3768 H         1 UNK         0.3000 
    170 H170        3.1757  -14.1322  -44.0996 H         1 UNK         0.0600 
    171 H171        3.1951  -16.4928  -43.4604 H         1 UNK         0.0600 
    172 H172        2.4691  -16.9796  -44.9805 H         1 UNK         0.0600 
    173 H173        4.1138  -16.3343  -44.9489 H         1 UNK         0.0600 
    174 H174        2.6417  -15.1762  -46.7795 H         1 UNK         0.3000 
    175 H175        3.8621  -12.3805  -48.1329 H         1 UNK         0.0600 
    176 H176        2.1060  -14.7742  -48.8895 H         1 UNK         0.0600 
    177 H177        3.2700  -13.9734  -49.9284 H         1 UNK         0.0600 
    178 H178        3.8322  -14.8688  -48.5323 H         1 UNK         0.0600 
    179 H179        0.9709  -12.1576  -48.0025 H         1 UNK         0.3000 
    180 H180        0.9249   -9.4847  -50.2514 H         1 UNK         0.0600 
    181 H181       -0.9630  -10.6040  -51.4228 H         1 UNK         0.0600 
    182 H182       -0.4218  -12.1783  -50.8380 H         1 UNK         0.0600 
    183 H183        0.5709  -11.2643  -51.9658 H         1 UNK         0.0600 
    184 H184       -1.1542  -10.9083  -48.8690 H         1 UNK         0.3000 
    185 H185       -0.8034   -9.5044  -45.7173 H         1 UNK         0.0600 
    186 H186       -2.9216   -8.2516  -46.0838 H         1 UNK         0.0600 
    187 H187       -1.5627   -7.3846  -46.7799 H         1 UNK         0.0600 
    188 H188       -2.6588   -8.2760  -47.8282 H         1 UNK         0.0600 
    189 H189       -3.0048  -10.6295  -47.2618 H         1 UNK         0.3000 
    190 H190       -0.1778  -22.8253  -46.9554 H         1 UNK         0.3000 
    191 H191        0.4315  -24.1487  -49.4327 H         1 UNK         0.0600 
    192 H192       -2.0324  -24.5474  -49.4628 H         1 UNK         0.0600 
    193 H193       -1.6934  -22.8904  -48.9664 H         1 UNK         0.0600 
    194 H194       -2.1326  -24.1043  -47.7669 H         1 UNK         0.0600 
    195 H195       -0.3240  -25.2897  -46.1700 H         1 UNK         0.3000 
    196 H196       -0.4399  -27.1905  -45.1064 H         1 UNK         0.0600 
    197 H197        0.7172  -28.6866  -47.5156 H         1 UNK         0.0600 
    198 H198        1.6588  -27.9853  -46.1997 H         1 UNK         0.0600 
    199 H199        0.5364  -29.2993  -45.8812 H         1 UNK         0.0600 
    200 H200       -1.5074  -27.5102  -48.4744 H         1 UNK         0.3000 
    201 H201       -3.7981  -29.2128  -47.9242 H         1 UNK         0.0600 
    202 H202       -2.9242  -27.6771  -50.4296 H         1 UNK         0.0600 
    203 H203       -4.1984  -28.8905  -50.3665 H         1 UNK         0.0600 
    204 H204       -2.5342  -29.3542  -50.0516 H         1 UNK         0.0600 
    205 H205       -4.3485  -27.4908  -46.1613 H         1 UNK         0.3000 
    206 H206       -5.8820  -26.1201  -45.2782 H         1 UNK         0.0600 
    207 H207       -7.2559  -28.0310  -46.1186 H         1 UNK         0.0600 
    208 H208       -8.1877  -26.5454  -46.0712 H         1 UNK         0.0600 
    209 H209       -7.5825  -27.1488  -47.6097 H         1 UNK         0.0600 
    210 H210       -4.1489  -24.6543  -46.9002 H         1 UNK         0.3000 
    211 H211       -3.7429  -22.5633  -47.5425 H         1 UNK         0.0600 
    212 H212       -5.2374  -20.7192  -47.0866 H         1 UNK         0.0600 
    213 H213       -5.3247  -21.8379  -45.7387 H         1 UNK         0.0600 
    214 H214       -6.6227  -21.7816  -46.9295 H         1 UNK         0.0600 
    215 H215       -5.4188  -24.6414  -49.4024 H         1 UNK         0.3000 
    216 H216       -6.6829  -23.0313  -51.3419 H         1 UNK         0.0600 
    217 H217       -5.5113  -25.8453  -51.6484 H         1 UNK         0.0600 
    218 H218       -6.7015  -25.0998  -52.7072 H         1 UNK         0.0600 
    219 H219       -7.1202  -25.4624  -51.0391 H         1 UNK         0.0600 
    220 H220       -3.3489  -24.3404  -51.2923 H         1 UNK         0.3000 
    221 H221       -2.6015  -23.2881  -53.8606 H         1 UNK         0.0600 
    222 H222       -1.4259  -25.2082  -52.7881 H         1 UNK         0.0600 
    223 H223       -0.8245  -24.1458  -51.5163 H         1 UNK         0.0600 
    224 H224       -0.3088  -23.9098  -53.1776 H         1 UNK         0.0600 
    225 H225       -2.4519  -22.0087  -50.5594 H         1 UNK         0.3000 
    226 H226       -0.8415  -19.6938  -51.1082 H         1 UNK         0.0600 
    227 H227       -2.7140  -20.3969  -48.8095 H         1 UNK         0.0600 
    228 H228       -0.9563  -20.5389  -48.8501 H         1 UNK         0.0600 
    229 H229       -1.7057  -18.9547  -48.8598 H         1 UNK         0.0600 
    230 H230       -4.3802  -20.2858  -50.9491 H         1 UNK         0.3000 
    231 H231       -5.2179  -17.6498  -51.5932 H         1 UNK         0.0600 
    232 H232       -6.5914  -20.3481  -52.0733 H         1 UNK         0.0600 
    233 H233       -7.3826  -18.7773  -52.1340 H         1 UNK         0.0600 
    234 H234       -6.7190  -19.3652  -50.6164 H         1 UNK         0.0600 
    235 H235       -4.0627  -20.2913  -53.6515 H         1 UNK         0.3000 
    236 H236       -4.9395  -19.1342  -56.1460 H         1 UNK         0.0600 
    237 H237       -4.5582  -21.5776  -55.8785 H         1 UNK         0.0600 
    238 H238       -3.5886  -20.9043  -57.1800 H         1 UNK         0.0600 
    239 H239       -2.8350  -21.2976  -55.6450 H         1 UNK         0.0600 
    240 H240       -1.7246  -19.2292  -54.4352 H         1 UNK         0.3000 
    241 H241       -0.5524  -17.4738  -56.4352 H         1 UNK         0.0600 
    242 H242       -1.8780  -15.0764  -53.4202 H         1 UNK         0.3800 
    243 H243       -2.0949  -16.8001  -53.2446 H         1 UNK         0.3800 
    244 H244        1.5086  -17.5126  -55.1108 H         1 UNK         0.0800 
    245 H245        0.9147  -19.0953  -55.4994 H         1 UNK         0.0800 
    246 H246        1.1760  -16.3656  -52.7650 H         1 UNK         0.0800 
    247 H247        2.6467  -17.2998  -52.6381 H         1 UNK         0.0800 
@<TRIPOS>BOND
     1    1    2 1    
     2    1  127 1    
     3    1  128 1    
     4    1  129 1    
     5    2    3 2    
     6    2    4 am   BACKBONE|DICT|INTERRES
     7    4    5 1    
     8    4  130 1    
     9    5    6 1    
    10    5   65 1    
    11    5  131 1    
    12    6    7 1    
    13    6  132 1    
    14    6  133 1    
    15    7    8 1    
    16    8    9 1    
    17    8  134 1    
    18    8  135 1    
    19    9   10 ar   
    20    9   14 ar   
    21   10   11 ar   
    22   10  136 1    
    23   11   12 ar   
    24   11  126 1    
    25   12   13 ar   
    26   12  137 1    
    27   13   14 ar   
    28   13   15 1    
    29   14  138 1    
    30   15   16 1    
    31   15  139 1    
    32   15  140 1    
    33   16   17 1    
    34   17   18 1    
    35   17  141 1    
    36   17  142 1    
    37   18   19 1    
    38   18   67 1    
    39   18  143 1    
    40   19   20 am   BACKBONE|DICT|INTERRES
    41   19  144 1    
    42   20   21 2    
    43   20   22 1    
    44   22   23 1    
    45   22   24 1    
    46   22  145 1    
    47   23  146 1    
    48   23  147 1    
    49   23  148 1    
    50   24   25 am   BACKBONE|DICT|INTERRES
    51   24  149 1    
    52   25   26 2    
    53   25   27 1    
    54   27   28 1    
    55   27   29 1    
    56   27  150 1    
    57   28  151 1    
    58   28  152 1    
    59   28  153 1    
    60   29   30 am   BACKBONE|DICT|INTERRES
    61   29  154 1    
    62   30   31 2    
    63   30   32 1    
    64   32   33 1    
    65   32   34 1    
    66   32  155 1    
    67   33  156 1    
    68   33  157 1    
    69   33  158 1    
    70   34   35 am   BACKBONE|DICT|INTERRES
    71   34  159 1    
    72   35   36 2    
    73   35   37 1    
    74   37   38 1    
    75   37   39 1    
    76   37  160 1    
    77   38  161 1    
    78   38  162 1    
    79   38  163 1    
    80   39   40 am   BACKBONE|DICT|INTERRES
    81   39  164 1    
    82   40   41 2    
    83   40   42 1    
    84   42   43 1    
    85   42   44 1    
    86   42  165 1    
    87   43  166 1    
    88   43  167 1    
    89   43  168 1    
    90   44   45 am   BACKBONE|DICT|INTERRES
    91   44  169 1    
    92   45   46 2    
    93   45   47 1    
    94   47   48 1    
    95   47   49 1    
    96   47  170 1    
    97   48  171 1    
    98   48  172 1    
    99   48  173 1    
   100   49   50 am   BACKBONE|DICT|INTERRES
   101   49  174 1    
   102   50   51 2    
   103   50   52 1    
   104   52   53 1    
   105   52   54 1    
   106   52  175 1    
   107   53  176 1    
   108   53  177 1    
   109   53  178 1    
   110   54   55 am   BACKBONE|DICT|INTERRES
   111   54  179 1    
   112   55   56 2    
   113   55   57 1    
   114   57   58 1    
   115   57   59 1    
   116   57  180 1    
   117   58  181 1    
   118   58  182 1    
   119   58  183 1    
   120   59   60 am   BACKBONE|DICT|INTERRES
   121   59  184 1    
   122   60   61 2    
   123   60   62 1    
   124   62   63 1    
   125   62   64 1    
   126   62  185 1    
   127   63  186 1    
   128   63  187 1    
   129   63  188 1    
   130   64   65 am   BACKBONE|DICT|INTERRES
   131   64  189 1    
   132   65   66 2    
   133   67   68 2    
   134   67   69 am   BACKBONE|DICT|INTERRES
   135   69   70 1    
   136   69  190 1    
   137   70   71 1    
   138   70   72 1    
   139   70  191 1    
   140   71  192 1    
   141   71  193 1    
   142   71  194 1    
   143   72   73 2    
   144   72   74 am   BACKBONE|DICT|INTERRES
   145   74   75 1    
   146   74  195 1    
   147   75   76 1    
   148   75   77 1    
   149   75  196 1    
   150   76  197 1    
   151   76  198 1    
   152   76  199 1    
   153   77   78 2    
   154   77   79 am   BACKBONE|DICT|INTERRES
   155   79   80 1    
   156   79  200 1    
   157   80   81 1    
   158   80   82 1    
   159   80  201 1    
   160   81  202 1    
   161   81  203 1    
   162   81  204 1    
   163   82   83 2    
   164   82   84 am   BACKBONE|DICT|INTERRES
   165   84   85 1    
   166   84  205 1    
   167   85   86 1    
   168   85   87 1    
   169   85  206 1    
   170   86  207 1    
   171   86  208 1    
   172   86  209 1    
   173   87   88 2    
   174   87   89 am   BACKBONE|DICT|INTERRES
   175   89   90 1    
   176   89  210 1    
   177   90   91 1    
   178   90   92 1    
   179   90  211 1    
   180   91  212 1    
   181   91  213 1    
   182   91  214 1    
   183   92   93 2    
   184   92   94 am   BACKBONE|DICT|INTERRES
   185   94   95 1    
   186   94  215 1    
   187   95   96 1    
   188   95   97 1    
   189   95  216 1    
   190   96  217 1    
   191   96  218 1    
   192   96  219 1    
   193   97   98 2    
   194   97   99 am   BACKBONE|DICT|INTERRES
   195   99  100 1    
   196   99  220 1    
   197  100  101 1    
   198  100  102 1    
   199  100  221 1    
   200  101  222 1    
   201  101  223 1    
   202  101  224 1    
   203  102  103 2    
   204  102  104 am   BACKBONE|DICT|INTERRES
   205  104  105 1    
   206  104  225 1    
   207  105  106 1    
   208  105  107 1    
   209  105  226 1    
   210  106  227 1    
   211  106  228 1    
   212  106  229 1    
   213  107  108 2    
   214  107  109 am   BACKBONE|DICT|INTERRES
   215  109  110 1    
   216  109  230 1    
   217  110  111 1    
   218  110  112 1    
   219  110  231 1    
   220  111  232 1    
   221  111  233 1    
   222  111  234 1    
   223  112  113 2    
   224  112  114 am   BACKBONE|DICT|INTERRES
   225  114  115 1    
   226  114  235 1    
   227  115  116 1    
   228  115  117 1    
   229  115  236 1    
   230  116  237 1    
   231  116  238 1    
   232  116  239 1    
   233  117  118 2    
   234  117  119 am   BACKBONE|DICT|INTERRES
   235  119  120 1    
   236  119  240 1    
   237  120  121 1    
   238  120  124 1    
   239  120  241 1    
   240  121  122 am   BACKBONE|DICT|INTERRES
   241  121  123 2    
   242  122  242 1    
   243  122  243 1    
   244  124  125 1    
   245  124  244 1    
   246  124  245 1    
   247  125  126 1    
   248  126  246 1    
   249  126  247 1    
@<TRIPOS>SUBSTRUCTURE
     1 UNK         1 GROUP             0       ****    0 ROOT    
