@<TRIPOS>MOLECULE
3R540
247   249    1
SMALL
USER_CHARGES


@<TRIPOS>ATOM
      1 CA         -3.7253   -8.8240  -46.5516 C.3       0 UNK        -0.1800 
      2 C          -3.3098   -9.1452  -47.9797 C.2       0 UNK         0.5000 
      3 O          -2.6457   -8.3352  -48.6255 O.2       0 UNK        -0.5000 
      4 N          -3.6710  -10.3364  -48.4700 N.am      1 UNK        -0.5000 
      5 CA         -3.4168  -10.8471  -49.8264 C.3       1 UNK         0.1400 
      6 C6         -4.4867  -11.9033  -50.2190 C.3       23 UNK        -0.0398 
      7 S7         -4.5595  -13.3431  -49.0854 S.3       23 UNK        -0.2404 
      8 C8         -4.1092  -14.7188  -50.1900 C.3       23 UNK        -0.0205 
      9 C9         -3.2100  -15.7294  -49.4953 C.ar      23 UNK        -0.0193 
     10 C10        -1.8223  -15.6142  -49.6102 C.ar      23 UNK        -0.1150 
     11 C11        -0.9829  -16.5543  -49.0125 C.ar      23 UNK        -0.0193 
     12 C12        -1.5376  -17.6129  -48.2939 C.ar      23 UNK        -0.1150 
     13 C13        -2.9230  -17.7641  -48.1924 C.ar      23 UNK        -0.0193 
     14 C14        -3.7546  -16.7982  -48.7741 C.ar      23 UNK        -0.1150 
     15 C15        -3.5180  -18.9771  -47.4804 C.3       23 UNK        -0.0205 
     16 S16        -3.2019  -20.5427  -48.3766 S.3       23 UNK        -0.2404 
     17 C17        -1.4939  -20.9478  -47.8483 C.3       23 UNK        -0.0398 
     18 CA         -1.1464  -22.4235  -47.4993 C.3       11 UNK         0.1400 
     19 N           0.0617  -22.4834  -46.6706 N.am      11 UNK        -0.5000 
     20 C           0.6865  -23.5907  -46.2472 C.2       10 UNK         0.5000 
     21 O           0.3549  -24.7319  -46.5627 O.2       10 UNK        -0.5000 
     22 CA          1.8460  -23.3888  -45.2545 C.3       10 UNK         0.1400 
     23 CB          3.1270  -22.9597  -45.9850 C.3       10 UNK        -0.1800 
     24 N           1.5259  -22.4214  -44.2021 N.am      10 UNK        -0.5000 
     25 C           0.5394  -22.5772  -43.3061 C.2       9 UNK         0.5000 
     26 O          -0.1853  -23.5698  -43.2512 O.2       9 UNK        -0.5000 
     27 CA          0.2835  -21.4102  -42.3374 C.3       9 UNK         0.1400 
     28 CB          1.3196  -21.3999  -41.2037 C.3       9 UNK        -0.1800 
     29 N           0.2712  -20.1139  -43.0136 N.am      9 UNK        -0.5000 
     30 C          -0.6136  -19.7600  -43.9576 C.2       8 UNK         0.5000 
     31 O          -1.5464  -20.4724  -44.3296 O.2       8 UNK        -0.5000 
     32 CA         -0.3836  -18.4037  -44.6427 C.3       8 UNK         0.1400 
     33 CB         -0.8523  -17.2472  -43.7485 C.3       8 UNK        -0.1800 
     34 N           1.0149  -18.2018  -45.0122 N.am      8 UNK        -0.5000 
     35 C           1.7184  -18.9574  -45.8654 C.2       7 UNK         0.5000 
     36 O           1.2427  -19.8950  -46.5026 O.2       7 UNK        -0.5000 
     37 CA          3.2201  -18.6459  -45.9806 C.3       7 UNK         0.1400 
     38 CB          3.4783  -17.4796  -46.9453 C.3       7 UNK        -0.1800 
     39 N           3.8127  -18.3385  -44.6800 N.am      7 UNK        -0.5000 
     40 C           4.0261  -19.2388  -43.7119 C.2       6 UNK         0.5000 
     41 O           3.7535  -20.4349  -43.8177 O.2       6 UNK        -0.5000 
     42 CA          4.6200  -18.7032  -42.3960 C.3       6 UNK         0.1400 
     43 CB          6.1470  -18.5757  -42.5032 C.3       6 UNK        -0.1800 
     44 N           4.0515  -17.4128  -41.9993 N.am      6 UNK        -0.5000 
     45 C           2.7877  -17.2504  -41.5860 C.2       5 UNK         0.5000 
     46 O           1.9729  -18.1699  -41.5042 O.2       5 UNK        -0.5000 
     47 CA          2.3453  -15.8140  -41.2425 C.3       5 UNK         0.1400 
     48 CB          2.8612  -15.4090  -39.8531 C.3       5 UNK        -0.1800 
     49 N           2.7138  -14.7788  -42.2191 N.am      5 UNK        -0.5000 
     50 C           2.4943  -14.8415  -43.5391 C.2       4 UNK         0.5000 
     51 O           2.1572  -15.8667  -44.1293 O.2       4 UNK        -0.5000 
     52 CA          2.6700  -13.5470  -44.3542 C.3       4 UNK         0.1400 
     53 CB          4.0789  -13.4831  -44.9616 C.3       4 UNK        -0.1800 
     54 N           1.6821  -13.4911  -45.4355 N.am      4 UNK        -0.5000 
     55 C           0.3563  -13.4319  -45.2533 C.2       3 UNK         0.5000 
     56 O          -0.1711  -13.1870  -44.1663 O.2       3 UNK        -0.5000 
     57 CA         -0.5137  -13.6872  -46.4984 C.3       3 UNK         0.1400 
     58 CB         -1.9922  -13.9335  -46.1490 C.3       3 UNK        -0.1800 
     59 N          -0.4374  -12.5756  -47.4400 N.am      3 UNK        -0.5000 
     60 C           0.5586  -12.3378  -48.3033 C.2       2 UNK         0.5000 
     61 O           1.5597  -13.0510  -48.3941 O.2       2 UNK        -0.5000 
     62 CA          0.4087  -11.0817  -49.1916 C.3       2 UNK         0.1400 
     63 CB          1.1530  -11.2037  -50.5380 C.3       2 UNK        -0.1800 
     64 N          -0.9950  -10.6827  -49.3734 N.am      2 UNK        -0.5000 
     65 C          -1.9602  -11.3429  -50.0322 C.2       1 UNK         0.5000 
     66 O          -1.7406  -12.3172  -50.7511 O.2       1 UNK        -0.5000 
     67 C          -2.3035  -23.2061  -46.8466 C.2       11 UNK         0.5000 
     68 O          -2.8456  -24.1203  -47.4734 O.2       11 UNK        -0.5000 
     69 N          -2.6299  -22.8577  -45.5938 N.am      12 UNK        -0.5000 
     70 CA         -3.6924  -23.4759  -44.8008 C.3       12 UNK         0.1400 
     71 CB         -3.8508  -22.7129  -43.4777 C.3       12 UNK        -0.1800 
     72 C          -3.4722  -24.9770  -44.5431 C.2       12 UNK         0.5000 
     73 O          -4.4278  -25.7491  -44.6264 O.2       12 UNK        -0.5000 
     74 N          -2.2211  -25.3646  -44.2593 N.am      13 UNK        -0.5000 
     75 CA         -1.8097  -26.7550  -44.0685 C.3       13 UNK         0.1400 
     76 CB         -0.3886  -26.7965  -43.4865 C.3       13 UNK        -0.1800 
     77 C          -1.8876  -27.5856  -45.3619 C.2       13 UNK         0.5000 
     78 O          -2.2638  -28.7570  -45.3014 O.2       13 UNK        -0.5000 
     79 N          -1.5308  -26.9733  -46.4999 N.am      14 UNK        -0.5000 
     80 CA         -1.5595  -27.5990  -47.8191 C.3       14 UNK         0.1400 
     81 CB         -0.7811  -26.7396  -48.8291 C.3       14 UNK        -0.1800 
     82 C          -2.9896  -27.8711  -48.3123 C.2       14 UNK         0.5000 
     83 O          -3.3033  -29.0183  -48.6347 O.2       14 UNK        -0.5000 
     84 N          -3.8231  -26.8223  -48.3696 N.am      15 UNK        -0.5000 
     85 CA         -5.1818  -26.8958  -48.9230 C.3       15 UNK         0.1400 
     86 CB         -5.1173  -27.1400  -50.4480 C.3       15 UNK        -0.1800 
     87 C          -6.0567  -25.6597  -48.6441 C.2       15 UNK         0.5000 
     88 O          -7.2610  -25.7316  -48.8925 O.2       15 UNK        -0.5000 
     89 N          -5.4615  -24.5440  -48.1932 N.am      16 UNK        -0.5000 
     90 CA         -6.0588  -23.2037  -48.1113 C.3       16 UNK         0.1400 
     91 CB         -7.2290  -23.1584  -47.1061 C.3       16 UNK        -0.1800 
     92 C          -6.4214  -22.6521  -49.5089 C.2       16 UNK         0.5000 
     93 O          -7.4512  -21.9972  -49.6758 O.2       16 UNK        -0.5000 
     94 N          -5.5630  -22.9514  -50.4966 N.am      17 UNK        -0.5000 
     95 CA         -5.7635  -22.6488  -51.9173 C.3       17 UNK         0.1400 
     96 CB         -4.8863  -23.5967  -52.7498 C.3       17 UNK        -0.1800 
     97 C          -5.5160  -21.1720  -52.2925 C.2       17 UNK         0.5000 
     98 O          -5.8289  -20.7771  -53.4168 O.2       17 UNK        -0.5000 
     99 N          -4.9786  -20.3850  -51.3500 N.am      18 UNK        -0.5000 
    100 CA        -4.8237  -18.9301  -51.3749 C.3       18 UNK         0.1400 
    101 CB        -6.2004  -18.2497  -51.2147 C.3       18 UNK        -0.1800 
    102 C         -4.0128  -18.4246  -52.5802 C.2       18 UNK         0.5000 
    103 O         -2.7913  -18.5815  -52.5942 O.2       18 UNK        -0.5000 
    104 N         -4.6962  -17.8645  -53.5864 N.am      19 UNK        -0.5000 
    105 CA        -4.1088  -17.3883  -54.8401 C.3       19 UNK         0.1400 
    106 CB        -5.2005  -16.7047  -55.6764 C.3       19 UNK        -0.1800 
    107 C         -3.4124  -18.4943  -55.6581 C.2       19 UNK         0.5000 
    108 O         -2.4786  -18.1933  -56.4004 O.2       19 UNK        -0.5000 
    109 N         -3.8453  -19.7509  -55.4888 N.am      20 UNK        -0.5000 
    110 CA        -3.2068  -20.9234  -56.0861 C.3       20 UNK         0.1400 
    111 CB        -4.2867  -21.9630  -56.4211 C.3       20 UNK        -0.1800 
    112 C         -2.0941  -21.5205  -55.1978 C.2       20 UNK         0.5000 
    113 O         -1.3371  -22.3596  -55.6872 O.2       20 UNK        -0.5000 
    114 N         -1.9926  -21.0884  -53.9307 N.am      21 UNK        -0.5000 
    115 CA        -0.9194  -21.4766  -53.0134 C.3       21 UNK         0.1400 
    116 CB        -1.4400  -21.5260  -51.5648 C.3       21 UNK        -0.1800 
    117 C          0.2702  -20.5104  -53.1360 C.2       21 UNK         0.5000 
    118 O          1.3895  -20.9558  -53.3926 O.2       21 UNK        -0.5000 
    119 N          0.0014  -19.2106  -52.9604 N.am      22 UNK        -0.5000 
    120 CA         1.0040  -18.1308  -53.0039 C.3       22 UNK         0.1400 
    121 C          1.1449  -17.4460  -54.3936 C.2       22 UNK         0.5000 
    122 N          0.3399  -17.7763  -55.3937 N.am      22 UNK        -0.7600 
    123 O          2.0227  -16.6073  -54.5785 O.2       22 UNK        -0.5000 
    124 C124        0.7601  -17.0881  -51.8824 C.3       23 UNK        -0.0398 
    125 S125        1.1781  -17.7571  -50.2386 S.3       23 UNK        -0.2404 
    126 C126        0.5250  -16.4512  -49.1528 C.3       23 UNK        -0.0205 
    127 H127       -2.8445   -8.6391  -45.9367 H         1 UNK         0.0600 
    128 H128       -4.2898   -9.6406  -46.1004 H         1 UNK         0.0600 
    129 H129       -4.3484   -7.9299  -46.5348 H         1 UNK         0.0600 
    130 H130       -4.1913  -10.9705  -47.8794 H         1 UNK         0.3000 
    131 H131       -3.5361  -10.0106  -50.5181 H         1 UNK         0.0600 
    132 H132       -4.3463  -12.2283  -51.2507 H         1 UNK         0.0800 
    133 H133       -5.4707  -11.4328  -50.2065 H         1 UNK         0.0800 
    134 H134       -5.0208  -15.2008  -50.5425 H         1 UNK         0.0800 
    135 H135       -3.6012  -14.3470  -51.0806 H         1 UNK         0.0800 
    136 H136       -1.3948  -14.7972  -50.1732 H         1 UNK         0.1150 
    137 H137       -0.8719  -18.3348  -47.8495 H         1 UNK         0.1150 
    138 H138       -4.8284  -16.8948  -48.6971 H         1 UNK         0.1150 
    139 H139       -3.1376  -19.0390  -46.4603 H         1 UNK         0.0800 
    140 H140       -4.5983  -18.8580  -47.3861 H         1 UNK         0.0800 
    141 H141       -1.2948  -20.3421  -46.9674 H         1 UNK         0.0800 
    142 H142       -0.8047  -20.5862  -48.6127 H         1 UNK         0.0800 
    143 H143       -0.9170  -22.9356  -48.4358 H         1 UNK         0.0600 
    144 H144        0.4498  -21.5846  -46.3939 H         1 UNK         0.3000 
    145 H145        2.0382  -24.3493  -44.7722 H         1 UNK         0.0600 
    146 H146        3.3954  -23.6808  -46.7580 H         1 UNK         0.0600 
    147 H147        3.0121  -21.9889  -46.4670 H         1 UNK         0.0600 
    148 H148        3.9691  -22.8925  -45.2960 H         1 UNK         0.0600 
    149 H149        2.1050  -21.5893  -44.1567 H         1 UNK         0.3000 
    150 H150       -0.7023  -21.5607  -41.8924 H         1 UNK         0.0600 
    151 H151        1.3422  -22.3597  -40.6861 H         1 UNK         0.0600 
    152 H152        1.0830  -20.6366  -40.4624 H         1 UNK         0.0600 
    153 H153        2.3250  -21.2028  -41.5763 H         1 UNK         0.0600 
    154 H154        0.9858  -19.4494  -42.7345 H         1 UNK         0.3000 
    155 H155       -0.9768  -18.3825  -45.5556 H         1 UNK         0.0600 
    156 H156       -0.3047  -17.2171  -42.8063 H         1 UNK         0.0600 
    157 H157       -0.7106  -16.2867  -44.2426 H         1 UNK         0.0600 
    158 H158       -1.9127  -17.3411  -43.5119 H         1 UNK         0.0600 
    159 H159        1.4894  -17.4155  -44.5686 H         1 UNK         0.3000 
    160 H160        3.7169  -19.5320  -46.3812 H         1 UNK         0.0600 
    161 H161        2.9685  -16.5685  -46.6304 H         1 UNK         0.0600 
    162 H162        3.1303  -17.7257  -47.9481 H         1 UNK         0.0600 
    163 H163        4.5429  -17.2581  -47.0206 H         1 UNK         0.0600 
    164 H164        3.9779  -17.3630  -44.4778 H         1 UNK         0.3000 
    165 H165        4.3952  -19.4300  -41.6123 H         1 UNK         0.0600 
    166 H166        6.5851  -18.2761  -41.5509 H         1 UNK         0.0600 
    167 H167        6.5990  -19.5285  -42.7823 H         1 UNK         0.0600 
    168 H168        6.4397  -17.8408  -43.2541 H         1 UNK         0.0600 
    169 H169        4.6527  -16.6039  -42.0552 H         1 UNK         0.3000 
    170 H170        1.2543  -15.8245  -41.2003 H         1 UNK         0.0600 
    171 H171        2.5908  -16.1531  -39.1024 H         1 UNK         0.0600 
    172 H172        3.9471  -15.3088  -39.8401 H         1 UNK         0.0600 
    173 H173        2.4324  -14.4590  -39.5339 H         1 UNK         0.0600 
    174 H174        3.0201  -13.8997  -41.8280 H         1 UNK         0.3000 
    175 H175        2.5200  -12.6855  -43.7005 H         1 UNK         0.0600 
    176 H176        4.2688  -14.3263  -45.6273 H         1 UNK         0.0600 
    177 H177        4.2199  -12.5662  -45.5342 H         1 UNK         0.0600 
    178 H178        4.8422  -13.5005  -44.1826 H         1 UNK         0.0600 
    179 H179        2.0225  -13.6517  -46.3759 H         1 UNK         0.3000 
    180 H180       -0.1353  -14.5902  -46.9799 H         1 UNK         0.0600 
    181 H181       -2.4587  -13.0518  -45.7082 H         1 UNK         0.0600 
    182 H182       -2.0986  -14.7535  -45.4388 H         1 UNK         0.0600 
    183 H183       -2.5622  -14.2064  -47.0358 H         1 UNK         0.0600 
    184 H184       -1.2078  -11.9251  -47.4211 H         1 UNK         0.3000 
    185 H185        0.8779  -10.2686  -48.6362 H         1 UNK         0.0600 
    186 H186        2.2271  -11.3058  -50.3793 H         1 UNK         0.0600 
    187 H187        0.8282  -12.0747  -51.1074 H         1 UNK         0.0600 
    188 H188        0.9995  -10.3195  -51.1564 H         1 UNK         0.0600 
    189 H189       -1.2832   -9.8468  -48.8760 H         1 UNK         0.3000 
    190 H190       -2.1336  -22.0870  -45.1527 H         1 UNK         0.3000 
    191 H191       -4.6217  -23.3728  -45.3626 H         1 UNK         0.0600 
    192 H192       -2.9341  -22.7393  -42.8872 H         1 UNK         0.0600 
    193 H193       -4.6482  -23.1423  -42.8701 H         1 UNK         0.0600 
    194 H194       -4.1031  -21.6672  -43.6548 H         1 UNK         0.0600 
    195 H195       -1.4983  -24.6581  -44.1495 H         1 UNK         0.3000 
    196 H196       -2.4861  -27.2091  -43.3413 H         1 UNK         0.0600 
    197 H197       -0.0603  -27.8243  -43.3268 H         1 UNK         0.0600 
    198 H198       -0.3425  -26.2874  -42.5237 H         1 UNK         0.0600 
    199 H199        0.3320  -26.3198  -44.1520 H         1 UNK         0.0600 
    200 H200       -1.1748  -26.0234  -46.4572 H         1 UNK         0.3000 
    201 H201       -1.0481  -28.5611  -47.7439 H         1 UNK         0.0600 
    202 H202        0.2688  -26.6593  -48.5473 H         1 UNK         0.0600 
    203 H203       -1.1838  -25.7292  -48.9018 H         1 UNK         0.0600 
    204 H204       -0.8155  -27.1799  -49.8264 H         1 UNK         0.0600 
    205 H205       -3.4874  -25.9220  -48.0456 H         1 UNK         0.3000 
    206 H206       -5.6931  -27.7399  -48.4554 H         1 UNK         0.0600 
    207 H207       -6.1066  -27.0932  -50.9055 H         1 UNK         0.0600 
    208 H208       -4.4917  -26.3962  -50.9411 H         1 UNK         0.0600 
    209 H209       -4.7122  -28.1233  -50.6846 H         1 UNK         0.0600 
    210 H210       -4.4665  -24.5575  -47.9834 H         1 UNK         0.3000 
    211 H211       -5.2793  -22.5499  -47.7212 H         1 UNK         0.0600 
    212 H212       -8.1043  -23.6952  -47.4721 H         1 UNK         0.0600 
    213 H213       -7.5366  -22.1294  -46.9173 H         1 UNK         0.0600 
    214 H214       -6.9461  -23.5940  -46.1481 H         1 UNK         0.0600 
    215 H215       -4.7417  -23.4901  -50.2650 H         1 UNK         0.3000 
    216 H216       -6.8061  -22.8648  -52.1599 H         1 UNK         0.0600 
    217 H217       -3.8251  -23.3744  -52.6475 H         1 UNK         0.0600 
    218 H218       -5.1369  -23.5292  -53.8064 H         1 UNK         0.0600 
    219 H219       -5.0431  -24.6353  -52.4608 H         1 UNK         0.0600 
    220 H220       -4.7093  -20.8259  -50.4819 H         1 UNK         0.3000 
    221 H221       -4.2250  -18.6879  -50.5026 H         1 UNK         0.0600 
    222 H222       -6.8982  -18.5373  -52.0018 H         1 UNK         0.0600 
    223 H223       -6.6544  -18.5209  -50.2613 H         1 UNK         0.0600 
    224 H224       -6.1120  -17.1637  -51.2294 H         1 UNK         0.0600 
    225 H225       -5.7016  -17.8127  -53.5110 H         1 UNK         0.3000 
    226 H226       -3.3509  -16.6434  -54.5887 H         1 UNK         0.0600 
    227 H227       -5.6418  -15.8648  -55.1394 H         1 UNK         0.0600 
    228 H228       -4.7910  -16.3135  -56.6088 H         1 UNK         0.0600 
    229 H229       -6.0018  -17.3981  -55.9349 H         1 UNK         0.0600 
    230 H230       -4.6163  -19.9282  -54.8520 H         1 UNK         0.3000 
    231 H231       -2.7316  -20.6408  -57.0279 H         1 UNK         0.0600 
    232 H232       -3.8474  -22.8933  -56.7836 H         1 UNK         0.0600 
    233 H233       -4.9514  -21.5934  -57.2021 H         1 UNK         0.0600 
    234 H234       -4.9005  -22.1995  -55.5553 H         1 UNK         0.0600 
    235 H235       -2.5987  -20.3409  -53.6163 H         1 UNK         0.3000 
    236 H236       -0.5665  -22.4792  -53.2648 H         1 UNK         0.0600 
    237 H237       -2.2496  -22.2443  -51.4525 H         1 UNK         0.0600 
    238 H238       -0.6458  -21.8303  -50.8823 H         1 UNK         0.0600 
    239 H239       -1.8050  -20.5585  -51.2215 H         1 UNK         0.0600 
    240 H240       -0.9552  -18.9281  -52.7605 H         1 UNK         0.3000 
    241 H241        1.9887  -18.5655  -52.8214 H         1 UNK         0.0600 
    242 H242       -0.4111  -18.4365  -55.2681 H         1 UNK         0.3800 
    243 H243        0.4499  -17.3219  -56.2861 H         1 UNK         0.3800 
    244 H244        1.3723  -16.1962  -52.0275 H         1 UNK         0.0800 
    245 H245       -0.2790  -16.7546  -51.8923 H         1 UNK         0.0800 
    246 H246        0.8210  -15.4718  -49.5319 H         1 UNK         0.0800 
    247 H247        0.9765  -16.5480  -48.1656 H         1 UNK         0.0800 
@<TRIPOS>BOND
     1    1    2 1    
     2    1  127 1    
     3    1  128 1    
     4    1  129 1    
     5    2    3 2    
     6    2    4 am   BACKBONE|DICT|INTERRES
     7    4    5 1    
     8    4  130 1    
     9    5    6 1    
    10    5   65 1    
    11    5  131 1    
    12    6    7 1    
    13    6  132 1    
    14    6  133 1    
    15    7    8 1    
    16    8    9 1    
    17    8  134 1    
    18    8  135 1    
    19    9   10 ar   
    20    9   14 ar   
    21   10   11 ar   
    22   10  136 1    
    23   11   12 ar   
    24   11  126 1    
    25   12   13 ar   
    26   12  137 1    
    27   13   14 ar   
    28   13   15 1    
    29   14  138 1    
    30   15   16 1    
    31   15  139 1    
    32   15  140 1    
    33   16   17 1    
    34   17   18 1    
    35   17  141 1    
    36   17  142 1    
    37   18   19 1    
    38   18   67 1    
    39   18  143 1    
    40   19   20 am   BACKBONE|DICT|INTERRES
    41   19  144 1    
    42   20   21 2    
    43   20   22 1    
    44   22   23 1    
    45   22   24 1    
    46   22  145 1    
    47   23  146 1    
    48   23  147 1    
    49   23  148 1    
    50   24   25 am   BACKBONE|DICT|INTERRES
    51   24  149 1    
    52   25   26 2    
    53   25   27 1    
    54   27   28 1    
    55   27   29 1    
    56   27  150 1    
    57   28  151 1    
    58   28  152 1    
    59   28  153 1    
    60   29   30 am   BACKBONE|DICT|INTERRES
    61   29  154 1    
    62   30   31 2    
    63   30   32 1    
    64   32   33 1    
    65   32   34 1    
    66   32  155 1    
    67   33  156 1    
    68   33  157 1    
    69   33  158 1    
    70   34   35 am   BACKBONE|DICT|INTERRES
    71   34  159 1    
    72   35   36 2    
    73   35   37 1    
    74   37   38 1    
    75   37   39 1    
    76   37  160 1    
    77   38  161 1    
    78   38  162 1    
    79   38  163 1    
    80   39   40 am   BACKBONE|DICT|INTERRES
    81   39  164 1    
    82   40   41 2    
    83   40   42 1    
    84   42   43 1    
    85   42   44 1    
    86   42  165 1    
    87   43  166 1    
    88   43  167 1    
    89   43  168 1    
    90   44   45 am   BACKBONE|DICT|INTERRES
    91   44  169 1    
    92   45   46 2    
    93   45   47 1    
    94   47   48 1    
    95   47   49 1    
    96   47  170 1    
    97   48  171 1    
    98   48  172 1    
    99   48  173 1    
   100   49   50 am   BACKBONE|DICT|INTERRES
   101   49  174 1    
   102   50   51 2    
   103   50   52 1    
   104   52   53 1    
   105   52   54 1    
   106   52  175 1    
   107   53  176 1    
   108   53  177 1    
   109   53  178 1    
   110   54   55 am   BACKBONE|DICT|INTERRES
   111   54  179 1    
   112   55   56 2    
   113   55   57 1    
   114   57   58 1    
   115   57   59 1    
   116   57  180 1    
   117   58  181 1    
   118   58  182 1    
   119   58  183 1    
   120   59   60 am   BACKBONE|DICT|INTERRES
   121   59  184 1    
   122   60   61 2    
   123   60   62 1    
   124   62   63 1    
   125   62   64 1    
   126   62  185 1    
   127   63  186 1    
   128   63  187 1    
   129   63  188 1    
   130   64   65 am   BACKBONE|DICT|INTERRES
   131   64  189 1    
   132   65   66 2    
   133   67   68 2    
   134   67   69 am   BACKBONE|DICT|INTERRES
   135   69   70 1    
   136   69  190 1    
   137   70   71 1    
   138   70   72 1    
   139   70  191 1    
   140   71  192 1    
   141   71  193 1    
   142   71  194 1    
   143   72   73 2    
   144   72   74 am   BACKBONE|DICT|INTERRES
   145   74   75 1    
   146   74  195 1    
   147   75   76 1    
   148   75   77 1    
   149   75  196 1    
   150   76  197 1    
   151   76  198 1    
   152   76  199 1    
   153   77   78 2    
   154   77   79 am   BACKBONE|DICT|INTERRES
   155   79   80 1    
   156   79  200 1    
   157   80   81 1    
   158   80   82 1    
   159   80  201 1    
   160   81  202 1    
   161   81  203 1    
   162   81  204 1    
   163   82   83 2    
   164   82   84 am   BACKBONE|DICT|INTERRES
   165   84   85 1    
   166   84  205 1    
   167   85   86 1    
   168   85   87 1    
   169   85  206 1    
   170   86  207 1    
   171   86  208 1    
   172   86  209 1    
   173   87   88 2    
   174   87   89 am   BACKBONE|DICT|INTERRES
   175   89   90 1    
   176   89  210 1    
   177   90   91 1    
   178   90   92 1    
   179   90  211 1    
   180   91  212 1    
   181   91  213 1    
   182   91  214 1    
   183   92   93 2    
   184   92   94 am   BACKBONE|DICT|INTERRES
   185   94   95 1    
   186   94  215 1    
   187   95   96 1    
   188   95   97 1    
   189   95  216 1    
   190   96  217 1    
   191   96  218 1    
   192   96  219 1    
   193   97   98 2    
   194   97   99 am   BACKBONE|DICT|INTERRES
   195   99  100 1    
   196   99  220 1    
   197  100  101 1    
   198  100  102 1    
   199  100  221 1    
   200  101  222 1    
   201  101  223 1    
   202  101  224 1    
   203  102  103 2    
   204  102  104 am   BACKBONE|DICT|INTERRES
   205  104  105 1    
   206  104  225 1    
   207  105  106 1    
   208  105  107 1    
   209  105  226 1    
   210  106  227 1    
   211  106  228 1    
   212  106  229 1    
   213  107  108 2    
   214  107  109 am   BACKBONE|DICT|INTERRES
   215  109  110 1    
   216  109  230 1    
   217  110  111 1    
   218  110  112 1    
   219  110  231 1    
   220  111  232 1    
   221  111  233 1    
   222  111  234 1    
   223  112  113 2    
   224  112  114 am   BACKBONE|DICT|INTERRES
   225  114  115 1    
   226  114  235 1    
   227  115  116 1    
   228  115  117 1    
   229  115  236 1    
   230  116  237 1    
   231  116  238 1    
   232  116  239 1    
   233  117  118 2    
   234  117  119 am   BACKBONE|DICT|INTERRES
   235  119  120 1    
   236  119  240 1    
   237  120  121 1    
   238  120  124 1    
   239  120  241 1    
   240  121  122 am   BACKBONE|DICT|INTERRES
   241  121  123 2    
   242  122  242 1    
   243  122  243 1    
   244  124  125 1    
   245  124  244 1    
   246  124  245 1    
   247  125  126 1    
   248  126  246 1    
   249  126  247 1    
@<TRIPOS>SUBSTRUCTURE
     1 UNK         1 GROUP             0       ****    0 ROOT    
