@<TRIPOS>MOLECULE
3R540
247   249    1
SMALL
USER_CHARGES


@<TRIPOS>ATOM
      1 CA         -5.6597  -14.3118  -51.5995 C.3       0 UNK        -0.1800 
      2 C          -4.8025  -14.7321  -50.4152 C.2       0 UNK         0.5000 
      3 O          -5.3253  -15.2819  -49.4449 O.2       0 UNK        -0.5000 
      4 N          -3.4940  -14.4557  -50.4931 N.am      1 UNK        -0.5000 
      5 CA         -2.4699  -14.6413  -49.4561 C.3       1 UNK         0.1400 
      6 C6         -2.2954  -16.1019  -48.9571 C.3       23 UNK        -0.0398 
      7 S7         -1.5873  -17.1906  -50.2343 S.3       23 UNK        -0.2404 
      8 C8          0.1192  -17.3244  -49.6182 C.3       23 UNK        -0.0205 
      9 C9          0.9446  -18.2996  -50.4387 C.ar      23 UNK        -0.0193 
     10 C10         1.9076  -17.8354  -51.3380 C.ar      23 UNK        -0.1150 
     11 C11         2.7104  -18.7331  -52.0493 C.ar      23 UNK        -0.0193 
     12 C12         2.5454  -20.1080  -51.8435 C.ar      23 UNK        -0.1150 
     13 C13         1.5666  -20.5838  -50.9660 C.ar      23 UNK        -0.0193 
     14 C14         0.7678  -19.6735  -50.2700 C.ar      23 UNK        -0.1150 
     15 C15         1.3525  -22.0788  -50.7866 C.3       23 UNK        -0.0205 
     16 S16         2.5290  -22.8335  -49.6182 S.3       23 UNK        -0.2404 
     17 C17         2.1546  -22.0015  -48.0371 C.3       23 UNK        -0.0398 
     18 CA          1.0947  -22.7401  -47.1826 C.3       11 UNK         0.1400 
     19 N           1.2865  -22.4996  -45.7518 N.am      11 UNK        -0.5000 
     20 C           0.6332  -23.1342  -44.7684 C.2       10 UNK         0.5000 
     21 O          -0.1779  -24.0414  -44.9568 O.2       10 UNK        -0.5000 
     22 CA          0.8909  -22.6259  -43.3374 C.3       10 UNK         0.1400 
     23 CB          2.2161  -23.1709  -42.7842 C.3       10 UNK        -0.1800 
     24 N           0.8880  -21.1634  -43.2636 N.am      10 UNK        -0.5000 
     25 C          -0.1879  -20.4028  -43.5115 C.2       9 UNK         0.5000 
     26 O          -1.3002  -20.8564  -43.7738 O.2       9 UNK        -0.5000 
     27 CA          0.0203  -18.8818  -43.5134 C.3       9 UNK         0.1400 
     28 CB         -0.0697  -18.3206  -42.0896 C.3       9 UNK        -0.1800 
     29 N           1.2930  -18.4992  -44.1262 N.am      9 UNK        -0.5000 
     30 C           1.5543  -18.6145  -45.4371 C.2       8 UNK         0.5000 
     31 O           0.7429  -19.0327  -46.2612 O.2       8 UNK        -0.5000 
     32 CA          2.9744  -18.2496  -45.9029 C.3       8 UNK         0.1400 
     33 CB          3.1093  -16.7323  -46.0960 C.3       8 UNK        -0.1800 
     34 N           4.0087  -18.7204  -44.9820 N.am      8 UNK        -0.5000 
     35 C           4.2378  -20.0091  -44.6922 C.2       7 UNK         0.5000 
     36 O           3.6256  -20.9430  -45.2074 O.2       7 UNK        -0.5000 
     37 CA          5.2934  -20.3082  -43.6131 C.3       7 UNK         0.1400 
     38 CB          6.6683  -20.5391  -44.2570 C.3       7 UNK        -0.1800 
     39 N           5.4072  -19.2637  -42.5920 N.am      7 UNK        -0.5000 
     40 C           4.4239  -18.8780  -41.7670 C.2       6 UNK         0.5000 
     41 O           3.2880  -19.3600  -41.7950 O.2       6 UNK        -0.5000 
     42 CA          4.7975  -17.7975  -40.7305 C.3       6 UNK         0.1400 
     43 CB          5.6336  -16.6476  -41.3373 C.3       6 UNK        -0.1800 
     44 N           3.6409  -17.2731  -39.9968 N.am      6 UNK        -0.5000 
     45 C           2.6427  -16.5131  -40.4679 C.2       5 UNK         0.5000 
     46 O           2.5482  -16.1234  -41.6360 O.2       5 UNK        -0.5000 
     47 CA          1.5780  -16.1110  -39.4343 C.3       5 UNK         0.1400 
     48 CB          2.1843  -15.2569  -38.3015 C.3       5 UNK        -0.1800 
     49 N           0.5066  -15.3638  -40.0859 N.am      5 UNK        -0.5000 
     50 C          -0.7379  -15.2246  -39.6136 C.2       4 UNK         0.5000 
     51 O          -1.1344  -15.7618  -38.5783 O.2       4 UNK        -0.5000 
     52 CA         -1.7036  -14.3206  -40.4025 C.3       4 UNK         0.1400 
     53 CB         -1.8875  -12.9796  -39.6734 C.3       4 UNK        -0.1800 
     54 N          -1.2498  -14.0477  -41.7678 N.am      4 UNK        -0.5000 
     55 C          -1.6052  -14.7663  -42.8380 C.2       3 UNK         0.5000 
     56 O          -2.3308  -15.7619  -42.7925 O.2       3 UNK        -0.5000 
     57 CA         -1.0576  -14.2902  -44.1931 C.3       3 UNK         0.1400 
     58 CB         -0.0317  -15.2841  -44.7574 C.3       3 UNK        -0.1800 
     59 N          -2.1424  -14.1282  -45.1563 N.am      3 UNK        -0.5000 
     60 C          -3.0102  -13.1075  -45.1724 C.2       2 UNK         0.5000 
     61 O          -2.9707  -12.1745  -44.3679 O.2       2 UNK        -0.5000 
     62 CA         -4.0979  -13.1363  -46.2728 C.3       2 UNK         0.1400 
     63 CB         -4.5928  -11.7262  -46.6563 C.3       2 UNK        -0.1800 
     64 N          -3.7130  -13.8888  -47.4755 N.am      2 UNK        -0.5000 
     65 C          -2.6677  -13.6587  -48.2848 C.2       1 UNK         0.5000 
     66 O          -1.8716  -12.7307  -48.1379 O.2       1 UNK        -0.5000 
     67 C          -0.3431  -22.3958  -47.6224 C.2       11 UNK         0.5000 
     68 O          -0.9791  -23.2066  -48.2951 O.2       11 UNK        -0.5000 
     69 N          -0.8502  -21.2275  -47.1979 N.am      12 UNK        -0.5000 
     70 CA         -2.2198  -20.7808  -47.4544 C.3       12 UNK         0.1400 
     71 CB         -2.4161  -19.3457  -46.9459 C.3       12 UNK        -0.1800 
     72 C          -3.2748  -21.7190  -46.8462 C.2       12 UNK         0.5000 
     73 O          -4.2483  -22.0385  -47.5243 O.2       12 UNK        -0.5000 
     74 N          -3.0532  -22.1791  -45.6073 N.am      13 UNK        -0.5000 
     75 CA         -3.9104  -23.1469  -44.9206 C.3       13 UNK         0.1400 
     76 CB         -3.4502  -23.3109  -43.4644 C.3       13 UNK        -0.1800 
     77 C          -3.9644  -24.5096  -45.6348 C.2       13 UNK         0.5000 
     78 O          -5.0480  -25.0802  -45.7627 O.2       13 UNK        -0.5000 
     79 N          -2.8089  -24.9851  -46.1207 N.am      14 UNK        -0.5000 
     80 CA         -2.6861  -26.2118  -46.9105 C.3       14 UNK         0.1400 
     81 CB         -1.2018  -26.5815  -47.0537 C.3       14 UNK        -0.1800 
     82 C          -3.3611  -26.1031  -48.2920 C.2       14 UNK         0.5000 
     83 O          -4.0055  -27.0564  -48.7308 O.2       14 UNK        -0.5000 
     84 N          -3.2163  -24.9409  -48.9418 N.am      15 UNK        -0.5000 
     85 CA         -3.8074  -24.6285  -50.2448 C.3       15 UNK         0.1400 
     86 CB         -3.0560  -23.4334  -50.8483 C.3       15 UNK        -0.1800 
     87 C          -5.3198  -24.3284  -50.1956 C.2       15 UNK         0.5000 
     88 O          -5.9667  -24.3649  -51.2427 O.2       15 UNK        -0.5000 
     89 N          -5.8426  -24.0244  -48.9987 N.am      16 UNK        -0.5000 
     90 CA         -7.1911  -23.5234  -48.7104 C.3       16 UNK         0.1400 
     91 CB         -8.2806  -24.5343  -49.1267 C.3       16 UNK        -0.1800 
     92 C          -7.4115  -22.1013  -49.2732 C.2       16 UNK         0.5000 
     93 O          -8.4667  -21.8073  -49.8389 O.2       16 UNK        -0.5000 
     94 N          -6.3977  -21.2473  -49.0742 N.am      17 UNK        -0.5000 
     95 CA         -6.2925  -19.8431  -49.4748 C.3       17 UNK         0.1400 
     96 CB         -7.3007  -18.9811  -48.6818 C.3       17 UNK        -0.1800 
     97 C          -6.3525  -19.6366  -51.0052 C.2       17 UNK         0.5000 
     98 O          -5.9722  -20.5369  -51.7569 O.2       17 UNK        -0.5000 
     99 N          -6.7951  -18.4389  -51.4191 N.am      18 UNK        -0.5000 
    100 CA        -6.8292  -17.8874  -52.7791 C.3       18 UNK         0.1400 
    101 CB        -7.5813  -18.8124  -53.7582 C.3       18 UNK        -0.1800 
    102 C         -5.4302  -17.5240  -53.3148 C.2       18 UNK         0.5000 
    103 O         -4.4162  -18.0556  -52.8624 O.2       18 UNK        -0.5000 
    104 N         -5.3975  -16.6229  -54.3060 N.am      19 UNK        -0.5000 
    105 CA        -4.1700  -16.1784  -54.9797 C.3       19 UNK         0.1400 
    106 CB        -4.4960  -14.9644  -55.8625 C.3       19 UNK        -0.1800 
    107 C         -3.4918  -17.2887  -55.8100 C.2       19 UNK         0.5000 
    108 O         -2.2926  -17.2100  -56.0772 O.2       19 UNK        -0.5000 
    109 N         -4.2699  -18.3166  -56.1748 N.am      20 UNK        -0.5000 
    110 CA        -3.8325  -19.5200  -56.8788 C.3       20 UNK         0.1400 
    111 CB        -5.0775  -20.2574  -57.3974 C.3       20 UNK        -0.1800 
    112 C         -2.9590  -20.4678  -56.0300 C.2       20 UNK         0.5000 
    113 O         -2.3844  -21.3985  -56.5963 O.2       20 UNK        -0.5000 
    114 N         -2.8598  -20.2329  -54.7100 N.am      21 UNK        -0.5000 
    115 CA        -2.1030  -21.0451  -53.7493 C.3       21 UNK         0.1400 
    116 CB        -2.2043  -20.4119  -52.3535 C.3       21 UNK        -0.1800 
    117 C         -0.6239  -21.2644  -54.1176 C.2       21 UNK         0.5000 
    118 O         -0.0987  -22.3510  -53.8749 O.2       21 UNK        -0.5000 
    119 N          0.0024  -20.2472  -54.7230 N.am      22 UNK        -0.5000 
    120 CA         1.3790  -20.3069  -55.2371 C.3       22 UNK         0.1400 
    121 C          1.5236  -20.9984  -56.6288 C.2       22 UNK         0.5000 
    122 N          0.4558  -21.4547  -57.2735 N.am      22 UNK        -0.7600 
    123 O          2.6325  -21.1378  -57.1371 O.2       22 UNK        -0.5000 
    124 C124        2.0633  -18.9106  -55.1919 C.3       23 UNK        -0.0398 
    125 S125        3.8018  -19.0257  -54.6388 S.3       23 UNK        -0.2404 
    126 C126        3.7656  -18.1946  -53.0126 C.3       23 UNK        -0.0205 
    127 H127       -6.0702  -13.3170  -51.4273 H         1 UNK         0.0600 
    128 H128       -6.4921  -15.0008  -51.7313 H         1 UNK         0.0600 
    129 H129       -5.0820  -14.2906  -52.5236 H         1 UNK         0.0600 
    130 H130       -3.1563  -13.9944  -51.3259 H         1 UNK         0.3000 
    131 H131       -1.5286  -14.3511  -49.9265 H         1 UNK         0.0600 
    132 H132       -3.2426  -16.5328  -48.6327 H         1 UNK         0.0800 
    133 H133       -1.6480  -16.1313  -48.0789 H         1 UNK         0.0800 
    134 H134        0.1134  -17.6583  -48.5799 H         1 UNK         0.0800 
    135 H135        0.5804  -16.3356  -49.6202 H         1 UNK         0.0800 
    136 H136        2.0405  -16.7713  -51.4735 H         1 UNK         0.1150 
    137 H137        3.1689  -20.8108  -52.3778 H         1 UNK         0.1150 
    138 H138        0.0105  -20.0301  -49.5872 H         1 UNK         0.1150 
    139 H139        0.3291  -22.2852  -50.4732 H         1 UNK         0.0800 
    140 H140        1.4705  -22.5742  -51.7507 H         1 UNK         0.0800 
    141 H141        1.9062  -20.9507  -48.1830 H         1 UNK         0.0800 
    142 H142        3.1040  -21.9919  -47.5020 H         1 UNK         0.0800 
    143 H143        1.2288  -23.8143  -47.3285 H         1 UNK         0.0600 
    144 H144        1.9780  -21.7973  -45.5013 H         1 UNK         0.3000 
    145 H145        0.0822  -22.9944  -42.7028 H         1 UNK         0.0600 
    146 H146        2.3833  -22.8370  -41.7600 H         1 UNK         0.0600 
    147 H147        2.2129  -24.2615  -42.7750 H         1 UNK         0.0600 
    148 H148        3.0686  -22.8524  -43.3836 H         1 UNK         0.0600 
    149 H149        1.7638  -20.7063  -43.0451 H         1 UNK         0.3000 
    150 H150       -0.7875  -18.4377  -44.0980 H         1 UNK         0.0600 
    151 H151       -1.0379  -18.5466  -41.6412 H         1 UNK         0.0600 
    152 H152        0.0371  -17.2378  -42.0960 H         1 UNK         0.0600 
    153 H153        0.7001  -18.7342  -41.4383 H         1 UNK         0.0600 
    154 H154        2.0255  -18.1939  -43.4990 H         1 UNK         0.3000 
    155 H155        3.1390  -18.7328  -46.8686 H         1 UNK         0.0600 
    156 H156        2.9955  -16.1938  -45.1542 H         1 UNK         0.0600 
    157 H157        2.3501  -16.3580  -46.7843 H         1 UNK         0.0600 
    158 H158        4.0817  -16.4736  -46.5152 H         1 UNK         0.0600 
    159 H159        4.5519  -18.0169  -44.5043 H         1 UNK         0.3000 
    160 H160        4.9932  -21.2296  -43.1102 H         1 UNK         0.0600 
    161 H161        7.0384  -19.6395  -44.7506 H         1 UNK         0.0600 
    162 H162        6.6201  -21.3293  -45.0077 H         1 UNK         0.0600 
    163 H163        7.4062  -20.8437  -43.5146 H         1 UNK         0.0600 
    164 H164        6.3132  -18.8276  -42.5004 H         1 UNK         0.3000 
    165 H165        5.4168  -18.2971  -39.9844 H         1 UNK         0.0600 
    166 H166        5.8079  -15.8597  -40.6044 H         1 UNK         0.0600 
    167 H167        6.6136  -16.9954  -41.6647 H         1 UNK         0.0600 
    168 H168        5.1418  -16.1963  -42.1997 H         1 UNK         0.0600 
    169 H169        3.5928  -17.5612  -39.0298 H         1 UNK         0.3000 
    170 H170        1.1661  -17.0321  -39.0164 H         1 UNK         0.0600 
    171 H171        2.9683  -15.7951  -37.7682 H         1 UNK         0.0600 
    172 H172        2.6221  -14.3358  -38.6881 H         1 UNK         0.0600 
    173 H173        1.4311  -14.9825  -37.5629 H         1 UNK         0.0600 
    174 H174        0.7585  -14.9593  -40.9780 H         1 UNK         0.3000 
    175 H175       -2.6732  -14.8227  -40.4290 H         1 UNK         0.0600 
    176 H176       -0.9490  -12.4287  -39.5993 H         1 UNK         0.0600 
    177 H177       -2.6094  -12.3464  -40.1896 H         1 UNK         0.0600 
    178 H178       -2.2590  -13.1326  -38.6592 H         1 UNK         0.0600 
    179 H179       -0.6634  -13.2345  -41.8914 H         1 UNK         0.3000 
    180 H180       -0.5592  -13.3273  -44.0617 H         1 UNK         0.0600 
    181 H181       -0.4918  -16.2422  -44.9986 H         1 UNK         0.0600 
    182 H182        0.7685  -15.4724  -44.0400 H         1 UNK         0.0600 
    183 H183        0.4297  -14.8986  -45.6667 H         1 UNK         0.0600 
    184 H184       -2.2759  -14.8778  -45.8165 H         1 UNK         0.3000 
    185 H185       -4.9433  -13.6728  -45.8401 H         1 UNK         0.0600 
    186 H186       -5.0220  -11.2125  -45.7953 H         1 UNK         0.0600 
    187 H187       -3.7835  -11.1034  -47.0384 H         1 UNK         0.0600 
    188 H188       -5.3679  -11.7755  -47.4212 H         1 UNK         0.0600 
    189 H189       -4.3509  -14.6280  -47.7536 H         1 UNK         0.3000 
    190 H190       -0.2577  -20.5845  -46.6787 H         1 UNK         0.3000 
    191 H191       -2.3651  -20.7756  -48.5367 H         1 UNK         0.0600 
    192 H192       -2.2747  -19.2765  -45.8675 H         1 UNK         0.0600 
    193 H193       -3.4206  -18.9851  -47.1707 H         1 UNK         0.0600 
    194 H194       -1.7134  -18.6622  -47.4187 H         1 UNK         0.0600 
    195 H195       -2.2577  -21.8240  -45.0827 H         1 UNK         0.3000 
    196 H196       -4.9238  -22.7404  -44.9100 H         1 UNK         0.0600 
    197 H197       -4.0801  -24.0252  -42.9328 H         1 UNK         0.0600 
    198 H198       -3.5059  -22.3650  -42.9256 H         1 UNK         0.0600 
    199 H199       -2.4224  -23.6696  -43.4040 H         1 UNK         0.0600 
    200 H200       -1.9530  -24.4707  -45.9393 H         1 UNK         0.3000 
    201 H201       -3.1822  -27.0149  -46.3617 H         1 UNK         0.0600 
    202 H202       -0.7372  -26.7290  -46.0785 H         1 UNK         0.0600 
    203 H203       -0.6404  -25.8063  -47.5758 H         1 UNK         0.0600 
    204 H204       -1.0825  -27.5087  -47.6154 H         1 UNK         0.0600 
    205 H205       -2.6072  -24.2326  -48.5407 H         1 UNK         0.3000 
    206 H206       -3.6652  -25.4876  -50.9036 H         1 UNK         0.0600 
    207 H207       -1.9961  -23.6532  -50.9784 H         1 UNK         0.0600 
    208 H208       -3.4597  -23.1765  -51.8277 H         1 UNK         0.0600 
    209 H209       -3.1416  -22.5484  -50.2167 H         1 UNK         0.0600 
    210 H210       -5.1963  -23.9829  -48.2209 H         1 UNK         0.3000 
    211 H211       -7.2418  -23.4261  -47.6249 H         1 UNK         0.0600 
    212 H212       -8.3598  -24.6293  -50.2097 H         1 UNK         0.0600 
    213 H213       -9.2582  -24.2230  -48.7574 H         1 UNK         0.0600 
    214 H214       -8.0782  -25.5233  -48.7155 H         1 UNK         0.0600 
    215 H215       -5.5779  -21.6116  -48.5902 H         1 UNK         0.3000 
    216 H216       -5.2906  -19.5310  -49.1758 H         1 UNK         0.0600 
    217 H217       -7.0868  -17.9167  -48.7857 H         1 UNK         0.0600 
    218 H218       -7.2539  -19.2069  -47.6163 H         1 UNK         0.0600 
    219 H219       -8.3262  -19.1512  -49.0118 H         1 UNK         0.0600 
    220 H220       -7.0537  -17.7814  -50.6972 H         1 UNK         0.3000 
    221 H221       -7.3989  -16.9607  -52.7027 H         1 UNK         0.0600 
    222 H222       -7.0134  -19.7139  -53.9899 H         1 UNK         0.0600 
    223 H223       -8.5452  -19.1183  -53.3513 H         1 UNK         0.0600 
    224 H224       -7.7765  -18.3048  -54.7033 H         1 UNK         0.0600 
    225 H225       -6.2624  -16.2220  -54.6399 H         1 UNK         0.3000 
    226 H226       -3.4576  -15.8638  -54.2139 H         1 UNK         0.0600 
    227 H227       -4.9065  -14.1453  -55.2717 H         1 UNK         0.0600 
    228 H228       -3.5991  -14.5887  -56.3568 H         1 UNK         0.0600 
    229 H229       -5.2189  -15.2146  -56.6399 H         1 UNK         0.0600 
    230 H230       -5.2419  -18.2855  -55.9068 H         1 UNK         0.3000 
    231 H231       -3.2333  -19.2120  -57.7380 H         1 UNK         0.0600 
    232 H232       -5.6671  -19.6214  -58.0581 H         1 UNK         0.0600 
    233 H233       -5.7218  -20.5824  -56.5793 H         1 UNK         0.0600 
    234 H234       -4.7995  -21.1444  -57.9683 H         1 UNK         0.0600 
    235 H235       -3.3706  -19.4517  -54.3171 H         1 UNK         0.3000 
    236 H236       -2.5765  -22.0276  -53.7180 H         1 UNK         0.0600 
    237 H237       -1.6255  -20.9742  -51.6203 H         1 UNK         0.0600 
    238 H238       -1.8271  -19.3888  -52.3508 H         1 UNK         0.0600 
    239 H239       -3.2354  -20.3897  -52.0021 H         1 UNK         0.0600 
    240 H240       -0.5177  -19.4025  -54.9120 H         1 UNK         0.3000 
    241 H241        1.9246  -20.9615  -54.5554 H         1 UNK         0.0600 
    242 H242        0.5793  -21.9024  -58.1675 H         1 UNK         0.3800 
    243 H243       -0.4774  -21.3865  -56.8789 H         1 UNK         0.3800 
    244 H244        2.0305  -18.4158  -56.1642 H         1 UNK         0.0800 
    245 H245        1.5318  -18.2408  -54.5147 H         1 UNK         0.0800 
    246 H246        3.6181  -17.1268  -53.1821 H         1 UNK         0.0800 
    247 H247        4.7459  -18.2976  -52.5460 H         1 UNK         0.0800 
@<TRIPOS>BOND
     1    1    2 1    
     2    1  127 1    
     3    1  128 1    
     4    1  129 1    
     5    2    3 2    
     6    2    4 am   BACKBONE|DICT|INTERRES
     7    4    5 1    
     8    4  130 1    
     9    5    6 1    
    10    5   65 1    
    11    5  131 1    
    12    6    7 1    
    13    6  132 1    
    14    6  133 1    
    15    7    8 1    
    16    8    9 1    
    17    8  134 1    
    18    8  135 1    
    19    9   10 ar   
    20    9   14 ar   
    21   10   11 ar   
    22   10  136 1    
    23   11   12 ar   
    24   11  126 1    
    25   12   13 ar   
    26   12  137 1    
    27   13   14 ar   
    28   13   15 1    
    29   14  138 1    
    30   15   16 1    
    31   15  139 1    
    32   15  140 1    
    33   16   17 1    
    34   17   18 1    
    35   17  141 1    
    36   17  142 1    
    37   18   19 1    
    38   18   67 1    
    39   18  143 1    
    40   19   20 am   BACKBONE|DICT|INTERRES
    41   19  144 1    
    42   20   21 2    
    43   20   22 1    
    44   22   23 1    
    45   22   24 1    
    46   22  145 1    
    47   23  146 1    
    48   23  147 1    
    49   23  148 1    
    50   24   25 am   BACKBONE|DICT|INTERRES
    51   24  149 1    
    52   25   26 2    
    53   25   27 1    
    54   27   28 1    
    55   27   29 1    
    56   27  150 1    
    57   28  151 1    
    58   28  152 1    
    59   28  153 1    
    60   29   30 am   BACKBONE|DICT|INTERRES
    61   29  154 1    
    62   30   31 2    
    63   30   32 1    
    64   32   33 1    
    65   32   34 1    
    66   32  155 1    
    67   33  156 1    
    68   33  157 1    
    69   33  158 1    
    70   34   35 am   BACKBONE|DICT|INTERRES
    71   34  159 1    
    72   35   36 2    
    73   35   37 1    
    74   37   38 1    
    75   37   39 1    
    76   37  160 1    
    77   38  161 1    
    78   38  162 1    
    79   38  163 1    
    80   39   40 am   BACKBONE|DICT|INTERRES
    81   39  164 1    
    82   40   41 2    
    83   40   42 1    
    84   42   43 1    
    85   42   44 1    
    86   42  165 1    
    87   43  166 1    
    88   43  167 1    
    89   43  168 1    
    90   44   45 am   BACKBONE|DICT|INTERRES
    91   44  169 1    
    92   45   46 2    
    93   45   47 1    
    94   47   48 1    
    95   47   49 1    
    96   47  170 1    
    97   48  171 1    
    98   48  172 1    
    99   48  173 1    
   100   49   50 am   BACKBONE|DICT|INTERRES
   101   49  174 1    
   102   50   51 2    
   103   50   52 1    
   104   52   53 1    
   105   52   54 1    
   106   52  175 1    
   107   53  176 1    
   108   53  177 1    
   109   53  178 1    
   110   54   55 am   BACKBONE|DICT|INTERRES
   111   54  179 1    
   112   55   56 2    
   113   55   57 1    
   114   57   58 1    
   115   57   59 1    
   116   57  180 1    
   117   58  181 1    
   118   58  182 1    
   119   58  183 1    
   120   59   60 am   BACKBONE|DICT|INTERRES
   121   59  184 1    
   122   60   61 2    
   123   60   62 1    
   124   62   63 1    
   125   62   64 1    
   126   62  185 1    
   127   63  186 1    
   128   63  187 1    
   129   63  188 1    
   130   64   65 am   BACKBONE|DICT|INTERRES
   131   64  189 1    
   132   65   66 2    
   133   67   68 2    
   134   67   69 am   BACKBONE|DICT|INTERRES
   135   69   70 1    
   136   69  190 1    
   137   70   71 1    
   138   70   72 1    
   139   70  191 1    
   140   71  192 1    
   141   71  193 1    
   142   71  194 1    
   143   72   73 2    
   144   72   74 am   BACKBONE|DICT|INTERRES
   145   74   75 1    
   146   74  195 1    
   147   75   76 1    
   148   75   77 1    
   149   75  196 1    
   150   76  197 1    
   151   76  198 1    
   152   76  199 1    
   153   77   78 2    
   154   77   79 am   BACKBONE|DICT|INTERRES
   155   79   80 1    
   156   79  200 1    
   157   80   81 1    
   158   80   82 1    
   159   80  201 1    
   160   81  202 1    
   161   81  203 1    
   162   81  204 1    
   163   82   83 2    
   164   82   84 am   BACKBONE|DICT|INTERRES
   165   84   85 1    
   166   84  205 1    
   167   85   86 1    
   168   85   87 1    
   169   85  206 1    
   170   86  207 1    
   171   86  208 1    
   172   86  209 1    
   173   87   88 2    
   174   87   89 am   BACKBONE|DICT|INTERRES
   175   89   90 1    
   176   89  210 1    
   177   90   91 1    
   178   90   92 1    
   179   90  211 1    
   180   91  212 1    
   181   91  213 1    
   182   91  214 1    
   183   92   93 2    
   184   92   94 am   BACKBONE|DICT|INTERRES
   185   94   95 1    
   186   94  215 1    
   187   95   96 1    
   188   95   97 1    
   189   95  216 1    
   190   96  217 1    
   191   96  218 1    
   192   96  219 1    
   193   97   98 2    
   194   97   99 am   BACKBONE|DICT|INTERRES
   195   99  100 1    
   196   99  220 1    
   197  100  101 1    
   198  100  102 1    
   199  100  221 1    
   200  101  222 1    
   201  101  223 1    
   202  101  224 1    
   203  102  103 2    
   204  102  104 am   BACKBONE|DICT|INTERRES
   205  104  105 1    
   206  104  225 1    
   207  105  106 1    
   208  105  107 1    
   209  105  226 1    
   210  106  227 1    
   211  106  228 1    
   212  106  229 1    
   213  107  108 2    
   214  107  109 am   BACKBONE|DICT|INTERRES
   215  109  110 1    
   216  109  230 1    
   217  110  111 1    
   218  110  112 1    
   219  110  231 1    
   220  111  232 1    
   221  111  233 1    
   222  111  234 1    
   223  112  113 2    
   224  112  114 am   BACKBONE|DICT|INTERRES
   225  114  115 1    
   226  114  235 1    
   227  115  116 1    
   228  115  117 1    
   229  115  236 1    
   230  116  237 1    
   231  116  238 1    
   232  116  239 1    
   233  117  118 2    
   234  117  119 am   BACKBONE|DICT|INTERRES
   235  119  120 1    
   236  119  240 1    
   237  120  121 1    
   238  120  124 1    
   239  120  241 1    
   240  121  122 am   BACKBONE|DICT|INTERRES
   241  121  123 2    
   242  122  242 1    
   243  122  243 1    
   244  124  125 1    
   245  124  244 1    
   246  124  245 1    
   247  125  126 1    
   248  126  246 1    
   249  126  247 1    
@<TRIPOS>SUBSTRUCTURE
     1 UNK         1 GROUP             0       ****    0 ROOT    
