@<TRIPOS>MOLECULE
3R540
247   249    1
SMALL
USER_CHARGES


@<TRIPOS>ATOM
      1 CA          0.7425  -12.8883  -42.0652 C.3       0 UNK        -0.1800 
      2 C          -0.2982  -12.1304  -42.8734 C.2       0 UNK         0.5000 
      3 O          -0.2427  -10.9034  -42.9491 O.2       0 UNK        -0.5000 
      4 N          -1.2560  -12.8583  -43.4591 N.am      1 UNK        -0.5000 
      5 CA         -2.4103  -12.3102  -44.1785 C.3       1 UNK         0.1400 
      6 C6         -3.5257  -13.3644  -44.3909 C.3       23 UNK        -0.0398 
      7 S7         -2.9509  -14.9417  -45.1156 S.3       23 UNK        -0.2404 
      8 C8         -3.7174  -14.8879  -46.7645 C.3       23 UNK        -0.0205 
      9 C9         -3.5696  -16.2314  -47.4574 C.ar      23 UNK        -0.0193 
     10 C10        -2.4967  -16.4720  -48.3208 C.ar      23 UNK        -0.1150 
     11 C11        -2.3236  -17.7303  -48.9031 C.ar      23 UNK        -0.0193 
     12 C12        -3.2471  -18.7427  -48.6360 C.ar      23 UNK        -0.1150 
     13 C13        -4.3283  -18.5118  -47.7818 C.ar      23 UNK        -0.0193 
     14 C14        -4.4903  -17.2516  -47.2019 C.ar      23 UNK        -0.1150 
     15 C15        -5.2989  -19.6388  -47.4641 C.3       23 UNK        -0.0205 
     16 S16        -5.1304  -20.2770  -45.7615 S.3       23 UNK        -0.2404 
     17 C17        -3.3250  -20.4566  -45.5510 C.3       23 UNK        -0.0398 
     18 CA         -2.7140  -21.6635  -46.3065 C.3       11 UNK         0.1400 
     19 N          -1.2917  -21.4450  -46.5928 N.am      11 UNK        -0.5000 
     20 C          -0.5028  -22.2758  -47.2880 C.2       10 UNK         0.5000 
     21 O          -0.8951  -23.3138  -47.8169 O.2       10 UNK        -0.5000 
     22 CA          0.9920  -21.9196  -47.3582 C.3       10 UNK         0.1400 
     23 CB          1.2528  -20.8508  -48.4307 C.3       10 UNK        -0.1800 
     24 N           1.5226  -21.4786  -46.0667 N.am      10 UNK        -0.5000 
     25 C           1.5726  -22.2467  -44.9675 C.2       9 UNK         0.5000 
     26 O           1.2299  -23.4279  -44.9457 O.2       9 UNK        -0.5000 
     27 CA          2.0207  -21.5722  -43.6582 C.3       9 UNK         0.1400 
     28 CB          3.5481  -21.4272  -43.6069 C.3       9 UNK        -0.1800 
     29 N           1.3876  -20.2684  -43.4595 N.am      9 UNK        -0.5000 
     30 C           0.0669  -20.0814  -43.3206 C.2       8 UNK         0.5000 
     31 O          -0.7538  -20.9981  -43.2802 O.2       8 UNK        -0.5000 
     32 CA         -0.4252  -18.6242  -43.2740 C.3       8 UNK         0.1400 
     33 CB         -0.3341  -18.0530  -41.8512 C.3       8 UNK        -0.1800 
     34 N           0.3137  -17.7628  -44.1957 N.am      8 UNK        -0.5000 
     35 C           0.2598  -17.8611  -45.5312 C.2       7 UNK         0.5000 
     36 O          -0.4282  -18.6849  -46.1315 O.2       7 UNK        -0.5000 
     37 CA          1.1805  -16.9136  -46.3172 C.3       7 UNK         0.1400 
     38 CB          0.6351  -15.4797  -46.2856 C.3       7 UNK        -0.1800 
     39 N           2.5421  -16.9102  -45.7858 N.am      7 UNK        -0.5000 
     40 C           3.3755  -17.9615  -45.8046 C.2       6 UNK         0.5000 
     41 O           3.1022  -19.0377  -46.3341 O.2       6 UNK        -0.5000 
     42 CA          4.7225  -17.8039  -45.0681 C.3       6 UNK         0.1400 
     43 CB          5.8096  -17.3196  -46.0384 C.3       6 UNK        -0.1800 
     44 N           4.6563  -16.8867  -43.9293 N.am      6 UNK        -0.5000 
     45 C           3.8358  -17.0165  -42.8775 C.2       5 UNK         0.5000 
     46 O           3.1229  -18.0031  -42.6910 O.2       5 UNK        -0.5000 
     47 CA          3.7445  -15.8248  -41.9032 C.3       5 UNK         0.1400 
     48 CB          4.5099  -16.1346  -40.6084 C.3       5 UNK        -0.1800 
     49 N           4.2116  -14.5374  -42.4370 N.am      5 UNK        -0.5000 
     50 C           3.7392  -13.9075  -43.5221 C.2       4 UNK         0.5000 
     51 O           2.8908  -14.3830  -44.2813 O.2       4 UNK        -0.5000 
     52 CA          4.3302  -12.5213  -43.8078 C.3       4 UNK         0.1400 
     53 CB          5.7723  -12.6361  -44.3330 C.3       4 UNK        -0.1800 
     54 N           3.5134  -11.8242  -44.7995 N.am      4 UNK        -0.5000 
     55 C           3.3043  -10.5017  -44.8248 C.2       3 UNK         0.5000 
     56 O           3.7214   -9.7264  -43.9636 O.2       3 UNK        -0.5000 
     57 CA          2.5245   -9.9421  -46.0239 C.3       3 UNK         0.1400 
     58 CB          3.4889   -9.7558  -47.2156 C.3       3 UNK        -0.1800 
     59 N           1.3918  -10.8021  -46.3766 N.am      3 UNK        -0.5000 
     60 C           0.4636  -10.5212  -47.3027 C.2       2 UNK         0.5000 
     61 O           0.4427   -9.4843  -47.9669 O.2       2 UNK        -0.5000 
     62 CA         -0.6374  -11.5721  -47.5220 C.3       2 UNK         0.1400 
     63 CB         -0.1511  -12.6760  -48.4728 C.3       2 UNK        -0.1800 
     64 N          -1.0957  -12.1569  -46.2593 N.am      2 UNK        -0.5000 
     65 C          -2.0363  -11.5898  -45.4900 C.2       1 UNK         0.5000 
     66 O          -2.6048  -10.5342  -45.7747 O.2       1 UNK        -0.5000 
     67 C          -2.9637  -22.9859  -45.5482 C.2       11 UNK         0.5000 
     68 O          -3.8843  -23.7264  -45.8905 O.2       11 UNK        -0.5000 
     69 N          -2.1210  -23.2775  -44.5484 N.am      12 UNK        -0.5000 
     70 CA         -2.1609  -24.5211  -43.7828 C.3       12 UNK         0.1400 
     71 CB         -1.2951  -24.3715  -42.5222 C.3       12 UNK        -0.1800 
     72 C          -1.7224  -25.7446  -44.6101 C.2       12 UNK         0.5000 
     73 O          -2.3754  -26.7866  -44.5427 O.2       12 UNK        -0.5000 
     74 N          -0.6207  -25.6039  -45.3586 N.am      13 UNK        -0.5000 
     75 CA          0.0114  -26.6894  -46.1063 C.3       13 UNK         0.1400 
     76 CB          1.4628  -26.3032  -46.4321 C.3       13 UNK        -0.1800 
     77 C          -0.7363  -27.0816  -47.3922 C.2       13 UNK         0.5000 
     78 O          -0.9013  -28.2750  -47.6495 O.2       13 UNK        -0.5000 
     79 N          -1.1370  -26.0846  -48.1904 N.am      14 UNK        -0.5000 
     80 CA         -1.6509  -26.2657  -49.5506 C.3       14 UNK         0.1400 
     81 CB         -0.7773  -25.4494  -50.5190 C.3       14 UNK        -0.1800 
     82 C          -3.1446  -25.9212  -49.6937 C.2       14 UNK         0.5000 
     83 O          -3.6684  -26.0170  -50.8020 O.2       14 UNK        -0.5000 
     84 N          -3.8162  -25.5721  -48.5884 N.am      15 UNK        -0.5000 
     85 CA         -5.2486  -25.2783  -48.4919 C.3       15 UNK         0.1400 
     86 CB         -6.1017  -26.5182  -48.8527 C.3       15 UNK        -0.1800 
     87 C          -5.6426  -23.9857  -49.2399 C.2       15 UNK         0.5000 
     88 O          -5.1634  -22.9160  -48.8678 O.2       15 UNK        -0.5000 
     89 N          -6.5552  -24.0923  -50.2163 N.am      16 UNK        -0.5000 
     90 CA         -7.2354  -22.9878  -50.8968 C.3       16 UNK         0.1400 
     91 CB         -8.2106  -23.5726  -51.9294 C.3       16 UNK        -0.1800 
     92 C          -6.2921  -21.9685  -51.5644 C.2       16 UNK         0.5000 
     93 O          -5.4457  -22.3549  -52.3745 O.2       16 UNK        -0.5000 
     94 N          -6.4884  -20.6850  -51.2321 N.am      17 UNK        -0.5000 
     95 CA         -5.7502  -19.5441  -51.7741 C.3       17 UNK         0.1400 
     96 CB         -6.1860  -18.2662  -51.0412 C.3       17 UNK        -0.1800 
     97 C          -5.9739  -19.3808  -53.2871 C.2       17 UNK         0.5000 
     98 O          -7.1138  -19.4748  -53.7484 O.2       17 UNK        -0.5000 
     99 N          -4.8805  -19.1562  -54.0236 N.am      18 UNK        -0.5000 
    100 CA        -4.7409  -18.9935  -55.4759 C.3       18 UNK         0.1400 
    101 CB        -5.5799  -17.8123  -55.9985 C.3       18 UNK        -0.1800 
    102 C         -5.0100  -20.2772  -56.2855 C.2       18 UNK         0.5000 
    103 O         -4.3372  -20.5077  -57.2908 O.2       18 UNK        -0.5000 
    104 N         -5.9685  -21.0954  -55.8368 N.am      19 UNK        -0.5000 
    105 CA        -6.3229  -22.3877  -56.4167 C.3       19 UNK         0.1400 
    106 CB        -7.6667  -22.8433  -55.8300 C.3       19 UNK        -0.1800 
    107 C         -5.2435  -23.4637  -56.1968 C.2       19 UNK         0.5000 
    108 O         -5.0908  -24.3387  -57.0507 O.2       19 UNK        -0.5000 
    109 N         -4.5179  -23.3851  -55.0736 N.am      20 UNK        -0.5000 
    110 CA        -3.4591  -24.3242  -54.7131 C.3       20 UNK         0.1400 
    111 CB        -4.0598  -25.5299  -53.9730 C.3       20 UNK        -0.1800 
    112 C         -2.3507  -23.6432  -53.8972 C.2       20 UNK         0.5000 
    113 O         -1.1776  -23.7765  -54.2488 O.2       20 UNK        -0.5000 
    114 N         -2.7256  -22.9181  -52.8369 N.am      21 UNK        -0.5000 
    115 CA        -1.8047  -22.1514  -52.0014 C.3       21 UNK         0.1400 
    116 CB        -2.4070  -22.0055  -50.5970 C.3       21 UNK        -0.1800 
    117 C         -1.5574  -20.7690  -52.6214 C.2       21 UNK         0.5000 
    118 O         -2.5242  -20.1044  -52.9917 O.2       21 UNK        -0.5000 
    119 N         -0.2852  -20.3556  -52.6913 N.am      22 UNK        -0.5000 
    120 CA         0.1965  -19.0781  -53.2519 C.3       22 UNK         0.1400 
    121 C         -0.3958  -18.7059  -54.6490 C.2       22 UNK         0.5000 
    122 N         -0.8659  -17.4841  -54.8658 N.am      22 UNK        -0.7600 
    123 O         -0.3729  -19.5198  -55.5691 O.2       22 UNK        -0.5000 
    124 C124        0.2637  -17.9239  -52.2056 C.3       23 UNK        -0.0398 
    125 S125       -1.3281  -17.4026  -51.4698 S.3       23 UNK        -0.2404 
    126 C126       -1.1103  -18.0123  -49.7724 C.3       23 UNK        -0.0205 
    127 H127        0.4480  -12.9240  -41.0166 H         1 UNK         0.0600 
    128 H128        1.7066  -12.3851  -42.1276 H         1 UNK         0.0600 
    129 H129        0.8598  -13.9108  -42.4244 H         1 UNK         0.0600 
    130 H130       -1.2467  -13.8644  -43.3677 H         1 UNK         0.3000 
    131 H131       -2.8362  -11.5401  -43.5310 H         1 UNK         0.0600 
    132 H132       -3.9693  -13.6049  -43.4239 H         1 UNK         0.0800 
    133 H133       -4.3442  -12.9509  -44.9830 H         1 UNK         0.0800 
    134 H134       -4.7756  -14.6383  -46.6737 H         1 UNK         0.0800 
    135 H135       -3.2575  -14.0963  -47.3581 H         1 UNK         0.0800 
    136 H136       -1.7816  -15.6893  -48.5248 H         1 UNK         0.1150 
    137 H137       -3.1107  -19.7202  -49.0714 H         1 UNK         0.1150 
    138 H138       -5.3143  -17.0762  -46.5246 H         1 UNK         0.1150 
    139 H139       -6.3209  -19.2857  -47.6060 H         1 UNK         0.0800 
    140 H140       -5.1650  -20.4598  -48.1676 H         1 UNK         0.0800 
    141 H141       -3.1136  -20.5172  -44.4825 H         1 UNK         0.0800 
    142 H142       -2.8558  -19.5270  -45.8691 H         1 UNK         0.0800 
    143 H143       -3.2034  -21.7492  -47.2786 H         1 UNK         0.0600 
    144 H144       -0.8890  -20.5810  -46.2408 H         1 UNK         0.3000 
    145 H145        1.5317  -22.8238  -47.6469 H         1 UNK         0.0600 
    146 H146        2.3213  -20.6786  -48.5605 H         1 UNK         0.0600 
    147 H147        0.8527  -21.1585  -49.3975 H         1 UNK         0.0600 
    148 H148        0.7932  -19.8977  -48.1707 H         1 UNK         0.0600 
    149 H149        1.8680  -20.5245  -46.0205 H         1 UNK         0.3000 
    150 H150        1.7146  -22.2151  -42.8302 H         1 UNK         0.0600 
    151 H151        4.0306  -22.4045  -43.6437 H         1 UNK         0.0600 
    152 H152        3.8700  -20.9378  -42.6874 H         1 UNK         0.0600 
    153 H153        3.9258  -20.8469  -44.4475 H         1 UNK         0.0600 
    154 H154        1.9984  -19.4581  -43.4236 H         1 UNK         0.3000 
    155 H155       -1.4746  -18.6170  -43.5762 H         1 UNK         0.0600 
    156 H156       -0.9089  -18.6610  -41.1516 H         1 UNK         0.0600 
    157 H157       -0.7352  -17.0403  -41.8069 H         1 UNK         0.0600 
    158 H158        0.6943  -18.0232  -41.4904 H         1 UNK         0.0600 
    159 H159        0.9559  -17.1019  -43.7855 H         1 UNK         0.3000 
    160 H160        1.2202  -17.2517  -47.3543 H         1 UNK         0.0600 
    161 H161        0.4921  -15.1197  -45.2662 H         1 UNK         0.0600 
    162 H162       -0.3261  -15.4141  -46.7913 H         1 UNK         0.0600 
    163 H163        1.3233  -14.7987  -46.7827 H         1 UNK         0.0600 
    164 H164        2.8313  -16.0633  -45.3058 H         1 UNK         0.3000 
    165 H165        5.0137  -18.7841  -44.6879 H         1 UNK         0.0600 
    166 H166        6.7842  -17.2793  -45.5517 H         1 UNK         0.0600 
    167 H167        5.9009  -17.9946  -46.8905 H         1 UNK         0.0600 
    168 H168        5.5866  -16.3257  -46.4287 H         1 UNK         0.0600 
    169 H169        5.2016  -16.0409  -43.9986 H         1 UNK         0.3000 
    170 H170        2.6885  -15.7058  -41.6524 H         1 UNK         0.0600 
    171 H171        4.1679  -17.0709  -40.1650 H         1 UNK         0.0600 
    172 H172        5.5816  -16.2288  -40.7885 H         1 UNK         0.0600 
    173 H173        4.3605  -15.3524  -39.8639 H         1 UNK         0.0600 
    174 H174        4.9216  -14.0736  -41.8884 H         1 UNK         0.3000 
    175 H175        4.3293  -11.9657  -42.8676 H         1 UNK         0.0600 
    176 H176        5.8161  -13.2022  -45.2644 H         1 UNK         0.0600 
    177 H177        6.2013  -11.6517  -44.5215 H         1 UNK         0.0600 
    178 H178        6.4204  -13.1358  -43.6122 H         1 UNK         0.0600 
    179 H179        3.1291  -12.4190  -45.5203 H         1 UNK         0.3000 
    180 H180        2.1308   -8.9661  -45.7329 H         1 UNK         0.0600 
    181 H181        3.8169  -10.7144  -47.6192 H         1 UNK         0.0600 
    182 H182        4.3811   -9.2047  -46.9151 H         1 UNK         0.0600 
    183 H183        3.0309   -9.1907  -48.0265 H         1 UNK         0.0600 
    184 H184        1.2783  -11.6350  -45.8185 H         1 UNK         0.3000 
    185 H185       -1.4806  -11.0775  -48.0099 H         1 UNK         0.0600 
    186 H186        0.0274  -12.2705  -49.4694 H         1 UNK         0.0600 
    187 H187        0.7851  -13.1191  -48.1384 H         1 UNK         0.0600 
    188 H188       -0.8908  -13.4693  -48.5749 H         1 UNK         0.0600 
    189 H189       -0.6847  -13.0298  -45.9648 H         1 UNK         0.3000 
    190 H190       -1.4142  -22.5974  -44.2858 H         1 UNK         0.3000 
    191 H191       -3.1915  -24.6885  -43.4625 H         1 UNK         0.0600 
    192 H192       -0.2513  -24.1751  -42.7686 H         1 UNK         0.0600 
    193 H193       -1.6489  -23.5511  -41.8974 H         1 UNK         0.0600 
    194 H194       -1.3253  -25.2786  -41.9175 H         1 UNK         0.0600 
    195 H195       -0.1147  -24.7224  -45.3256 H         1 UNK         0.3000 
    196 H196        0.0418  -27.5708  -45.4620 H         1 UNK         0.0600 
    197 H197        2.0351  -26.1210  -45.5223 H         1 UNK         0.0600 
    198 H198        1.5113  -25.4009  -47.0431 H         1 UNK         0.0600 
    199 H199        1.9678  -27.0998  -46.9798 H         1 UNK         0.0600 
    200 H200       -0.9887  -25.1178  -47.9024 H         1 UNK         0.3000 
    201 H201       -1.5650  -27.3117  -49.8509 H         1 UNK         0.0600 
    202 H202       -1.1547  -25.5001  -51.5411 H         1 UNK         0.0600 
    203 H203        0.2444  -25.8286  -50.5337 H         1 UNK         0.0600 
    204 H204       -0.7328  -24.4003  -50.2336 H         1 UNK         0.0600 
    205 H205       -3.2928  -25.4631  -47.7308 H         1 UNK         0.3000 
    206 H206       -5.4411  -25.0738  -47.4390 H         1 UNK         0.0600 
    207 H207       -5.8142  -27.3758  -48.2444 H         1 UNK         0.0600 
    208 H208       -5.9995  -26.8090  -49.8984 H         1 UNK         0.0600 
    209 H209       -7.1597  -26.3346  -48.6619 H         1 UNK         0.0600 
    210 H210       -6.8530  -25.0203  -50.4767 H         1 UNK         0.3000 
    211 H211       -7.8235  -22.4664  -50.1389 H         1 UNK         0.0600 
    212 H212       -8.9665  -24.1957  -51.4512 H         1 UNK         0.0600 
    213 H213       -7.6901  -24.1843  -52.6675 H         1 UNK         0.0600 
    214 H214       -8.7358  -22.7812  -52.4660 H         1 UNK         0.0600 
    215 H215       -7.2334  -20.4604  -50.5903 H         1 UNK         0.3000 
    216 H216       -4.6902  -19.7078  -51.5758 H         1 UNK         0.0600 
    217 H217       -5.5918  -17.4113  -51.3665 H         1 UNK         0.0600 
    218 H218       -7.2341  -18.0303  -51.2298 H         1 UNK         0.0600 
    219 H219       -6.0551  -18.3579  -49.9651 H         1 UNK         0.0600 
    220 H220       -3.9839  -19.2485  -53.5440 H         1 UNK         0.3000 
    221 H221       -3.6903  -18.7450  -55.6349 H         1 UNK         0.0600 
    222 H222       -5.3713  -17.6267  -57.0527 H         1 UNK         0.0600 
    223 H223       -5.3507  -16.8956  -55.4552 H         1 UNK         0.0600 
    224 H224       -6.6502  -17.9987  -55.9085 H         1 UNK         0.0600 
    225 H225       -6.4978  -20.7898  -55.0261 H         1 UNK         0.3000 
    226 H226       -6.4466  -22.2559  -57.4936 H         1 UNK         0.0600 
    227 H227       -8.4587  -22.1292  -56.0561 H         1 UNK         0.0600 
    228 H228       -7.9689  -23.8071  -56.2417 H         1 UNK         0.0600 
    229 H229       -7.6110  -22.9496  -54.7470 H         1 UNK         0.0600 
    230 H230       -4.7187  -22.6509  -54.4047 H         1 UNK         0.3000 
    231 H231       -2.9827  -24.6924  -55.6245 H         1 UNK         0.0600 
    232 H232       -3.2790  -26.1959  -53.6037 H         1 UNK         0.0600 
    233 H233       -4.7039  -26.1148  -54.6295 H         1 UNK         0.0600 
    234 H234       -4.6581  -25.2120  -53.1184 H         1 UNK         0.0600 
    235 H235       -3.7153  -22.8145  -52.6211 H         1 UNK         0.3000 
    236 H236       -0.8566  -22.6856  -51.9159 H         1 UNK         0.0600 
    237 H237       -2.6028  -22.9752  -50.1418 H         1 UNK         0.0600 
    238 H238       -1.7286  -21.4671  -49.9361 H         1 UNK         0.0600 
    239 H239       -3.3514  -21.4625  -50.6181 H         1 UNK         0.0600 
    240 H240        0.4401  -20.9889  -52.3892 H         1 UNK         0.3000 
    241 H241        1.2390  -19.2891  -53.4936 H         1 UNK         0.0600 
    242 H242       -0.9278  -16.8127  -54.1163 H         1 UNK         0.3800 
    243 H243       -1.2147  -17.2454  -55.7803 H         1 UNK         0.3800 
    244 H244        0.9398  -18.2221  -51.4035 H         1 UNK         0.0800 
    245 H245        0.7357  -17.0449  -52.6468 H         1 UNK         0.0800 
    246 H246       -0.2308  -17.5448  -49.3283 H         1 UNK         0.0800 
    247 H247       -0.9097  -19.0838  -49.8015 H         1 UNK         0.0800 
@<TRIPOS>BOND
     1    1    2 1    
     2    1  127 1    
     3    1  128 1    
     4    1  129 1    
     5    2    3 2    
     6    2    4 am   BACKBONE|DICT|INTERRES
     7    4    5 1    
     8    4  130 1    
     9    5    6 1    
    10    5   65 1    
    11    5  131 1    
    12    6    7 1    
    13    6  132 1    
    14    6  133 1    
    15    7    8 1    
    16    8    9 1    
    17    8  134 1    
    18    8  135 1    
    19    9   10 ar   
    20    9   14 ar   
    21   10   11 ar   
    22   10  136 1    
    23   11   12 ar   
    24   11  126 1    
    25   12   13 ar   
    26   12  137 1    
    27   13   14 ar   
    28   13   15 1    
    29   14  138 1    
    30   15   16 1    
    31   15  139 1    
    32   15  140 1    
    33   16   17 1    
    34   17   18 1    
    35   17  141 1    
    36   17  142 1    
    37   18   19 1    
    38   18   67 1    
    39   18  143 1    
    40   19   20 am   BACKBONE|DICT|INTERRES
    41   19  144 1    
    42   20   21 2    
    43   20   22 1    
    44   22   23 1    
    45   22   24 1    
    46   22  145 1    
    47   23  146 1    
    48   23  147 1    
    49   23  148 1    
    50   24   25 am   BACKBONE|DICT|INTERRES
    51   24  149 1    
    52   25   26 2    
    53   25   27 1    
    54   27   28 1    
    55   27   29 1    
    56   27  150 1    
    57   28  151 1    
    58   28  152 1    
    59   28  153 1    
    60   29   30 am   BACKBONE|DICT|INTERRES
    61   29  154 1    
    62   30   31 2    
    63   30   32 1    
    64   32   33 1    
    65   32   34 1    
    66   32  155 1    
    67   33  156 1    
    68   33  157 1    
    69   33  158 1    
    70   34   35 am   BACKBONE|DICT|INTERRES
    71   34  159 1    
    72   35   36 2    
    73   35   37 1    
    74   37   38 1    
    75   37   39 1    
    76   37  160 1    
    77   38  161 1    
    78   38  162 1    
    79   38  163 1    
    80   39   40 am   BACKBONE|DICT|INTERRES
    81   39  164 1    
    82   40   41 2    
    83   40   42 1    
    84   42   43 1    
    85   42   44 1    
    86   42  165 1    
    87   43  166 1    
    88   43  167 1    
    89   43  168 1    
    90   44   45 am   BACKBONE|DICT|INTERRES
    91   44  169 1    
    92   45   46 2    
    93   45   47 1    
    94   47   48 1    
    95   47   49 1    
    96   47  170 1    
    97   48  171 1    
    98   48  172 1    
    99   48  173 1    
   100   49   50 am   BACKBONE|DICT|INTERRES
   101   49  174 1    
   102   50   51 2    
   103   50   52 1    
   104   52   53 1    
   105   52   54 1    
   106   52  175 1    
   107   53  176 1    
   108   53  177 1    
   109   53  178 1    
   110   54   55 am   BACKBONE|DICT|INTERRES
   111   54  179 1    
   112   55   56 2    
   113   55   57 1    
   114   57   58 1    
   115   57   59 1    
   116   57  180 1    
   117   58  181 1    
   118   58  182 1    
   119   58  183 1    
   120   59   60 am   BACKBONE|DICT|INTERRES
   121   59  184 1    
   122   60   61 2    
   123   60   62 1    
   124   62   63 1    
   125   62   64 1    
   126   62  185 1    
   127   63  186 1    
   128   63  187 1    
   129   63  188 1    
   130   64   65 am   BACKBONE|DICT|INTERRES
   131   64  189 1    
   132   65   66 2    
   133   67   68 2    
   134   67   69 am   BACKBONE|DICT|INTERRES
   135   69   70 1    
   136   69  190 1    
   137   70   71 1    
   138   70   72 1    
   139   70  191 1    
   140   71  192 1    
   141   71  193 1    
   142   71  194 1    
   143   72   73 2    
   144   72   74 am   BACKBONE|DICT|INTERRES
   145   74   75 1    
   146   74  195 1    
   147   75   76 1    
   148   75   77 1    
   149   75  196 1    
   150   76  197 1    
   151   76  198 1    
   152   76  199 1    
   153   77   78 2    
   154   77   79 am   BACKBONE|DICT|INTERRES
   155   79   80 1    
   156   79  200 1    
   157   80   81 1    
   158   80   82 1    
   159   80  201 1    
   160   81  202 1    
   161   81  203 1    
   162   81  204 1    
   163   82   83 2    
   164   82   84 am   BACKBONE|DICT|INTERRES
   165   84   85 1    
   166   84  205 1    
   167   85   86 1    
   168   85   87 1    
   169   85  206 1    
   170   86  207 1    
   171   86  208 1    
   172   86  209 1    
   173   87   88 2    
   174   87   89 am   BACKBONE|DICT|INTERRES
   175   89   90 1    
   176   89  210 1    
   177   90   91 1    
   178   90   92 1    
   179   90  211 1    
   180   91  212 1    
   181   91  213 1    
   182   91  214 1    
   183   92   93 2    
   184   92   94 am   BACKBONE|DICT|INTERRES
   185   94   95 1    
   186   94  215 1    
   187   95   96 1    
   188   95   97 1    
   189   95  216 1    
   190   96  217 1    
   191   96  218 1    
   192   96  219 1    
   193   97   98 2    
   194   97   99 am   BACKBONE|DICT|INTERRES
   195   99  100 1    
   196   99  220 1    
   197  100  101 1    
   198  100  102 1    
   199  100  221 1    
   200  101  222 1    
   201  101  223 1    
   202  101  224 1    
   203  102  103 2    
   204  102  104 am   BACKBONE|DICT|INTERRES
   205  104  105 1    
   206  104  225 1    
   207  105  106 1    
   208  105  107 1    
   209  105  226 1    
   210  106  227 1    
   211  106  228 1    
   212  106  229 1    
   213  107  108 2    
   214  107  109 am   BACKBONE|DICT|INTERRES
   215  109  110 1    
   216  109  230 1    
   217  110  111 1    
   218  110  112 1    
   219  110  231 1    
   220  111  232 1    
   221  111  233 1    
   222  111  234 1    
   223  112  113 2    
   224  112  114 am   BACKBONE|DICT|INTERRES
   225  114  115 1    
   226  114  235 1    
   227  115  116 1    
   228  115  117 1    
   229  115  236 1    
   230  116  237 1    
   231  116  238 1    
   232  116  239 1    
   233  117  118 2    
   234  117  119 am   BACKBONE|DICT|INTERRES
   235  119  120 1    
   236  119  240 1    
   237  120  121 1    
   238  120  124 1    
   239  120  241 1    
   240  121  122 am   BACKBONE|DICT|INTERRES
   241  121  123 2    
   242  122  242 1    
   243  122  243 1    
   244  124  125 1    
   245  124  244 1    
   246  124  245 1    
   247  125  126 1    
   248  126  246 1    
   249  126  247 1    
@<TRIPOS>SUBSTRUCTURE
     1 UNK         1 GROUP             0       ****    0 ROOT    
