@<TRIPOS>MOLECULE
3R540
247   249    1
SMALL
USER_CHARGES


@<TRIPOS>ATOM
      1 CA         -5.6250  -15.0076  -48.1905 C.3       0 UNK        -0.1800 
      2 C          -4.3630  -14.5828  -47.4528 C.2       0 UNK         0.5000 
      3 O          -4.4485  -13.8310  -46.4819 O.2       0 UNK        -0.5000 
      4 N          -3.2003  -15.0618  -47.9150 N.am      1 UNK        -0.5000 
      5 CA         -1.8636  -14.8319  -47.3461 C.3       1 UNK         0.1400 
      6 C6         -1.6609  -15.5490  -45.9841 C.3       23 UNK        -0.0398 
      7 S7         -1.5709  -17.3588  -46.1986 S.3       23 UNK        -0.2404 
      8 C8          0.2106  -17.6666  -45.9906 C.3       23 UNK        -0.0205 
      9 C9          0.8472  -18.3046  -47.2142 C.ar      23 UNK        -0.0193 
     10 C10         1.0735  -17.5467  -48.3650 C.ar      23 UNK        -0.1150 
     11 C11         1.7254  -18.1045  -49.4668 C.ar      23 UNK        -0.0193 
     12 C12         2.1379  -19.4387  -49.4161 C.ar      23 UNK        -0.1150 
     13 C13         1.9249  -20.2135  -48.2713 C.ar      23 UNK        -0.0193 
     14 C14         1.2769  -19.6339  -47.1717 C.ar      23 UNK        -0.1150 
     15 C15         2.4724  -21.6422  -48.2433 C.3       23 UNK        -0.0205 
     16 S16         1.6462  -22.7812  -47.0808 S.3       23 UNK        -0.2404 
     17 C17        -0.0027  -22.8898  -47.8431 C.3       23 UNK        -0.0398 
     18 CA         -0.8736  -24.0057  -47.2226 C.3       11 UNK         0.1400 
     19 N          -1.0290  -23.8299  -45.7750 N.am      11 UNK        -0.5000 
     20 C          -1.6577  -24.6493  -44.9208 C.2       10 UNK         0.5000 
     21 O          -2.1511  -25.7303  -45.2463 O.2       10 UNK        -0.5000 
     22 CA         -1.8345  -24.1324  -43.4785 C.3       10 UNK         0.1400 
     23 CB         -0.7367  -24.7041  -42.5701 C.3       10 UNK        -0.1800 
     24 N          -1.8374  -22.6675  -43.3620 N.am      10 UNK        -0.5000 
     25 C          -2.6540  -21.8239  -44.0120 C.2       9 UNK         0.5000 
     26 O          -3.5266  -22.2069  -44.7921 O.2       9 UNK        -0.5000 
     27 CA         -2.4500  -20.3093  -43.7955 C.3       9 UNK         0.1400 
     28 CB         -3.7908  -19.5793  -43.6110 C.3       9 UNK        -0.1800 
     29 N          -1.5665  -19.9612  -42.6783 N.am      9 UNK        -0.5000 
     30 C          -0.2292  -19.9958  -42.7071 C.2       8 UNK         0.5000 
     31 O           0.4243  -20.4574  -43.6438 O.2       8 UNK        -0.5000 
     32 CA          0.4978  -19.4354  -41.4694 C.3       8 UNK         0.1400 
     33 CB          1.2454  -20.5540  -40.7267 C.3       8 UNK        -0.1800 
     34 N           1.4417  -18.3690  -41.8141 N.am      8 UNK        -0.5000 
     35 C           1.1073  -17.2026  -42.3830 C.2       7 UNK         0.5000 
     36 O          -0.0522  -16.8952  -42.6721 O.2       7 UNK        -0.5000 
     37 CA          2.2636  -16.2203  -42.6727 C.3       7 UNK         0.1400 
     38 CB          3.2273  -16.7739  -43.7369 C.3       7 UNK        -0.1800 
     39 N           1.7558  -14.9166  -43.1110 N.am      7 UNK        -0.5000 
     40 C           1.2343  -13.9998  -42.2845 C.2       6 UNK         0.5000 
     41 O           1.2900  -14.0895  -41.0559 O.2       6 UNK        -0.5000 
     42 CA          0.4968  -12.8080  -42.9354 C.3       6 UNK         0.1400 
     43 CB          0.3893  -11.5862  -41.9982 C.3       6 UNK        -0.1800 
     44 N           1.0112  -12.4022  -44.2490 N.am      6 UNK        -0.5000 
     45 C           2.2282  -11.9197  -44.5303 C.2       5 UNK         0.5000 
     46 O           3.1542  -11.8508  -43.7189 O.2       5 UNK        -0.5000 
     47 CA          2.4193  -11.3711  -45.9549 C.3       5 UNK         0.1400 
     48 CB          2.1339   -9.8615  -45.9638 C.3       5 UNK        -0.1800 
     49 N           3.7964  -11.5792  -46.3974 N.am      5 UNK        -0.5000 
     50 C           4.3137  -12.5982  -47.0999 C.2       4 UNK         0.5000 
     51 O           5.5309  -12.6981  -47.2474 O.2       4 UNK        -0.5000 
     52 CA          3.4084  -13.6636  -47.7661 C.3       4 UNK         0.1400 
     53 CB          2.7487  -14.6045  -46.7433 C.3       4 UNK        -0.1800 
     54 N           2.4133  -13.1367  -48.7052 N.am      4 UNK        -0.5000 
     55 C           2.6935  -12.4630  -49.8307 C.2       3 UNK         0.5000 
     56 O           3.8375  -12.2093  -50.2087 O.2       3 UNK        -0.5000 
     57 CA          1.5036  -12.0208  -50.7069 C.3       3 UNK         0.1400 
     58 CB          1.3671  -12.9456  -51.9271 C.3       3 UNK        -0.1800 
     59 N           0.2240  -11.9885  -49.9949 N.am      3 UNK        -0.5000 
     60 C          -0.1522  -11.0226  -49.1456 C.2       2 UNK         0.5000 
     61 O           0.5518  -10.0562  -48.8575 O.2       2 UNK        -0.5000 
     62 CA         -1.5443  -11.1648  -48.5031 C.3       2 UNK         0.1400 
     63 CB         -2.6125  -10.4861  -49.3732 C.3       2 UNK        -0.1800 
     64 N          -1.9151  -12.5643  -48.2994 N.am      2 UNK        -0.5000 
     65 C          -1.4471  -13.3413  -47.3162 C.2       1 UNK         0.5000 
     66 O          -0.6817  -12.9268  -46.4434 O.2       1 UNK        -0.5000 
     67 C          -2.2141  -24.1236  -47.9841 C.2       11 UNK         0.5000 
     68 O          -2.2125  -24.6119  -49.1143 O.2       11 UNK        -0.5000 
     69 N          -3.3370  -23.7176  -47.3675 N.am      12 UNK        -0.5000 
     70 CA         -4.6896  -23.9817  -47.8609 C.3       12 UNK         0.1400 
     71 CB         -5.7274  -23.3339  -46.9308 C.3       12 UNK        -0.1800 
     72 C          -4.9826  -25.4872  -47.9996 C.2       12 UNK         0.5000 
     73 O          -5.5633  -25.9003  -49.0031 O.2       12 UNK        -0.5000 
     74 N          -4.5425  -26.2729  -47.0100 N.am      13 UNK        -0.5000 
     75 CA         -4.6771  -27.7258  -46.9906 C.3       13 UNK         0.1400 
     76 CB         -4.9829  -28.1842  -45.5558 C.3       13 UNK        -0.1800 
     77 C          -3.4017  -28.4019  -47.5135 C.2       13 UNK         0.5000 
     78 O          -3.4899  -29.3081  -48.3419 O.2       13 UNK        -0.5000 
     79 N          -2.2389  -27.9484  -47.0246 N.am      14 UNK        -0.5000 
     80 CA         -0.9372  -28.5748  -47.2631 C.3       14 UNK         0.1400 
     81 CB          0.0747  -28.0330  -46.2410 C.3       14 UNK        -0.1800 
     82 C          -0.4006  -28.4091  -48.6967 C.2       14 UNK         0.5000 
     83 O           0.4322  -29.2148  -49.1147 O.2       14 UNK        -0.5000 
     84 N          -0.8693  -27.3837  -49.4192 N.am      15 UNK        -0.5000 
     85 CA         -0.4348  -27.0616  -50.7792 C.3       15 UNK         0.1400 
     86 CB          0.6175  -25.9395  -50.7225 C.3       15 UNK        -0.1800 
     87 C          -1.6190  -26.7512  -51.7160 C.2       15 UNK         0.5000 
     88 O          -1.4062  -26.1592  -52.7735 O.2       15 UNK        -0.5000 
     89 N          -2.8281  -27.1965  -51.3345 N.am      16 UNK        -0.5000 
     90 CA         -4.0798  -27.1651  -52.1016 C.3       16 UNK         0.1400 
     91 CB         -4.0043  -28.1588  -53.2793 C.3       16 UNK        -0.1800 
     92 C          -4.4911  -25.7479  -52.5542 C.2       16 UNK         0.5000 
     93 O          -4.3189  -25.3891  -53.7206 O.2       16 UNK        -0.5000 
     94 N          -5.0338  -24.9741  -51.6050 N.am      17 UNK        -0.5000 
     95 CA         -5.5658  -23.6125  -51.7535 C.3       17 UNK         0.1400 
     96 CB         -6.7379  -23.5743  -52.7563 C.3       17 UNK        -0.1800 
     97 C          -4.5008  -22.5370  -52.0548 C.2       17 UNK         0.5000 
     98 O          -4.8579  -21.4292  -52.4589 O.2       17 UNK        -0.5000 
     99 N          -3.2171  -22.8449  -51.8200 N.am      18 UNK        -0.5000 
    100 CA        -2.0966  -21.9397  -52.0880 C.3       18 UNK         0.1400 
    101 CB        -0.7727  -22.6969  -51.9443 C.3       18 UNK        -0.1800 
    102 C         -2.1090  -20.6789  -51.2055 C.2       18 UNK         0.5000 
    103 O         -1.7680  -19.6032  -51.6907 O.2       18 UNK        -0.5000 
    104 N         -2.5624  -20.8172  -49.9506 N.am      19 UNK        -0.5000 
    105 CA        -2.7658  -19.7006  -49.0224 C.3       19 UNK         0.1400 
    106 CB        -3.1846  -20.2472  -47.6504 C.3       19 UNK        -0.1800 
    107 C         -3.8151  -18.6941  -49.5302 C.2       19 UNK         0.5000 
    108 O         -3.6016  -17.4863  -49.4291 O.2       19 UNK        -0.5000 
    109 N         -4.9122  -19.2185  -50.0963 N.am      20 UNK        -0.5000 
    110 CA        -5.9907  -18.4365  -50.6980 C.3       20 UNK         0.1400 
    111 CB        -7.2213  -19.3302  -50.9153 C.3       20 UNK        -0.1800 
    112 C         -5.5521  -17.7644  -52.0098 C.2       20 UNK         0.5000 
    113 O         -5.8701  -16.5940  -52.2225 O.2       20 UNK        -0.5000 
    114 N         -4.7854  -18.4893  -52.8392 N.am      21 UNK        -0.5000 
    115 CA        -4.1679  -17.9758  -54.0673 C.3       21 UNK         0.1400 
    116 CB        -3.4800  -19.1255  -54.8179 C.3       21 UNK        -0.1800 
    117 C         -3.1800  -16.8206  -53.8029 C.2       21 UNK         0.5000 
    118 O         -3.1218  -15.8755  -54.5903 O.2       21 UNK        -0.5000 
    119 N         -2.4698  -16.8960  -52.6718 N.am      22 UNK        -0.5000 
    120 CA        -1.6517  -15.8196  -52.0957 C.3       22 UNK         0.1400 
    121 C         -2.4632  -14.6533  -51.4549 C.2       22 UNK         0.5000 
    122 N         -3.7901  -14.6536  -51.4469 N.am      22 UNK        -0.7600 
    123 O         -1.8661  -13.7113  -50.9439 O.2       22 UNK        -0.5000 
    124 C124       -0.6123  -16.3857  -51.0954 C.3       23 UNK        -0.0398 
    125 S125        0.6993  -17.3382  -51.9288 S.3       23 UNK        -0.2404 
    126 C126        2.0291  -17.2542  -50.6920 C.3       23 UNK        -0.0205 
    127 H127       -5.3948  -15.4670  -49.1515 H         1 UNK         0.0600 
    128 H128       -6.2631  -14.1437  -48.3760 H         1 UNK         0.0600 
    129 H129       -6.1846  -15.7270  -47.5930 H         1 UNK         0.0600 
    130 H130       -3.2391  -15.7477  -48.6653 H         1 UNK         0.3000 
    131 H131       -1.1719  -15.2804  -48.0588 H         1 UNK         0.0600 
    132 H132       -0.7642  -15.2096  -45.4664 H         1 UNK         0.0800 
    133 H133       -2.4819  -15.3218  -45.3033 H         1 UNK         0.0800 
    134 H134        0.7407  -16.7426  -45.7697 H         1 UNK         0.0800 
    135 H135        0.3472  -18.3023  -45.1177 H         1 UNK         0.0800 
    136 H136        0.7653  -16.5129  -48.3928 H         1 UNK         0.1150 
    137 H137        2.6521  -19.8672  -50.2650 H         1 UNK         0.1150 
    138 H138        1.1281  -20.2035  -46.2656 H         1 UNK         0.1150 
    139 H139        2.4276  -22.0774  -49.2430 H         1 UNK         0.0800 
    140 H140        3.5290  -21.5932  -47.9778 H         1 UNK         0.0800 
    141 H141        0.1436  -23.0663  -48.9071 H         1 UNK         0.0800 
    142 H142       -0.4881  -21.9181  -47.7565 H         1 UNK         0.0800 
    143 H143       -0.3555  -24.9535  -47.3743 H         1 UNK         0.0600 
    144 H144       -0.6411  -22.9771  -45.3976 H         1 UNK         0.3000 
    145 H145       -2.8015  -24.4926  -43.1223 H         1 UNK         0.0600 
    146 H146       -0.9019  -24.4278  -41.5285 H         1 UNK         0.0600 
    147 H147       -0.7183  -25.7939  -42.6169 H         1 UNK         0.0600 
    148 H148        0.2519  -24.3459  -42.8605 H         1 UNK         0.0600 
    149 H149       -1.1301  -22.2628  -42.7668 H         1 UNK         0.3000 
    150 H150       -1.9949  -19.9332  -44.7134 H         1 UNK         0.0600 
    151 H151       -3.6430  -18.5018  -43.5330 H         1 UNK         0.0600 
    152 H152       -4.3117  -19.9157  -42.7139 H         1 UNK         0.0600 
    153 H153       -4.4539  -19.7485  -44.4606 H         1 UNK         0.0600 
    154 H154       -2.0230  -19.5853  -41.8596 H         1 UNK         0.3000 
    155 H155       -0.2420  -19.0119  -40.7868 H         1 UNK         0.0600 
    156 H156        0.5640  -21.3559  -40.4394 H         1 UNK         0.0600 
    157 H157        1.7092  -20.1808  -39.8134 H         1 UNK         0.0600 
    158 H158        2.0283  -20.9950  -41.3453 H         1 UNK         0.0600 
    159 H159        2.4155  -18.5621  -41.6316 H         1 UNK         0.3000 
    160 H160        2.8257  -16.0862  -41.7460 H         1 UNK         0.0600 
    161 H161        3.6637  -17.7219  -43.4209 H         1 UNK         0.0600 
    162 H162        4.0552  -16.0860  -43.9092 H         1 UNK         0.0600 
    163 H163        2.7336  -16.9488  -44.6910 H         1 UNK         0.0600 
    164 H164        1.6438  -14.7801  -44.1025 H         1 UNK         0.3000 
    165 H165       -0.5187  -13.1630  -43.1175 H         1 UNK         0.0600 
    166 H166       -0.1627  -10.7740  -42.4713 H         1 UNK         0.0600 
    167 H167       -0.1388  -11.8407  -41.0786 H         1 UNK         0.0600 
    168 H168        1.3713  -11.2052  -41.7165 H         1 UNK         0.0600 
    169 H169        0.3326  -12.4578  -45.0082 H         1 UNK         0.3000 
    170 H170        1.7108  -11.8465  -46.6281 H         1 UNK         0.0600 
    171 H171        2.3251   -9.4289  -46.9457 H         1 UNK         0.0600 
    172 H172        1.0900   -9.6617  -45.7185 H         1 UNK         0.0600 
    173 H173        2.7510   -9.3267  -45.2404 H         1 UNK         0.0600 
    174 H174        4.4546  -10.9409  -45.9761 H         1 UNK         0.3000 
    175 H175        4.0824  -14.2875  -48.3577 H         1 UNK         0.0600 
    176 H176        1.7816  -14.2407  -46.4007 H         1 UNK         0.0600 
    177 H177        2.5964  -15.5907  -47.1765 H         1 UNK         0.0600 
    178 H178        3.3840  -14.7419  -45.8681 H         1 UNK         0.0600 
    179 H179        1.4424  -13.2791  -48.4757 H         1 UNK         0.3000 
    180 H180        1.7209  -11.0140  -51.0697 H         1 UNK         0.0600 
    181 H181        0.5417  -12.6359  -52.5685 H         1 UNK         0.0600 
    182 H182        1.1924  -13.9797  -51.6322 H         1 UNK         0.0600 
    183 H183        2.2736  -12.9286  -52.5334 H         1 UNK         0.0600 
    184 H184       -0.4580  -12.7022  -50.2417 H         1 UNK         0.3000 
    185 H185       -1.5208  -10.6609  -47.5344 H         1 UNK         0.0600 
    186 H186       -2.6896  -10.9555  -50.3550 H         1 UNK         0.0600 
    187 H187       -3.5936  -10.5344  -48.9005 H         1 UNK         0.0600 
    188 H188       -2.3776   -9.4325  -49.5293 H         1 UNK         0.0600 
    189 H189       -2.4621  -12.9971  -49.0336 H         1 UNK         0.3000 
    190 H190       -3.2734  -23.2958  -46.4453 H         1 UNK         0.3000 
    191 H191       -4.7749  -23.5234  -48.8455 H         1 UNK         0.0600 
    192 H192       -5.6660  -23.7366  -45.9189 H         1 UNK         0.0600 
    193 H193       -6.7408  -23.5121  -47.2930 H         1 UNK         0.0600 
    194 H194       -5.5972  -22.2556  -46.8623 H         1 UNK         0.0600 
    195 H195       -4.0110  -25.8572  -46.2546 H         1 UNK         0.3000 
    196 H196       -5.5098  -28.0369  -47.6254 H         1 UNK         0.0600 
    197 H197       -5.0816  -29.2693  -45.5048 H         1 UNK         0.0600 
    198 H198       -5.9198  -27.7558  -45.1992 H         1 UNK         0.0600 
    199 H199       -4.1962  -27.8917  -44.8590 H         1 UNK         0.0600 
    200 H200       -2.2517  -27.1871  -46.3493 H         1 UNK         0.3000 
    201 H201       -1.0481  -29.6467  -47.0853 H         1 UNK         0.0600 
    202 H202       -0.2657  -28.2047  -45.2197 H         1 UNK         0.0600 
    203 H203        0.2402  -26.9630  -46.3616 H         1 UNK         0.0600 
    204 H204        1.0413  -28.5271  -46.3478 H         1 UNK         0.0600 
    205 H205       -1.5432  -26.7494  -49.0095 H         1 UNK         0.3000 
    206 H206        0.0438  -27.9328  -51.2306 H         1 UNK         0.0600 
    207 H207        1.5117  -26.2719  -50.1954 H         1 UNK         0.0600 
    208 H208        0.9299  -25.6256  -51.7190 H         1 UNK         0.0600 
    209 H209        0.2368  -25.0651  -50.2005 H         1 UNK         0.0600 
    210 H210       -2.8804  -27.6818  -50.4501 H         1 UNK         0.3000 
    211 H211       -4.8617  -27.5224  -51.4291 H         1 UNK         0.0600 
    212 H212       -3.2232  -27.8899  -53.9912 H         1 UNK         0.0600 
    213 H213       -4.9479  -28.1874  -53.8254 H         1 UNK         0.0600 
    214 H214       -3.8019  -29.1705  -52.9278 H         1 UNK         0.0600 
    215 H215       -5.1475  -25.3777  -50.6763 H         1 UNK         0.3000 
    216 H216       -5.9830  -23.3492  -50.7820 H         1 UNK         0.0600 
    217 H217       -7.2444  -22.6087  -52.7299 H         1 UNK         0.0600 
    218 H218       -7.4829  -24.3347  -52.5222 H         1 UNK         0.0600 
    219 H219       -6.4028  -23.7349  -53.7811 H         1 UNK         0.0600 
    220 H220       -2.9919  -23.7693  -51.4781 H         1 UNK         0.3000 
    221 H221       -2.1783  -21.6104  -53.1255 H         1 UNK         0.0600 
    222 H222       -0.6879  -23.1474  -50.9599 H         1 UNK         0.0600 
    223 H223       -0.6918  -23.4921  -52.6851 H         1 UNK         0.0600 
    224 H224        0.0818  -22.0329  -52.0828 H         1 UNK         0.0600 
    225 H225       -2.8394  -21.7356  -49.6406 H         1 UNK         0.3000 
    226 H226       -1.8181  -19.1685  -48.9106 H         1 UNK         0.0600 
    227 H227       -2.3801  -20.8058  -47.1765 H         1 UNK         0.0600 
    228 H228       -3.4598  -19.4420  -46.9692 H         1 UNK         0.0600 
    229 H229       -4.0491  -20.9017  -47.7338 H         1 UNK         0.0600 
    230 H230       -4.9773  -20.2203  -50.1886 H         1 UNK         0.3000 
    231 H231       -6.2687  -17.6480  -49.9957 H         1 UNK         0.0600 
    232 H232       -7.0187  -20.1416  -51.6142 H         1 UNK         0.0600 
    233 H233       -7.5589  -19.7715  -49.9774 H         1 UNK         0.0600 
    234 H234       -8.0531  -18.7521  -51.3197 H         1 UNK         0.0600 
    235 H235       -4.6108  -19.4635  -52.6119 H         1 UNK         0.3000 
    236 H236       -4.9694  -17.5886  -54.6996 H         1 UNK         0.0600 
    237 H237       -2.6377  -19.5260  -54.2548 H         1 UNK         0.0600 
    238 H238       -4.1738  -19.9436  -55.0129 H         1 UNK         0.0600 
    239 H239       -3.0962  -18.7855  -55.7804 H         1 UNK         0.0600 
    240 H240       -2.5162  -17.7524  -52.1300 H         1 UNK         0.3000 
    241 H241       -1.1010  -15.3540  -52.9150 H         1 UNK         0.0600 
    242 H242       -4.3260  -15.4146  -51.8481 H         1 UNK         0.3800 
    243 H243       -4.2766  -13.8651  -51.0560 H         1 UNK         0.3800 
    244 H244       -0.1323  -15.5844  -50.5332 H         1 UNK         0.0800 
    245 H245       -1.0973  -17.0253  -50.3569 H         1 UNK         0.0800 
    246 H246        2.2047  -16.2165  -50.4033 H         1 UNK         0.0800 
    247 H247        2.9559  -17.5962  -51.1548 H         1 UNK         0.0800 
@<TRIPOS>BOND
     1    1    2 1    
     2    1  127 1    
     3    1  128 1    
     4    1  129 1    
     5    2    3 2    
     6    2    4 am   BACKBONE|DICT|INTERRES
     7    4    5 1    
     8    4  130 1    
     9    5    6 1    
    10    5   65 1    
    11    5  131 1    
    12    6    7 1    
    13    6  132 1    
    14    6  133 1    
    15    7    8 1    
    16    8    9 1    
    17    8  134 1    
    18    8  135 1    
    19    9   10 ar   
    20    9   14 ar   
    21   10   11 ar   
    22   10  136 1    
    23   11   12 ar   
    24   11  126 1    
    25   12   13 ar   
    26   12  137 1    
    27   13   14 ar   
    28   13   15 1    
    29   14  138 1    
    30   15   16 1    
    31   15  139 1    
    32   15  140 1    
    33   16   17 1    
    34   17   18 1    
    35   17  141 1    
    36   17  142 1    
    37   18   19 1    
    38   18   67 1    
    39   18  143 1    
    40   19   20 am   BACKBONE|DICT|INTERRES
    41   19  144 1    
    42   20   21 2    
    43   20   22 1    
    44   22   23 1    
    45   22   24 1    
    46   22  145 1    
    47   23  146 1    
    48   23  147 1    
    49   23  148 1    
    50   24   25 am   BACKBONE|DICT|INTERRES
    51   24  149 1    
    52   25   26 2    
    53   25   27 1    
    54   27   28 1    
    55   27   29 1    
    56   27  150 1    
    57   28  151 1    
    58   28  152 1    
    59   28  153 1    
    60   29   30 am   BACKBONE|DICT|INTERRES
    61   29  154 1    
    62   30   31 2    
    63   30   32 1    
    64   32   33 1    
    65   32   34 1    
    66   32  155 1    
    67   33  156 1    
    68   33  157 1    
    69   33  158 1    
    70   34   35 am   BACKBONE|DICT|INTERRES
    71   34  159 1    
    72   35   36 2    
    73   35   37 1    
    74   37   38 1    
    75   37   39 1    
    76   37  160 1    
    77   38  161 1    
    78   38  162 1    
    79   38  163 1    
    80   39   40 am   BACKBONE|DICT|INTERRES
    81   39  164 1    
    82   40   41 2    
    83   40   42 1    
    84   42   43 1    
    85   42   44 1    
    86   42  165 1    
    87   43  166 1    
    88   43  167 1    
    89   43  168 1    
    90   44   45 am   BACKBONE|DICT|INTERRES
    91   44  169 1    
    92   45   46 2    
    93   45   47 1    
    94   47   48 1    
    95   47   49 1    
    96   47  170 1    
    97   48  171 1    
    98   48  172 1    
    99   48  173 1    
   100   49   50 am   BACKBONE|DICT|INTERRES
   101   49  174 1    
   102   50   51 2    
   103   50   52 1    
   104   52   53 1    
   105   52   54 1    
   106   52  175 1    
   107   53  176 1    
   108   53  177 1    
   109   53  178 1    
   110   54   55 am   BACKBONE|DICT|INTERRES
   111   54  179 1    
   112   55   56 2    
   113   55   57 1    
   114   57   58 1    
   115   57   59 1    
   116   57  180 1    
   117   58  181 1    
   118   58  182 1    
   119   58  183 1    
   120   59   60 am   BACKBONE|DICT|INTERRES
   121   59  184 1    
   122   60   61 2    
   123   60   62 1    
   124   62   63 1    
   125   62   64 1    
   126   62  185 1    
   127   63  186 1    
   128   63  187 1    
   129   63  188 1    
   130   64   65 am   BACKBONE|DICT|INTERRES
   131   64  189 1    
   132   65   66 2    
   133   67   68 2    
   134   67   69 am   BACKBONE|DICT|INTERRES
   135   69   70 1    
   136   69  190 1    
   137   70   71 1    
   138   70   72 1    
   139   70  191 1    
   140   71  192 1    
   141   71  193 1    
   142   71  194 1    
   143   72   73 2    
   144   72   74 am   BACKBONE|DICT|INTERRES
   145   74   75 1    
   146   74  195 1    
   147   75   76 1    
   148   75   77 1    
   149   75  196 1    
   150   76  197 1    
   151   76  198 1    
   152   76  199 1    
   153   77   78 2    
   154   77   79 am   BACKBONE|DICT|INTERRES
   155   79   80 1    
   156   79  200 1    
   157   80   81 1    
   158   80   82 1    
   159   80  201 1    
   160   81  202 1    
   161   81  203 1    
   162   81  204 1    
   163   82   83 2    
   164   82   84 am   BACKBONE|DICT|INTERRES
   165   84   85 1    
   166   84  205 1    
   167   85   86 1    
   168   85   87 1    
   169   85  206 1    
   170   86  207 1    
   171   86  208 1    
   172   86  209 1    
   173   87   88 2    
   174   87   89 am   BACKBONE|DICT|INTERRES
   175   89   90 1    
   176   89  210 1    
   177   90   91 1    
   178   90   92 1    
   179   90  211 1    
   180   91  212 1    
   181   91  213 1    
   182   91  214 1    
   183   92   93 2    
   184   92   94 am   BACKBONE|DICT|INTERRES
   185   94   95 1    
   186   94  215 1    
   187   95   96 1    
   188   95   97 1    
   189   95  216 1    
   190   96  217 1    
   191   96  218 1    
   192   96  219 1    
   193   97   98 2    
   194   97   99 am   BACKBONE|DICT|INTERRES
   195   99  100 1    
   196   99  220 1    
   197  100  101 1    
   198  100  102 1    
   199  100  221 1    
   200  101  222 1    
   201  101  223 1    
   202  101  224 1    
   203  102  103 2    
   204  102  104 am   BACKBONE|DICT|INTERRES
   205  104  105 1    
   206  104  225 1    
   207  105  106 1    
   208  105  107 1    
   209  105  226 1    
   210  106  227 1    
   211  106  228 1    
   212  106  229 1    
   213  107  108 2    
   214  107  109 am   BACKBONE|DICT|INTERRES
   215  109  110 1    
   216  109  230 1    
   217  110  111 1    
   218  110  112 1    
   219  110  231 1    
   220  111  232 1    
   221  111  233 1    
   222  111  234 1    
   223  112  113 2    
   224  112  114 am   BACKBONE|DICT|INTERRES
   225  114  115 1    
   226  114  235 1    
   227  115  116 1    
   228  115  117 1    
   229  115  236 1    
   230  116  237 1    
   231  116  238 1    
   232  116  239 1    
   233  117  118 2    
   234  117  119 am   BACKBONE|DICT|INTERRES
   235  119  120 1    
   236  119  240 1    
   237  120  121 1    
   238  120  124 1    
   239  120  241 1    
   240  121  122 am   BACKBONE|DICT|INTERRES
   241  121  123 2    
   242  122  242 1    
   243  122  243 1    
   244  124  125 1    
   245  124  244 1    
   246  124  245 1    
   247  125  126 1    
   248  126  246 1    
   249  126  247 1    
@<TRIPOS>SUBSTRUCTURE
     1 UNK         1 GROUP             0       ****    0 ROOT    
