@<TRIPOS>MOLECULE
3R540
247   249    1
SMALL
USER_CHARGES


@<TRIPOS>ATOM
      1 CA          4.2540  -15.1443  -45.6681 C.3       0 UNK        -0.1800 
      2 C           3.2855  -15.0275  -46.8363 C.2       0 UNK         0.5000 
      3 O           3.6667  -14.5303  -47.8964 O.2       0 UNK        -0.5000 
      4 N           2.0406  -15.4809  -46.6385 N.am      1 UNK        -0.5000 
      5 CA          0.9124  -15.5007  -47.5805 C.3       1 UNK         0.1400 
      6 C6          1.1878  -16.2802  -48.8970 C.3       23 UNK        -0.0398 
      7 S7          1.3743  -18.0754  -48.6330 S.3       23 UNK        -0.2404 
      8 C8         -0.1460  -18.7208  -49.4016 C.3       23 UNK        -0.0205 
      9 C9         -1.3621  -18.5094  -48.5130 C.ar      23 UNK        -0.0193 
     10 C10        -2.1041  -17.3274  -48.5847 C.ar      23 UNK        -0.1150 
     11 C11        -3.2177  -17.1340  -47.7634 C.ar      23 UNK        -0.0193 
     12 C12        -3.5998  -18.1414  -46.8733 C.ar      23 UNK        -0.1150 
     13 C13        -2.8724  -19.3331  -46.7998 C.ar      23 UNK        -0.0193 
     14 C14        -1.7524  -19.5066  -47.6182 C.ar      23 UNK        -0.1150 
     15 C15        -3.2829  -20.4387  -45.8410 C.3       23 UNK        -0.0205 
     16 S16        -1.9766  -20.7390  -44.6114 S.3       23 UNK        -0.2404 
     17 C17        -2.1809  -22.5120  -44.2425 C.3       23 UNK        -0.0398 
     18 CA         -1.6380  -23.4393  -45.3583 C.3       11 UNK         0.1400 
     19 N          -0.2469  -23.1543  -45.7387 N.am      11 UNK        -0.5000 
     20 C           0.3732  -23.6917  -46.8022 C.2       10 UNK         0.5000 
     21 O          -0.1801  -24.4728  -47.5769 O.2       10 UNK        -0.5000 
     22 CA          1.8476  -23.3276  -47.0547 C.3       10 UNK         0.1400 
     23 CB          1.9287  -22.2168  -48.1132 C.3       10 UNK        -0.1800 
     24 N           2.5779  -22.8975  -45.8636 N.am      10 UNK        -0.5000 
     25 C           2.7401  -23.5906  -44.7259 C.2       9 UNK         0.5000 
     26 O           2.3364  -24.7419  -44.5619 O.2       9 UNK        -0.5000 
     27 CA          3.4113  -22.8382  -43.5548 C.3       9 UNK         0.1400 
     28 CB          4.8985  -23.2092  -43.4587 C.3       9 UNK        -0.1800 
     29 N           3.2840  -21.3771  -43.6558 N.am      9 UNK        -0.5000 
     30 C           2.1156  -20.7203  -43.6772 C.2       8 UNK         0.5000 
     31 O           1.0283  -21.2772  -43.5052 O.2       8 UNK        -0.5000 
     32 CA          2.1658  -19.2256  -44.0325 C.3       8 UNK         0.1400 
     33 CB          2.8537  -19.0072  -45.3963 C.3       8 UNK        -0.1800 
     34 N           0.7980  -18.7163  -44.0681 N.am      8 UNK        -0.5000 
     35 C           0.4319  -17.4335  -44.0839 C.2       7 UNK         0.5000 
     36 O           1.2312  -16.4921  -44.1194 O.2       7 UNK        -0.5000 
     37 CA         -1.0774  -17.1507  -44.0445 C.3       7 UNK         0.1400 
     38 CB         -1.6637  -17.5421  -42.6716 C.3       7 UNK        -0.1800 
     39 N          -1.2698  -15.7284  -44.2996 N.am      7 UNK        -0.5000 
     40 C          -2.4222  -15.0640  -44.4274 C.2       6 UNK         0.5000 
     41 O          -3.5248  -15.6123  -44.4293 O.2       6 UNK        -0.5000 
     42 CA         -2.3375  -13.5256  -44.5783 C.3       6 UNK         0.1400 
     43 CB         -3.4443  -12.8063  -43.7809 C.3       6 UNK        -0.1800 
     44 N          -1.0277  -12.9325  -44.2649 N.am      6 UNK        -0.5000 
     45 C          -0.3553  -12.9895  -43.1036 C.2       5 UNK         0.5000 
     46 O          -0.7303  -13.6118  -42.1099 O.2       5 UNK        -0.5000 
     47 CA          0.9583  -12.1920  -43.0463 C.3       5 UNK         0.1400 
     48 CB          2.0519  -12.8671  -43.8893 C.3       5 UNK        -0.1800 
     49 N           0.7695  -10.8056  -43.4783 N.am      5 UNK        -0.5000 
     50 C           0.0657   -9.8992  -42.7810 C.2       4 UNK         0.5000 
     51 O          -0.4522  -10.1378  -41.6890 O.2       4 UNK        -0.5000 
     52 CA         -0.0807   -8.4820  -43.3689 C.3       4 UNK         0.1400 
     53 CB          0.7931   -7.4851  -42.5908 C.3       4 UNK        -0.1800 
     54 N           0.2478   -8.3765  -44.7898 N.am      4 UNK        -0.5000 
     55 C          -0.4881   -8.8624  -45.7970 C.2       3 UNK         0.5000 
     56 O          -1.5238   -9.5105  -45.6356 O.2       3 UNK        -0.5000 
     57 CA          0.0037   -8.5638  -47.2302 C.3       3 UNK         0.1400 
     58 CB          1.3311   -7.7726  -47.2958 C.3       3 UNK        -0.1800 
     59 N           0.1044   -9.7676  -48.0584 N.am      3 UNK        -0.5000 
     60 C           0.8109  -10.8751  -47.7948 C.2       2 UNK         0.5000 
     61 O           1.4361  -11.0703  -46.7488 O.2       2 UNK        -0.5000 
     62 CA          0.8684  -11.8994  -48.9410 C.3       2 UNK         0.1400 
     63 CB          1.9111  -11.4717  -49.9864 C.3       2 UNK        -0.1800 
     64 N           1.2072  -13.2418  -48.4822 N.am      2 UNK        -0.5000 
     65 C           0.3695  -14.0894  -47.8795 C.2       1 UNK         0.5000 
     66 O          -0.7920  -13.8087  -47.5855 O.2       1 UNK        -0.5000 
     67 C          -1.8630  -24.9222  -44.9915 C.2       11 UNK         0.5000 
     68 O          -2.9534  -25.4404  -45.2328 O.2       11 UNK        -0.5000 
     69 N          -0.8177  -25.6000  -44.4911 N.am      12 UNK        -0.5000 
     70 CA         -0.8106  -27.0430  -44.2293 C.3       12 UNK         0.1400 
     71 CB          0.4196  -27.3929  -43.3788 C.3       12 UNK        -0.1800 
     72 C          -0.8380  -27.8953  -45.5164 C.2       12 UNK         0.5000 
     73 O          -1.2287  -29.0613  -45.4609 O.2       12 UNK        -0.5000 
     74 N          -0.4499  -27.2937  -46.6484 N.am      13 UNK        -0.5000 
     75 CA         -0.4897  -27.8695  -47.9910 C.3       13 UNK         0.1400 
     76 CB          0.8743  -27.6314  -48.6649 C.3       13 UNK        -0.1800 
     77 C          -1.6490  -27.2722  -48.8158 C.2       13 UNK         0.5000 
     78 O          -1.5658  -27.2445  -50.0440 O.2       13 UNK        -0.5000 
     79 N          -2.6977  -26.7794  -48.1361 N.am      14 UNK        -0.5000 
     80 CA         -3.9008  -26.1524  -48.6970 C.3       14 UNK         0.1400 
     81 CB         -4.7404  -27.1842  -49.4797 C.3       14 UNK        -0.1800 
     82 C          -3.5773  -24.8900  -49.5216 C.2       14 UNK         0.5000 
     83 O          -4.0564  -24.7417  -50.6461 O.2       14 UNK        -0.5000 
     84 N          -2.7270  -24.0257  -48.9499 N.am      15 UNK        -0.5000 
     85 CA         -2.1611  -22.8116  -49.5478 C.3       15 UNK         0.1400 
     86 CB         -3.2529  -21.7613  -49.8305 C.3       15 UNK        -0.1800 
     87 C          -1.2941  -23.1401  -50.7753 C.2       15 UNK         0.5000 
     88 O          -1.4449  -22.5125  -51.8231 O.2       15 UNK        -0.5000 
     89 N          -0.4299  -24.1544  -50.6148 N.am      16 UNK        -0.5000 
     90 CA          0.4397  -24.7483  -51.6367 C.3       16 UNK         0.1400 
     91 CB          1.5869  -23.7820  -51.9965 C.3       16 UNK        -0.1800 
     92 C          -0.3555  -25.2375  -52.8667 C.2       16 UNK         0.5000 
     93 O          -0.0354  -24.8756  -54.0000 O.2       16 UNK        -0.5000 
     94 N          -1.4005  -26.0336  -52.5969 N.am      17 UNK        -0.5000 
     95 CA         -2.3968  -26.5482  -53.5403 C.3       17 UNK         0.1400 
     96 CB         -1.7593  -27.5632  -54.5121 C.3       17 UNK        -0.1800 
     97 C          -3.1678  -25.4164  -54.2529 C.2       17 UNK         0.5000 
     98 O          -3.2675  -25.4082  -55.4816 O.2       17 UNK        -0.5000 
     99 N          -3.6967  -24.4830  -53.4485 N.am      18 UNK        -0.5000 
    100 CA        -4.4715  -23.3017  -53.8350 C.3       18 UNK         0.1400 
    101 CB        -5.8522  -23.7158  -54.3846 C.3       18 UNK        -0.1800 
    102 C         -3.7037  -22.3476  -54.7732 C.2       18 UNK         0.5000 
    103 O         -4.2498  -21.8929  -55.7809 O.2       18 UNK        -0.5000 
    104 N         -2.4480  -22.0433  -54.4160 N.am      19 UNK        -0.5000 
    105 CA        -1.6159  -21.0421  -55.0890 C.3       19 UNK         0.1400 
    106 CB        -0.1539  -21.2122  -54.6502 C.3       19 UNK        -0.1800 
    107 C         -2.0995  -19.6052  -54.8106 C.2       19 UNK         0.5000 
    108 O         -1.8878  -18.7198  -55.6403 O.2       19 UNK        -0.5000 
    109 N         -2.7633  -19.4153  -53.6650 N.am      20 UNK        -0.5000 
    110 CA        -3.5142  -18.2231  -53.2983 C.3       20 UNK         0.1400 
    111 CB        -2.8940  -17.6089  -52.0350 C.3       20 UNK        -0.1800 
    112 C         -4.9619  -18.6537  -53.0287 C.2       20 UNK         0.5000 
    113 O         -5.1813  -19.7367  -52.4775 O.2       20 UNK        -0.5000 
    114 N         -5.9229  -17.7925  -53.3880 N.am      21 UNK        -0.5000 
    115 CA        -7.3634  -18.0296  -53.2250 C.3       21 UNK         0.1400 
    116 CB        -8.1396  -16.9073  -53.9308 C.3       21 UNK        -0.1800 
    117 C         -7.8106  -18.1540  -51.7545 C.2       21 UNK         0.5000 
    118 O         -8.7931  -18.8401  -51.4710 O.2       21 UNK        -0.5000 
    119 N         -7.0643  -17.5074  -50.8528 N.am      22 UNK        -0.5000 
    120 CA        -7.1718  -17.6396  -49.3933 C.3       22 UNK         0.1400 
    121 C         -6.5748  -18.9552  -48.8109 C.2       22 UNK         0.5000 
    122 N         -5.9321  -19.8110  -49.5962 N.am      22 UNK        -0.7600 
    123 O         -6.7305  -19.2231  -47.6228 O.2       22 UNK        -0.5000 
    124 C124       -6.6510  -16.3716  -48.6628 C.3       23 UNK        -0.0398 
    125 S125       -5.0566  -15.7242  -49.2888 S.3       23 UNK        -0.2404 
    126 C126       -3.9796  -15.8203  -47.8260 C.3       23 UNK        -0.0205 
    127 H127        5.1165  -15.7455  -45.9552 H         1 UNK         0.0600 
    128 H128        3.7891  -15.6117  -44.7997 H         1 UNK         0.0600 
    129 H129        4.6068  -14.1560  -45.3738 H         1 UNK         0.0600 
    130 H130        1.8179  -15.8566  -45.7187 H         1 UNK         0.3000 
    131 H131        0.1099  -16.0228  -47.0562 H         1 UNK         0.0600 
    132 H132        2.0907  -15.9177  -49.3883 H         1 UNK         0.0800 
    133 H133        0.3902  -16.1135  -49.6214 H         1 UNK         0.0800 
    134 H134       -0.0126  -19.7864  -49.5947 H         1 UNK         0.0800 
    135 H135       -0.2996  -18.2591  -50.3776 H         1 UNK         0.0800 
    136 H136       -1.8200  -16.5500  -49.2784 H         1 UNK         0.1150 
    137 H137       -4.4608  -17.9950  -46.2364 H         1 UNK         0.1150 
    138 H138       -1.1789  -20.4195  -47.5493 H         1 UNK         0.1150 
    139 H139       -4.2103  -20.1869  -45.3242 H         1 UNK         0.0800 
    140 H140       -3.4855  -21.3400  -46.4184 H         1 UNK         0.0800 
    141 H141       -3.2392  -22.7059  -44.0579 H         1 UNK         0.0800 
    142 H142       -1.6638  -22.7114  -43.3022 H         1 UNK         0.0800 
    143 H143       -2.2419  -23.2582  -46.2477 H         1 UNK         0.0600 
    144 H144        0.2579  -22.5169  -45.1333 H         1 UNK         0.3000 
    145 H145        2.3418  -24.2196  -47.4445 H         1 UNK         0.0600 
    146 H146        1.4694  -21.2916  -47.7624 H         1 UNK         0.0600 
    147 H147        2.9626  -21.9982  -48.3807 H         1 UNK         0.0600 
    148 H148        1.4136  -22.5068  -49.0290 H         1 UNK         0.0600 
    149 H149        2.9563  -21.9633  -45.8922 H         1 UNK         0.3000 
    150 H150        2.9159  -23.1566  -42.6352 H         1 UNK         0.0600 
    151 H151        5.0259  -24.2879  -43.3574 H         1 UNK         0.0600 
    152 H152        5.3658  -22.7457  -42.5896 H         1 UNK         0.0600 
    153 H153        5.4502  -22.8953  -44.3457 H         1 UNK         0.0600 
    154 H154        4.1411  -20.8611  -43.7933 H         1 UNK         0.3000 
    155 H155        2.7197  -18.7057  -43.2486 H         1 UNK         0.0600 
    156 H156        3.8899  -19.3455  -45.3848 H         1 UNK         0.0600 
    157 H157        2.8756  -17.9556  -45.6737 H         1 UNK         0.0600 
    158 H158        2.3385  -19.5470  -46.1908 H         1 UNK         0.0600 
    159 H159        0.0944  -19.4457  -44.0084 H         1 UNK         0.3000 
    160 H160       -1.5598  -17.7191  -44.8395 H         1 UNK         0.0600 
    161 H161       -2.7472  -17.4291  -42.6510 H         1 UNK         0.0600 
    162 H162       -1.2475  -16.9288  -41.8714 H         1 UNK         0.0600 
    163 H163       -1.4533  -18.5842  -42.4296 H         1 UNK         0.0600 
    164 H164       -0.4046  -15.2040  -44.3006 H         1 UNK         0.3000 
    165 H165       -2.5160  -13.3205  -45.6341 H         1 UNK         0.0600 
    166 H166       -3.3686  -13.0097  -42.7123 H         1 UNK         0.0600 
    167 H167       -3.3914  -11.7264  -43.9217 H         1 UNK         0.0600 
    168 H168       -4.4353  -13.1255  -44.1056 H         1 UNK         0.0600 
    169 H169       -0.6194  -12.3881  -45.0127 H         1 UNK         0.3000 
    170 H170        1.2991  -12.1795  -42.0086 H         1 UNK         0.0600 
    171 H171        1.7685  -12.9465  -44.9386 H         1 UNK         0.0600 
    172 H172        2.9903  -12.3153  -43.8369 H         1 UNK         0.0600 
    173 H173        2.2483  -13.8776  -43.5288 H         1 UNK         0.0600 
    174 H174        1.1461  -10.5479  -44.3812 H         1 UNK         0.3000 
    175 H175       -1.1250   -8.1889  -43.2422 H         1 UNK         0.0600 
    176 H176        1.8541   -7.7174  -42.6908 H         1 UNK         0.0600 
    177 H177        0.6371   -6.4647  -42.9417 H         1 UNK         0.0600 
    178 H178        0.5531   -7.4998  -41.5267 H         1 UNK         0.0600 
    179 H179        1.0926   -7.8723  -45.0169 H         1 UNK         0.3000 
    180 H180       -0.7693   -7.9430  -47.6854 H         1 UNK         0.0600 
    181 H181        2.1593   -8.3224  -46.8466 H         1 UNK         0.0600 
    182 H182        1.2482   -6.8110  -46.7877 H         1 UNK         0.0600 
    183 H183        1.6038   -7.5592  -48.3294 H         1 UNK         0.0600 
    184 H184       -0.3968   -9.7231  -48.9345 H         1 UNK         0.3000 
    185 H185       -0.1119  -11.9368  -49.4214 H         1 UNK         0.0600 
    186 H186        1.9352  -12.1663  -50.8264 H         1 UNK         0.0600 
    187 H187        1.6851  -10.4841  -50.3903 H         1 UNK         0.0600 
    188 H188        2.9135  -11.4295  -49.5578 H         1 UNK         0.0600 
    189 H189        2.1776  -13.5291  -48.5722 H         1 UNK         0.3000 
    190 H190        0.0629  -25.1168  -44.3605 H         1 UNK         0.3000 
    191 H191       -1.7050  -27.2886  -43.6529 H         1 UNK         0.0600 
    192 H192        1.3485  -27.1944  -43.9147 H         1 UNK         0.0600 
    193 H193        0.4369  -26.8191  -42.4521 H         1 UNK         0.0600 
    194 H194        0.4184  -28.4492  -43.1070 H         1 UNK         0.0600 
    195 H195       -0.1854  -26.3168  -46.6109 H         1 UNK         0.3000 
    196 H196       -0.6585  -28.9466  -47.9390 H         1 UNK         0.0600 
    197 H197        1.6835  -28.0602  -48.0737 H         1 UNK         0.0600 
    198 H198        1.0819  -26.5687  -48.7923 H         1 UNK         0.0600 
    199 H199        0.9151  -28.0963  -49.6507 H         1 UNK         0.0600 
    200 H200       -2.6614  -26.8149  -47.1258 H         1 UNK         0.3000 
    201 H201       -4.4984  -25.8174  -47.8479 H         1 UNK         0.0600 
    202 H202       -5.6898  -26.7524  -49.7985 H         1 UNK         0.0600 
    203 H203       -4.9706  -28.0533  -48.8636 H         1 UNK         0.0600 
    204 H204       -4.2257  -27.5345  -50.3749 H         1 UNK         0.0600 
    205 H205       -2.2988  -24.3101  -48.0795 H         1 UNK         0.3000 
    206 H206       -1.4860  -22.3839  -48.8075 H         1 UNK         0.0600 
    207 H207       -3.9576  -22.0924  -50.5932 H         1 UNK         0.0600 
    208 H208       -2.8156  -20.8247  -50.1787 H         1 UNK         0.0600 
    209 H209       -3.8136  -21.5384  -48.9242 H         1 UNK         0.0600 
    210 H210       -0.4033  -24.5965  -49.7036 H         1 UNK         0.3000 
    211 H211        0.8858  -25.6372  -51.1888 H         1 UNK         0.0600 
    212 H212        2.1732  -23.5214  -51.1160 H         1 UNK         0.0600 
    213 H213        2.2700  -24.2364  -52.7150 H         1 UNK         0.0600 
    214 H214        1.2156  -22.8574  -52.4379 H         1 UNK         0.0600 
    215 H215       -1.5460  -26.3093  -51.6271 H         1 UNK         0.3000 
    216 H216       -3.1313  -27.0871  -52.9399 H         1 UNK         0.0600 
    217 H217       -2.5190  -28.0316  -55.1388 H         1 UNK         0.0600 
    218 H218       -1.0339  -27.0921  -55.1759 H         1 UNK         0.0600 
    219 H219       -1.2500  -28.3600  -53.9700 H         1 UNK         0.0600 
    220 H220       -3.5866  -24.6001  -52.4432 H         1 UNK         0.3000 
    221 H221       -4.6440  -22.7413  -52.9149 H         1 UNK         0.0600 
    222 H222       -5.7684  -24.2548  -55.3286 H         1 UNK         0.0600 
    223 H223       -6.3805  -24.3556  -53.6777 H         1 UNK         0.0600 
    224 H224       -6.4797  -22.8412  -54.5603 H         1 UNK         0.0600 
    225 H225       -2.0716  -22.4295  -53.5517 H         1 UNK         0.3000 
    226 H226       -1.6723  -21.2143  -56.1657 H         1 UNK         0.0600 
    227 H227        0.2033  -22.2227  -54.8489 H         1 UNK         0.0600 
    228 H228        0.4975  -20.5240  -55.1899 H         1 UNK         0.0600 
    229 H229       -0.0283  -21.0144  -53.5852 H         1 UNK         0.0600 
    230 H230       -2.9322  -20.2204  -53.0768 H         1 UNK         0.3000 
    231 H231       -3.5004  -17.4874  -54.1051 H         1 UNK         0.0600 
    232 H232       -3.4211  -16.7008  -51.7416 H         1 UNK         0.0600 
    233 H233       -1.8504  -17.3407  -52.1987 H         1 UNK         0.0600 
    234 H234       -2.9354  -18.3004  -51.1923 H         1 UNK         0.0600 
    235 H235       -5.6614  -16.9195  -53.8235 H         1 UNK         0.3000 
    236 H236       -7.6028  -18.9740  -53.7185 H         1 UNK         0.0600 
    237 H237       -7.8968  -16.8661  -54.9928 H         1 UNK         0.0600 
    238 H238       -9.2158  -17.0668  -53.8513 H         1 UNK         0.0600 
    239 H239       -7.9196  -15.9312  -53.4964 H         1 UNK         0.0600 
    240 H240       -6.2748  -16.9686  -51.1774 H         1 UNK         0.3000 
    241 H241       -8.2366  -17.7060  -49.1619 H         1 UNK         0.0600 
    242 H242       -5.7978  -19.6352  -50.5854 H         1 UNK         0.3800 
    243 H243       -5.5731  -20.6580  -49.1917 H         1 UNK         0.3800 
    244 H244       -7.3815  -15.5724  -48.7940 H         1 UNK         0.0800 
    245 H245       -6.6007  -16.5324  -47.5847 H         1 UNK         0.0800 
    246 H246       -4.5599  -15.6596  -46.9170 H         1 UNK         0.0800 
    247 H247       -3.2629  -14.9992  -47.8695 H         1 UNK         0.0800 
@<TRIPOS>BOND
     1    1    2 1    
     2    1  127 1    
     3    1  128 1    
     4    1  129 1    
     5    2    3 2    
     6    2    4 am   BACKBONE|DICT|INTERRES
     7    4    5 1    
     8    4  130 1    
     9    5    6 1    
    10    5   65 1    
    11    5  131 1    
    12    6    7 1    
    13    6  132 1    
    14    6  133 1    
    15    7    8 1    
    16    8    9 1    
    17    8  134 1    
    18    8  135 1    
    19    9   10 ar   
    20    9   14 ar   
    21   10   11 ar   
    22   10  136 1    
    23   11   12 ar   
    24   11  126 1    
    25   12   13 ar   
    26   12  137 1    
    27   13   14 ar   
    28   13   15 1    
    29   14  138 1    
    30   15   16 1    
    31   15  139 1    
    32   15  140 1    
    33   16   17 1    
    34   17   18 1    
    35   17  141 1    
    36   17  142 1    
    37   18   19 1    
    38   18   67 1    
    39   18  143 1    
    40   19   20 am   BACKBONE|DICT|INTERRES
    41   19  144 1    
    42   20   21 2    
    43   20   22 1    
    44   22   23 1    
    45   22   24 1    
    46   22  145 1    
    47   23  146 1    
    48   23  147 1    
    49   23  148 1    
    50   24   25 am   BACKBONE|DICT|INTERRES
    51   24  149 1    
    52   25   26 2    
    53   25   27 1    
    54   27   28 1    
    55   27   29 1    
    56   27  150 1    
    57   28  151 1    
    58   28  152 1    
    59   28  153 1    
    60   29   30 am   BACKBONE|DICT|INTERRES
    61   29  154 1    
    62   30   31 2    
    63   30   32 1    
    64   32   33 1    
    65   32   34 1    
    66   32  155 1    
    67   33  156 1    
    68   33  157 1    
    69   33  158 1    
    70   34   35 am   BACKBONE|DICT|INTERRES
    71   34  159 1    
    72   35   36 2    
    73   35   37 1    
    74   37   38 1    
    75   37   39 1    
    76   37  160 1    
    77   38  161 1    
    78   38  162 1    
    79   38  163 1    
    80   39   40 am   BACKBONE|DICT|INTERRES
    81   39  164 1    
    82   40   41 2    
    83   40   42 1    
    84   42   43 1    
    85   42   44 1    
    86   42  165 1    
    87   43  166 1    
    88   43  167 1    
    89   43  168 1    
    90   44   45 am   BACKBONE|DICT|INTERRES
    91   44  169 1    
    92   45   46 2    
    93   45   47 1    
    94   47   48 1    
    95   47   49 1    
    96   47  170 1    
    97   48  171 1    
    98   48  172 1    
    99   48  173 1    
   100   49   50 am   BACKBONE|DICT|INTERRES
   101   49  174 1    
   102   50   51 2    
   103   50   52 1    
   104   52   53 1    
   105   52   54 1    
   106   52  175 1    
   107   53  176 1    
   108   53  177 1    
   109   53  178 1    
   110   54   55 am   BACKBONE|DICT|INTERRES
   111   54  179 1    
   112   55   56 2    
   113   55   57 1    
   114   57   58 1    
   115   57   59 1    
   116   57  180 1    
   117   58  181 1    
   118   58  182 1    
   119   58  183 1    
   120   59   60 am   BACKBONE|DICT|INTERRES
   121   59  184 1    
   122   60   61 2    
   123   60   62 1    
   124   62   63 1    
   125   62   64 1    
   126   62  185 1    
   127   63  186 1    
   128   63  187 1    
   129   63  188 1    
   130   64   65 am   BACKBONE|DICT|INTERRES
   131   64  189 1    
   132   65   66 2    
   133   67   68 2    
   134   67   69 am   BACKBONE|DICT|INTERRES
   135   69   70 1    
   136   69  190 1    
   137   70   71 1    
   138   70   72 1    
   139   70  191 1    
   140   71  192 1    
   141   71  193 1    
   142   71  194 1    
   143   72   73 2    
   144   72   74 am   BACKBONE|DICT|INTERRES
   145   74   75 1    
   146   74  195 1    
   147   75   76 1    
   148   75   77 1    
   149   75  196 1    
   150   76  197 1    
   151   76  198 1    
   152   76  199 1    
   153   77   78 2    
   154   77   79 am   BACKBONE|DICT|INTERRES
   155   79   80 1    
   156   79  200 1    
   157   80   81 1    
   158   80   82 1    
   159   80  201 1    
   160   81  202 1    
   161   81  203 1    
   162   81  204 1    
   163   82   83 2    
   164   82   84 am   BACKBONE|DICT|INTERRES
   165   84   85 1    
   166   84  205 1    
   167   85   86 1    
   168   85   87 1    
   169   85  206 1    
   170   86  207 1    
   171   86  208 1    
   172   86  209 1    
   173   87   88 2    
   174   87   89 am   BACKBONE|DICT|INTERRES
   175   89   90 1    
   176   89  210 1    
   177   90   91 1    
   178   90   92 1    
   179   90  211 1    
   180   91  212 1    
   181   91  213 1    
   182   91  214 1    
   183   92   93 2    
   184   92   94 am   BACKBONE|DICT|INTERRES
   185   94   95 1    
   186   94  215 1    
   187   95   96 1    
   188   95   97 1    
   189   95  216 1    
   190   96  217 1    
   191   96  218 1    
   192   96  219 1    
   193   97   98 2    
   194   97   99 am   BACKBONE|DICT|INTERRES
   195   99  100 1    
   196   99  220 1    
   197  100  101 1    
   198  100  102 1    
   199  100  221 1    
   200  101  222 1    
   201  101  223 1    
   202  101  224 1    
   203  102  103 2    
   204  102  104 am   BACKBONE|DICT|INTERRES
   205  104  105 1    
   206  104  225 1    
   207  105  106 1    
   208  105  107 1    
   209  105  226 1    
   210  106  227 1    
   211  106  228 1    
   212  106  229 1    
   213  107  108 2    
   214  107  109 am   BACKBONE|DICT|INTERRES
   215  109  110 1    
   216  109  230 1    
   217  110  111 1    
   218  110  112 1    
   219  110  231 1    
   220  111  232 1    
   221  111  233 1    
   222  111  234 1    
   223  112  113 2    
   224  112  114 am   BACKBONE|DICT|INTERRES
   225  114  115 1    
   226  114  235 1    
   227  115  116 1    
   228  115  117 1    
   229  115  236 1    
   230  116  237 1    
   231  116  238 1    
   232  116  239 1    
   233  117  118 2    
   234  117  119 am   BACKBONE|DICT|INTERRES
   235  119  120 1    
   236  119  240 1    
   237  120  121 1    
   238  120  124 1    
   239  120  241 1    
   240  121  122 am   BACKBONE|DICT|INTERRES
   241  121  123 2    
   242  122  242 1    
   243  122  243 1    
   244  124  125 1    
   245  124  244 1    
   246  124  245 1    
   247  125  126 1    
   248  126  246 1    
   249  126  247 1    
@<TRIPOS>SUBSTRUCTURE
     1 UNK         1 GROUP             0       ****    0 ROOT    
