@<TRIPOS>MOLECULE
3R540
247   249    1
SMALL
USER_CHARGES


@<TRIPOS>ATOM
      1 CA         -2.1550  -13.8193  -48.7645 C.3       0 UNK        -0.1800 
      2 C          -0.7405  -13.3137  -49.0032 C.2       0 UNK         0.5000 
      3 O          -0.3927  -12.2429  -48.5048 O.2       0 UNK        -0.5000 
      4 N           0.0812  -14.0744  -49.7441 N.am      1 UNK        -0.5000 
      5 CA          1.4589  -13.7047  -50.1209 C.3       1 UNK         0.1400 
      6 C6          2.1326  -14.7368  -51.0575 C.3       23 UNK        -0.0398 
      7 S7          1.2391  -15.0480  -52.6153 S.3       23 UNK        -0.2404 
      8 C8          2.0912  -16.5520  -53.2025 C.3       23 UNK        -0.0205 
      9 C9          1.3351  -17.8263  -52.8472 C.ar      23 UNK        -0.0193 
     10 C10         0.6806  -18.5583  -53.8428 C.ar      23 UNK        -0.1150 
     11 C11        -0.0274  -19.7235  -53.5276 C.ar      23 UNK        -0.0193 
     12 C12        -0.0759  -20.1554  -52.1973 C.ar      23 UNK        -0.1150 
     13 C13         0.5555  -19.4206  -51.1903 C.ar      23 UNK        -0.0193 
     14 C14         1.2787  -18.2755  -51.5259 C.ar      23 UNK        -0.1150 
     15 C15         0.3823  -19.7957  -49.7286 C.3       23 UNK        -0.0205 
     16 S16         1.9226  -20.3788  -48.9539 S.3       23 UNK        -0.2404 
     17 C17         1.4149  -20.3517  -47.1961 C.3       23 UNK        -0.0398 
     18 CA          0.9862  -21.7246  -46.6221 C.3       11 UNK         0.1400 
     19 N           0.6812  -21.6333  -45.1930 N.am      11 UNK        -0.5000 
     20 C           0.4067  -22.6728  -44.3924 C.2       10 UNK         0.5000 
     21 O           0.4471  -23.8479  -44.7548 O.2       10 UNK        -0.5000 
     22 CA         -0.0464  -22.3399  -42.9600 C.3       10 UNK         0.1400 
     23 CB          1.1571  -22.0021  -42.0680 C.3       10 UNK        -0.1800 
     24 N          -1.0213  -21.2477  -42.9206 N.am      10 UNK        -0.5000 
     25 C          -2.2365  -21.3012  -43.4865 C.2       9 UNK         0.5000 
     26 O          -2.6766  -22.2947  -44.0644 O.2       9 UNK        -0.5000 
     27 CA         -3.0918  -20.0232  -43.4339 C.3       9 UNK         0.1400 
     28 CB         -3.7757  -19.8828  -42.0661 C.3       9 UNK        -0.1800 
     29 N          -2.3246  -18.8135  -43.7307 N.am      9 UNK        -0.5000 
     30 C          -1.7377  -18.5529  -44.9080 C.2       8 UNK         0.5000 
     31 O          -1.8082  -19.2918  -45.8901 O.2       8 UNK        -0.5000 
     32 CA         -0.8738  -17.2816  -44.9824 C.3       8 UNK         0.1400 
     33 CB         -1.7413  -16.0186  -45.0930 C.3       8 UNK        -0.1800 
     34 N           0.0187  -17.1504  -43.8330 N.am      8 UNK        -0.5000 
     35 C           0.9802  -18.0211  -43.4974 C.2       7 UNK         0.5000 
     36 O           1.2674  -19.0158  -44.1626 O.2       7 UNK        -0.5000 
     37 CA          1.7074  -17.7607  -42.1676 C.3       7 UNK         0.1400 
     38 CB          2.8269  -16.7260  -42.3413 C.3       7 UNK        -0.1800 
     39 N           0.7887  -17.3121  -41.1224 N.am      7 UNK        -0.5000 
     40 C          -0.1339  -18.0924  -40.5435 C.2       6 UNK         0.5000 
     41 O          -0.2980  -19.2805  -40.8198 O.2       6 UNK        -0.5000 
     42 CA         -1.0512  -17.4158  -39.5099 C.3       6 UNK         0.1400 
     43 CB         -0.3458  -17.2961  -38.1507 C.3       6 UNK        -0.1800 
     44 N          -1.5028  -16.0926  -39.9439 N.am      6 UNK        -0.5000 
     45 C          -2.3242  -15.8841  -40.9818 C.2       5 UNK         0.5000 
     46 O          -2.7891  -16.7858  -41.6781 O.2       5 UNK        -0.5000 
     47 CA         -2.6549  -14.4202  -41.3217 C.3       5 UNK         0.1400 
     48 CB         -3.8051  -13.9093  -40.4411 C.3       5 UNK        -0.1800 
     49 N          -1.5153  -13.5045  -41.2123 N.am      5 UNK        -0.5000 
     50 C          -0.3766  -13.6083  -41.9097 C.2       4 UNK         0.5000 
     51 O          -0.0969  -14.5640  -42.6362 O.2       4 UNK        -0.5000 
     52 CA          0.6272  -12.4529  -41.7692 C.3       4 UNK         0.1400 
     53 CB          1.8568  -12.8946  -40.9617 C.3       4 UNK        -0.1800 
     54 N           1.0565  -11.9916  -43.0871 N.am      4 UNK        -0.5000 
     55 C           0.2943  -11.3133  -43.9528 C.2       3 UNK         0.5000 
     56 O          -0.8380  -10.9081  -43.6857 O.2       3 UNK        -0.5000 
     57 CA          0.8780  -11.0444  -45.3548 C.3       3 UNK         0.1400 
     58 CB          1.8702   -9.8660  -45.3338 C.3       3 UNK        -0.1800 
     59 N           1.4528  -12.2237  -46.0165 N.am      3 UNK        -0.5000 
     60 C           2.5407  -12.9379  -45.6864 C.2       2 UNK         0.5000 
     61 O           3.2551  -12.6867  -44.7149 O.2       2 UNK        -0.5000 
     62 CA          2.8865  -14.1572  -46.5657 C.3       2 UNK         0.1400 
     63 CB          2.6446  -15.4597  -45.7915 C.3       2 UNK        -0.1800 
     64 N           2.1291  -14.2168  -47.8154 N.am      2 UNK        -0.5000 
     65 C           2.3825  -13.4770  -48.9032 C.2       1 UNK         0.5000 
     66 O           3.2949  -12.6528  -48.9733 O.2       1 UNK        -0.5000 
     67 C          -0.1865  -22.3521  -47.4040 C.2       11 UNK         0.5000 
     68 O           0.0368  -23.2928  -48.1640 O.2       11 UNK        -0.5000 
     69 N          -1.4106  -21.8508  -47.1810 N.am      12 UNK        -0.5000 
     70 CA         -2.6365  -22.3464  -47.8100 C.3       12 UNK         0.1400 
     71 CB         -3.8220  -21.4677  -47.3840 C.3       12 UNK        -0.1800 
     72 C          -2.9122  -23.8293  -47.5043 C.2       12 UNK         0.5000 
     73 O          -3.2513  -24.5845  -48.4162 O.2       12 UNK        -0.5000 
     74 N          -2.7116  -24.2267  -46.2399 N.am      13 UNK        -0.5000 
     75 CA         -2.8133  -25.6082  -45.7739 C.3       13 UNK         0.1400 
     76 CB         -2.7503  -25.6390  -44.2394 C.3       13 UNK        -0.1800 
     77 C          -1.7390  -26.5263  -46.3852 C.2       13 UNK         0.5000 
     78 O          -2.0675  -27.6349  -46.8078 O.2       13 UNK        -0.5000 
     79 N          -0.4876  -26.0477  -46.4440 N.am      14 UNK        -0.5000 
     80 CA          0.6493  -26.7610  -47.0318 C.3       14 UNK         0.1400 
     81 CB          1.9553  -26.0325  -46.6799 C.3       14 UNK        -0.1800 
     82 C           0.5203  -26.9427  -48.5552 C.2       14 UNK         0.5000 
     83 O           0.8222  -28.0218  -49.0666 O.2       14 UNK        -0.5000 
     84 N           0.0525  -25.8955  -49.2472 N.am      15 UNK        -0.5000 
     85 CA         -0.2418  -25.9043  -50.6810 C.3       15 UNK         0.1400 
     86 CB         -0.4165  -24.4542  -51.1647 C.3       15 UNK        -0.1800 
     87 C          -1.4933  -26.7303  -51.0345 C.2       15 UNK         0.5000 
     88 O          -1.6124  -27.1787  -52.1753 O.2       15 UNK        -0.5000 
     89 N          -2.4029  -26.8876  -50.0598 N.am      16 UNK        -0.5000 
     90 CA         -3.7530  -27.4477  -50.1726 C.3       16 UNK         0.1400 
     91 CB         -3.7041  -28.9560  -50.4923 C.3       16 UNK        -0.1800 
     92 C          -4.6078  -26.6316  -51.1640 C.2       16 UNK         0.5000 
     93 O          -5.2671  -27.1965  -52.0395 O.2       16 UNK        -0.5000 
     94 N          -4.5327  -25.3031  -51.0286 N.am      17 UNK        -0.5000 
     95 CA         -5.0940  -24.3242  -51.9520 C.3       17 UNK         0.1400 
     96 CB         -4.1337  -24.1358  -53.1483 C.3       17 UNK        -0.1800 
     97 C          -5.4044  -23.0197  -51.1967 C.2       17 UNK         0.5000 
     98 O          -5.7239  -23.0607  -50.0069 O.2       17 UNK        -0.5000 
     99 N          -5.3302  -21.8876  -51.9038 N.am      18 UNK        -0.5000 
    100 CA        -5.4895  -20.5423  -51.3586 C.3       18 UNK         0.1400 
    101 CB        -5.9728  -19.6220  -52.4912 C.3       18 UNK        -0.1800 
    102 C         -4.1666  -20.0194  -50.7677 C.2       18 UNK         0.5000 
    103 O         -3.1264  -20.6678  -50.8852 O.2       18 UNK        -0.5000 
    104 N         -4.2286  -18.8272  -50.1642 N.am      19 UNK        -0.5000 
    105 CA        -3.0655  -18.1188  -49.6262 C.3       19 UNK         0.1400 
    106 CB        -3.5192  -17.2590  -48.4398 C.3       19 UNK        -0.1800 
    107 C         -2.3341  -17.2512  -50.6735 C.2       19 UNK         0.5000 
    108 O         -1.2951  -16.6754  -50.3446 O.2       19 UNK        -0.5000 
    109 N         -2.8898  -17.1401  -51.8883 N.am      20 UNK        -0.5000 
    110 CA        -2.3180  -16.3874  -53.0032 C.3       20 UNK         0.1400 
    111 CB        -2.4280  -14.8671  -52.7667 C.3       20 UNK        -0.1800 
    112 C         -2.9878  -16.7834  -54.3250 C.2       20 UNK         0.5000 
    113 O         -2.3070  -17.2091  -55.2584 O.2       20 UNK        -0.5000 
    114 N         -4.3184  -16.6327  -54.3859 N.am      21 UNK        -0.5000 
    115 CA        -5.1409  -16.8176  -55.5868 C.3       21 UNK         0.1400 
    116 CB        -6.4059  -15.9509  -55.4470 C.3       21 UNK        -0.1800 
    117 C         -5.4654  -18.3007  -55.8670 C.2       21 UNK         0.5000 
    118 O         -6.6363  -18.6749  -55.9588 O.2       21 UNK        -0.5000 
    119 N         -4.4195  -19.1275  -55.9517 N.am      22 UNK        -0.5000 
    120 CA        -4.4952  -20.5788  -56.1730 C.3       22 UNK         0.1400 
    121 C         -5.0190  -20.9498  -57.5884 C.2       22 UNK         0.5000 
    122 N         -5.7769  -22.0309  -57.7131 N.am      22 UNK        -0.7600 
    123 O         -4.7092  -20.2930  -58.5804 O.2       22 UNK        -0.5000 
    124 C124       -3.1365  -21.2719  -55.8994 C.3       23 UNK        -0.0398 
    125 S125       -2.4728  -20.8738  -54.2453 S.3       23 UNK        -0.2404 
    126 C126       -0.7301  -20.5031  -54.6334 C.3       23 UNK        -0.0205 
    127 H127       -2.8500  -12.9818  -48.7053 H         1 UNK         0.0600 
    128 H128       -2.4917  -14.4698  -49.5693 H         1 UNK         0.0600 
    129 H129       -2.2031  -14.3677  -47.8247 H         1 UNK         0.0600 
    130 H130       -0.2611  -14.9592  -50.1119 H         1 UNK         0.3000 
    131 H131        1.3966  -12.7550  -50.6562 H         1 UNK         0.0600 
    132 H132        2.2716  -15.6762  -50.5267 H         1 UNK         0.0800 
    133 H133        3.1339  -14.3976  -51.3308 H         1 UNK         0.0800 
    134 H134        2.2082  -16.4755  -54.2845 H         1 UNK         0.0800 
    135 H135        3.1024  -16.5993  -52.7959 H         1 UNK         0.0800 
    136 H136        0.7142  -18.2134  -54.8667 H         1 UNK         0.1150 
    137 H137       -0.6413  -21.0411  -51.9421 H         1 UNK         0.1150 
    138 H138        1.7652  -17.7229  -50.7392 H         1 UNK         0.1150 
    139 H139        0.0270  -18.9145  -49.1933 H         1 UNK         0.0800 
    140 H140       -0.3941  -20.5548  -49.6257 H         1 UNK         0.0800 
    141 H141        0.6254  -19.6134  -47.0509 H         1 UNK         0.0800 
    142 H142        2.2659  -19.9776  -46.6252 H         1 UNK         0.0800 
    143 H143        1.8366  -22.4025  -46.7206 H         1 UNK         0.0600 
    144 H144        0.6685  -20.6975  -44.7950 H         1 UNK         0.3000 
    145 H145       -0.5297  -23.2298  -42.5514 H         1 UNK         0.0600 
    146 H146        0.8491  -21.8459  -41.0341 H         1 UNK         0.0600 
    147 H147        1.8852  -22.8141  -42.0712 H         1 UNK         0.0600 
    148 H148        1.6691  -21.1006  -42.4044 H         1 UNK         0.0600 
    149 H149       -0.7487  -20.4109  -42.4148 H         1 UNK         0.3000 
    150 H150       -3.8712  -20.1155  -44.1929 H         1 UNK         0.0600 
    151 H151       -4.3567  -20.7739  -41.8254 H         1 UNK         0.0600 
    152 H152       -4.4610  -19.0351  -42.0546 H         1 UNK         0.0600 
    153 H153       -3.0499  -19.7360  -41.2655 H         1 UNK         0.0600 
    154 H154       -2.2526  -18.1297  -42.9826 H         1 UNK         0.3000 
    155 H155       -0.2580  -17.3533  -45.8813 H         1 UNK         0.0600 
    156 H156       -2.2900  -15.8284  -44.1719 H         1 UNK         0.0600 
    157 H157       -2.4789  -16.1058  -45.8880 H         1 UNK         0.0600 
    158 H158       -1.1316  -15.1396  -45.3040 H         1 UNK         0.0600 
    159 H159       -0.1115  -16.3238  -43.2542 H         1 UNK         0.3000 
    160 H160        2.1614  -18.6995  -41.8438 H         1 UNK         0.0600 
    161 H161        3.3606  -16.5599  -41.4055 H         1 UNK         0.0600 
    162 H162        2.4375  -15.7659  -42.6804 H         1 UNK         0.0600 
    163 H163        3.5581  -17.0665  -43.0752 H         1 UNK         0.0600 
    164 H164        0.8173  -16.3331  -40.8798 H         1 UNK         0.3000 
    165 H165       -1.9311  -18.0500  -39.3820 H         1 UNK         0.0600 
    166 H166       -1.0173  -16.8921  -37.3928 H         1 UNK         0.0600 
    167 H167       -0.0102  -18.2725  -37.7987 H         1 UNK         0.0600 
    168 H168        0.5295  -16.6475  -38.2042 H         1 UNK         0.0600 
    169 H169       -1.1610  -15.2950  -39.4286 H         1 UNK         0.3000 
    170 H170       -2.9917  -14.3952  -42.3597 H         1 UNK         0.0600 
    171 H171       -4.6752  -14.5630  -40.5169 H         1 UNK         0.0600 
    172 H172       -3.5191  -13.8640  -39.3895 H         1 UNK         0.0600 
    173 H173       -4.1231  -12.9123  -40.7463 H         1 UNK         0.0600 
    174 H174       -1.6559  -12.6892  -40.6334 H         1 UNK         0.3000 
    175 H175        0.1509  -11.6203  -41.2473 H         1 UNK         0.0600 
    176 H176        2.4023  -13.6953  -41.4617 H         1 UNK         0.0600 
    177 H177        2.5476  -12.0644  -40.8136 H         1 UNK         0.0600 
    178 H178        1.5683  -13.2578  -39.9745 H         1 UNK         0.0600 
    179 H179        1.9607  -12.3153  -43.4199 H         1 UNK         0.3000 
    180 H180        0.0392  -10.7456  -45.9857 H         1 UNK         0.0600 
    181 H181        2.7384  -10.0709  -44.7072 H         1 UNK         0.0600 
    182 H182        1.3940   -8.9659  -44.9431 H         1 UNK         0.0600 
    183 H183        2.2275   -9.6353  -46.3375 H         1 UNK         0.0600 
    184 H184        0.9427  -12.5178  -46.8416 H         1 UNK         0.3000 
    185 H185        3.9499  -14.0970  -46.8068 H         1 UNK         0.0600 
    186 H186        3.2939  -15.5086  -44.9183 H         1 UNK         0.0600 
    187 H187        1.6140  -15.5304  -45.4441 H         1 UNK         0.0600 
    188 H188        2.8585  -16.3374  -46.4019 H         1 UNK         0.0600 
    189 H189        1.3533  -14.8620  -47.8480 H         1 UNK         0.3000 
    190 H190       -1.5146  -21.0537  -46.5584 H         1 UNK         0.3000 
    191 H191       -2.5101  -22.2551  -48.8898 H         1 UNK         0.0600 
    192 H192       -3.9867  -21.5050  -46.3076 H         1 UNK         0.0600 
    193 H193       -4.7434  -21.7918  -47.8674 H         1 UNK         0.0600 
    194 H194       -3.6595  -20.4267  -47.6600 H         1 UNK         0.0600 
    195 H195       -2.4772  -23.5270  -45.5406 H         1 UNK         0.3000 
    196 H196       -3.7893  -25.9906  -46.0798 H         1 UNK         0.0600 
    197 H197       -1.8102  -25.2316  -43.8662 H         1 UNK         0.0600 
    198 H198       -2.8396  -26.6592  -43.8642 H         1 UNK         0.0600 
    199 H199       -3.5619  -25.0582  -43.8009 H         1 UNK         0.0600 
    200 H200       -0.2881  -25.1391  -46.0351 H         1 UNK         0.3000 
    201 H201        0.6873  -27.7556  -46.5826 H         1 UNK         0.0600 
    202 H202        1.9641  -25.0126  -47.0656 H         1 UNK         0.0600 
    203 H203        2.8183  -26.5509  -47.0996 H         1 UNK         0.0600 
    204 H204        2.0994  -25.9826  -45.6006 H         1 UNK         0.0600 
    205 H205       -0.1033  -25.0147  -48.7590 H         1 UNK         0.3000 
    206 H206        0.6090  -26.3433  -51.2058 H         1 UNK         0.0600 
    207 H207        0.4784  -23.8618  -50.9726 H         1 UNK         0.0600 
    208 H208       -0.6067  -24.4178  -52.2381 H         1 UNK         0.0600 
    209 H209       -1.2542  -23.9628  -50.6672 H         1 UNK         0.0600 
    210 H210       -2.2095  -26.4298  -49.1782 H         1 UNK         0.3000 
    211 H211       -4.2172  -27.3309  -49.1922 H         1 UNK         0.0600 
    212 H212       -3.2960  -29.1505  -51.4844 H         1 UNK         0.0600 
    213 H213       -4.7028  -29.3926  -50.4589 H         1 UNK         0.0600 
    214 H214       -3.0912  -29.4906  -49.7665 H         1 UNK         0.0600 
    215 H215       -4.0468  -24.9201  -50.2209 H         1 UNK         0.3000 
    216 H216       -6.0493  -24.6977  -52.3258 H         1 UNK         0.0600 
    217 H217       -3.8914  -25.0900  -53.6166 H         1 UNK         0.0600 
    218 H218       -4.5752  -23.5102  -53.9242 H         1 UNK         0.0600 
    219 H219       -3.1947  -23.6750  -52.8376 H         1 UNK         0.0600 
    220 H220       -4.9845  -21.9397  -52.8499 H         1 UNK         0.3000 
    221 H221       -6.2424  -20.5563  -50.5677 H         1 UNK         0.0600 
    222 H222       -5.2003  -19.4972  -53.2487 H         1 UNK         0.0600 
    223 H223       -6.8601  -20.0240  -52.9810 H         1 UNK         0.0600 
    224 H224       -6.2340  -18.6306  -52.1202 H         1 UNK         0.0600 
    225 H225       -5.1175  -18.3536  -50.0883 H         1 UNK         0.3000 
    226 H226       -2.3465  -18.8466  -49.2468 H         1 UNK         0.0600 
    227 H227       -3.9657  -17.8687  -47.6539 H         1 UNK         0.0600 
    228 H228       -2.6644  -16.7453  -48.0038 H         1 UNK         0.0600 
    229 H229       -4.2443  -16.5013  -48.7388 H         1 UNK         0.0600 
    230 H230       -3.7124  -17.6870  -52.0918 H         1 UNK         0.3000 
    231 H231       -1.2632  -16.6491  -53.0861 H         1 UNK         0.0600 
    232 H232       -1.8016  -14.5472  -51.9357 H         1 UNK         0.0600 
    233 H233       -3.4516  -14.5614  -52.5494 H         1 UNK         0.0600 
    234 H234       -2.0949  -14.3109  -53.6438 H         1 UNK         0.0600 
    235 H235       -4.8013  -16.2759  -53.5749 H         1 UNK         0.3000 
    236 H236       -4.5857  -16.4477  -56.4515 H         1 UNK         0.0600 
    237 H237       -7.0157  -16.2623  -54.5979 H         1 UNK         0.0600 
    238 H238       -6.1507  -14.9000  -55.3098 H         1 UNK         0.0600 
    239 H239       -7.0273  -16.0167  -56.3410 H         1 UNK         0.0600 
    240 H240       -3.4914  -18.7322  -55.8460 H         1 UNK         0.3000 
    241 H241       -5.2129  -20.9665  -55.4472 H         1 UNK         0.0600 
    242 H242       -6.0419  -22.5909  -56.9177 H         1 UNK         0.3800 
    243 H243       -6.1097  -22.2902  -58.6292 H         1 UNK         0.3800 
    244 H244       -3.2417  -22.3561  -55.9648 H         1 UNK         0.0800 
    245 H245       -2.4121  -20.9918  -56.6658 H         1 UNK         0.0800 
    246 H246       -0.6883  -19.9361  -55.5646 H         1 UNK         0.0800 
    247 H247       -0.1951  -21.4370  -54.8097 H         1 UNK         0.0800 
@<TRIPOS>BOND
     1    1    2 1    
     2    1  127 1    
     3    1  128 1    
     4    1  129 1    
     5    2    3 2    
     6    2    4 am   BACKBONE|DICT|INTERRES
     7    4    5 1    
     8    4  130 1    
     9    5    6 1    
    10    5   65 1    
    11    5  131 1    
    12    6    7 1    
    13    6  132 1    
    14    6  133 1    
    15    7    8 1    
    16    8    9 1    
    17    8  134 1    
    18    8  135 1    
    19    9   10 ar   
    20    9   14 ar   
    21   10   11 ar   
    22   10  136 1    
    23   11   12 ar   
    24   11  126 1    
    25   12   13 ar   
    26   12  137 1    
    27   13   14 ar   
    28   13   15 1    
    29   14  138 1    
    30   15   16 1    
    31   15  139 1    
    32   15  140 1    
    33   16   17 1    
    34   17   18 1    
    35   17  141 1    
    36   17  142 1    
    37   18   19 1    
    38   18   67 1    
    39   18  143 1    
    40   19   20 am   BACKBONE|DICT|INTERRES
    41   19  144 1    
    42   20   21 2    
    43   20   22 1    
    44   22   23 1    
    45   22   24 1    
    46   22  145 1    
    47   23  146 1    
    48   23  147 1    
    49   23  148 1    
    50   24   25 am   BACKBONE|DICT|INTERRES
    51   24  149 1    
    52   25   26 2    
    53   25   27 1    
    54   27   28 1    
    55   27   29 1    
    56   27  150 1    
    57   28  151 1    
    58   28  152 1    
    59   28  153 1    
    60   29   30 am   BACKBONE|DICT|INTERRES
    61   29  154 1    
    62   30   31 2    
    63   30   32 1    
    64   32   33 1    
    65   32   34 1    
    66   32  155 1    
    67   33  156 1    
    68   33  157 1    
    69   33  158 1    
    70   34   35 am   BACKBONE|DICT|INTERRES
    71   34  159 1    
    72   35   36 2    
    73   35   37 1    
    74   37   38 1    
    75   37   39 1    
    76   37  160 1    
    77   38  161 1    
    78   38  162 1    
    79   38  163 1    
    80   39   40 am   BACKBONE|DICT|INTERRES
    81   39  164 1    
    82   40   41 2    
    83   40   42 1    
    84   42   43 1    
    85   42   44 1    
    86   42  165 1    
    87   43  166 1    
    88   43  167 1    
    89   43  168 1    
    90   44   45 am   BACKBONE|DICT|INTERRES
    91   44  169 1    
    92   45   46 2    
    93   45   47 1    
    94   47   48 1    
    95   47   49 1    
    96   47  170 1    
    97   48  171 1    
    98   48  172 1    
    99   48  173 1    
   100   49   50 am   BACKBONE|DICT|INTERRES
   101   49  174 1    
   102   50   51 2    
   103   50   52 1    
   104   52   53 1    
   105   52   54 1    
   106   52  175 1    
   107   53  176 1    
   108   53  177 1    
   109   53  178 1    
   110   54   55 am   BACKBONE|DICT|INTERRES
   111   54  179 1    
   112   55   56 2    
   113   55   57 1    
   114   57   58 1    
   115   57   59 1    
   116   57  180 1    
   117   58  181 1    
   118   58  182 1    
   119   58  183 1    
   120   59   60 am   BACKBONE|DICT|INTERRES
   121   59  184 1    
   122   60   61 2    
   123   60   62 1    
   124   62   63 1    
   125   62   64 1    
   126   62  185 1    
   127   63  186 1    
   128   63  187 1    
   129   63  188 1    
   130   64   65 am   BACKBONE|DICT|INTERRES
   131   64  189 1    
   132   65   66 2    
   133   67   68 2    
   134   67   69 am   BACKBONE|DICT|INTERRES
   135   69   70 1    
   136   69  190 1    
   137   70   71 1    
   138   70   72 1    
   139   70  191 1    
   140   71  192 1    
   141   71  193 1    
   142   71  194 1    
   143   72   73 2    
   144   72   74 am   BACKBONE|DICT|INTERRES
   145   74   75 1    
   146   74  195 1    
   147   75   76 1    
   148   75   77 1    
   149   75  196 1    
   150   76  197 1    
   151   76  198 1    
   152   76  199 1    
   153   77   78 2    
   154   77   79 am   BACKBONE|DICT|INTERRES
   155   79   80 1    
   156   79  200 1    
   157   80   81 1    
   158   80   82 1    
   159   80  201 1    
   160   81  202 1    
   161   81  203 1    
   162   81  204 1    
   163   82   83 2    
   164   82   84 am   BACKBONE|DICT|INTERRES
   165   84   85 1    
   166   84  205 1    
   167   85   86 1    
   168   85   87 1    
   169   85  206 1    
   170   86  207 1    
   171   86  208 1    
   172   86  209 1    
   173   87   88 2    
   174   87   89 am   BACKBONE|DICT|INTERRES
   175   89   90 1    
   176   89  210 1    
   177   90   91 1    
   178   90   92 1    
   179   90  211 1    
   180   91  212 1    
   181   91  213 1    
   182   91  214 1    
   183   92   93 2    
   184   92   94 am   BACKBONE|DICT|INTERRES
   185   94   95 1    
   186   94  215 1    
   187   95   96 1    
   188   95   97 1    
   189   95  216 1    
   190   96  217 1    
   191   96  218 1    
   192   96  219 1    
   193   97   98 2    
   194   97   99 am   BACKBONE|DICT|INTERRES
   195   99  100 1    
   196   99  220 1    
   197  100  101 1    
   198  100  102 1    
   199  100  221 1    
   200  101  222 1    
   201  101  223 1    
   202  101  224 1    
   203  102  103 2    
   204  102  104 am   BACKBONE|DICT|INTERRES
   205  104  105 1    
   206  104  225 1    
   207  105  106 1    
   208  105  107 1    
   209  105  226 1    
   210  106  227 1    
   211  106  228 1    
   212  106  229 1    
   213  107  108 2    
   214  107  109 am   BACKBONE|DICT|INTERRES
   215  109  110 1    
   216  109  230 1    
   217  110  111 1    
   218  110  112 1    
   219  110  231 1    
   220  111  232 1    
   221  111  233 1    
   222  111  234 1    
   223  112  113 2    
   224  112  114 am   BACKBONE|DICT|INTERRES
   225  114  115 1    
   226  114  235 1    
   227  115  116 1    
   228  115  117 1    
   229  115  236 1    
   230  116  237 1    
   231  116  238 1    
   232  116  239 1    
   233  117  118 2    
   234  117  119 am   BACKBONE|DICT|INTERRES
   235  119  120 1    
   236  119  240 1    
   237  120  121 1    
   238  120  124 1    
   239  120  241 1    
   240  121  122 am   BACKBONE|DICT|INTERRES
   241  121  123 2    
   242  122  242 1    
   243  122  243 1    
   244  124  125 1    
   245  124  244 1    
   246  124  245 1    
   247  125  126 1    
   248  126  246 1    
   249  126  247 1    
@<TRIPOS>SUBSTRUCTURE
     1 UNK         1 GROUP             0       ****    0 ROOT    
