@<TRIPOS>MOLECULE
3R540
247   249    1
SMALL
USER_CHARGES


@<TRIPOS>ATOM
      1 CA         -1.9540  -17.2863  -50.8461 C.3       0 UNK        -0.1800 
      2 C          -1.9459  -16.2110  -49.7740 C.2       0 UNK         0.5000 
      3 O          -3.0007  -15.6791  -49.4260 O.2       0 UNK        -0.5000 
      4 N          -0.7590  -15.8947  -49.2412 N.am      1 UNK        -0.5000 
      5 CA         -0.5510  -14.9277  -48.1600 C.3       1 UNK         0.1400 
      6 C6          0.9007  -14.3903  -48.1126 C.3       23 UNK        -0.0398 
      7 S7          1.3774  -13.5098  -49.6392 S.3       23 UNK        -0.2404 
      8 C8          2.7843  -14.5053  -50.2286 C.3       23 UNK        -0.0205 
      9 C9          2.3530  -15.8967  -50.6650 C.ar      23 UNK        -0.0193 
     10 C10         1.7444  -16.0847  -51.9080 C.ar      23 UNK        -0.1150 
     11 C11         1.3406  -17.3590  -52.3138 C.ar      23 UNK        -0.0193 
     12 C12         1.5355  -18.4478  -51.4569 C.ar      23 UNK        -0.1150 
     13 C13         2.1540  -18.2764  -50.2139 C.ar      23 UNK        -0.0193 
     14 C14         2.5695  -16.9969  -49.8313 C.ar      23 UNK        -0.1150 
     15 C15         2.4252  -19.4880  -49.3265 C.3       23 UNK        -0.0205 
     16 S16         2.1157  -19.2039  -47.5491 S.3       23 UNK        -0.2404 
     17 C17         0.2952  -19.1646  -47.4814 C.3       23 UNK        -0.0398 
     18 CA         -0.3270  -20.5779  -47.4136 C.3       11 UNK         0.1400 
     19 N           0.1245  -21.3546  -46.2534 N.am      11 UNK        -0.5000 
     20 C          -0.1207  -22.6624  -46.0929 C.2       10 UNK         0.5000 
     21 O          -0.7233  -23.3491  -46.9159 O.2       10 UNK        -0.5000 
     22 CA          0.3233  -23.3008  -44.7685 C.3       10 UNK         0.1400 
     23 CB          1.8288  -23.6055  -44.7698 C.3       10 UNK        -0.1800 
     24 N          -0.0258  -22.4582  -43.6274 N.am      10 UNK        -0.5000 
     25 C          -1.2808  -22.2649  -43.1970 C.2       9 UNK         0.5000 
     26 O          -2.2663  -22.8125  -43.6929 O.2       9 UNK        -0.5000 
     27 CA         -1.4719  -21.2664  -42.0413 C.3       9 UNK         0.1400 
     28 CB         -1.3270  -21.9763  -40.6875 C.3       9 UNK        -0.1800 
     29 N          -0.5406  -20.1390  -42.0997 N.am      9 UNK        -0.5000 
     30 C          -0.5325  -19.2095  -43.0655 C.2       8 UNK         0.5000 
     31 O          -1.3088  -19.2023  -44.0188 O.2       8 UNK        -0.5000 
     32 CA          0.5649  -18.1378  -42.9722 C.3       8 UNK         0.1400 
     33 CB          0.1769  -17.0649  -41.9463 C.3       8 UNK        -0.1800 
     34 N           1.8777  -18.6745  -42.6117 N.am      8 UNK        -0.5000 
     35 C           2.5556  -19.6163  -43.2829 C.2       7 UNK         0.5000 
     36 O           2.0944  -20.2128  -44.2562 O.2       7 UNK        -0.5000 
     37 CA          3.9586  -19.9907  -42.7518 C.3       7 UNK         0.1400 
     38 CB          4.9683  -20.2198  -43.8954 C.3       7 UNK        -0.1800 
     39 N           4.4951  -19.0654  -41.7380 N.am      7 UNK        -0.5000 
     40 C           4.8452  -17.7808  -41.9058 C.2       6 UNK         0.5000 
     41 O           4.7899  -17.1915  -42.9861 O.2       6 UNK        -0.5000 
     42 CA          5.2842  -17.0405  -40.6255 C.3       6 UNK         0.1400 
     43 CB          6.7144  -17.4274  -40.1968 C.3       6 UNK        -0.1800 
     44 N           5.1010  -15.5875  -40.7313 N.am      6 UNK        -0.5000 
     45 C           5.8320  -14.6905  -41.4082 C.2       5 UNK         0.5000 
     46 O           6.9047  -14.9315  -41.9655 O.2       5 UNK        -0.5000 
     47 CA          5.2083  -13.2839  -41.5180 C.3       5 UNK         0.1400 
     48 CB          6.2597  -12.1905  -41.7790 C.3       5 UNK        -0.1800 
     49 N           4.2230  -13.2604  -42.5987 N.am      5 UNK        -0.5000 
     50 C           2.9997  -13.8009  -42.5355 C.2       4 UNK         0.5000 
     51 O           2.5196  -14.2799  -41.5044 O.2       4 UNK        -0.5000 
     52 CA          2.2252  -13.8649  -43.8684 C.3       4 UNK         0.1400 
     53 CB          2.7494  -15.0441  -44.7042 C.3       4 UNK        -0.1800 
     54 N           0.7746  -14.0095  -43.7085 N.am      4 UNK        -0.5000 
     55 C          -0.0340  -13.1237  -43.1064 C.2       3 UNK         0.5000 
     56 O           0.3529  -12.0318  -42.6860 O.2       3 UNK        -0.5000 
     57 CA         -1.5215  -13.5140  -42.9748 C.3       3 UNK         0.1400 
     58 CB         -2.4532  -12.2973  -42.8215 C.3       3 UNK        -0.1800 
     59 N          -1.9537  -14.3104  -44.1224 N.am      3 UNK        -0.5000 
     60 C          -2.6918  -15.4264  -44.0755 C.2       2 UNK         0.5000 
     61 O          -3.1628  -15.8822  -43.0333 O.2       2 UNK        -0.5000 
     62 CA         -2.9555  -16.1683  -45.4069 C.3       2 UNK         0.1400 
     63 CB         -4.4626  -16.2648  -45.6968 C.3       2 UNK        -0.1800 
     64 N          -2.2991  -15.5942  -46.5851 N.am      2 UNK        -0.5000 
     65 C          -0.9821  -15.5440  -46.8127 C.2       1 UNK         0.5000 
     66 O          -0.1423  -15.9574  -46.0134 O.2       1 UNK        -0.5000 
     67 C          -1.8656  -20.5027  -47.4942 C.2       11 UNK         0.5000 
     68 O          -2.4139  -20.5854  -48.5922 O.2       11 UNK        -0.5000 
     69 N          -2.5263  -20.3752  -46.3347 N.am      12 UNK        -0.5000 
     70 CA         -3.9776  -20.3802  -46.1940 C.3       12 UNK         0.1400 
     71 CB         -4.3700  -19.9361  -44.7743 C.3       12 UNK        -0.1800 
     72 C          -4.6027  -21.7432  -46.5381 C.2       12 UNK         0.5000 
     73 O          -5.3481  -21.8376  -47.5141 O.2       12 UNK        -0.5000 
     74 N          -4.3259  -22.7574  -45.7086 N.am      13 UNK        -0.5000 
     75 CA         -5.0640  -24.0177  -45.6998 C.3       13 UNK         0.1400 
     76 CB         -5.1998  -24.5148  -44.2513 C.3       13 UNK        -0.1800 
     77 C          -4.4227  -25.0961  -46.5818 C.2       13 UNK         0.5000 
     78 O          -5.1250  -25.7026  -47.3907 O.2       13 UNK        -0.5000 
     79 N          -3.1178  -25.3411  -46.3977 N.am      14 UNK        -0.5000 
     80 CA         -2.4057  -26.4536  -47.0356 C.3       14 UNK         0.1400 
     81 CB         -1.0740  -26.7157  -46.3140 C.3       14 UNK        -0.1800 
     82 C          -2.1906  -26.2326  -48.5418 C.2       14 UNK         0.5000 
     83 O          -2.4352  -27.1435  -49.3338 O.2       14 UNK        -0.5000 
     84 N          -1.7653  -25.0177  -48.9082 N.am      15 UNK        -0.5000 
     85 CA         -1.5970  -24.5835  -50.2950 C.3       15 UNK         0.1400 
     86 CB         -0.6017  -23.4160  -50.3360 C.3       15 UNK        -0.1800 
     87 C          -2.9321  -24.1919  -50.9603 C.2       15 UNK         0.5000 
     88 O          -2.9966  -24.1694  -52.1878 O.2       15 UNK        -0.5000 
     89 N          -3.9609  -23.9236  -50.1416 N.am      16 UNK        -0.5000 
     90 CA         -5.3306  -23.5459  -50.4938 C.3       16 UNK         0.1400 
     91 CB         -6.0167  -24.6287  -51.3529 C.3       16 UNK        -0.1800 
     92 C          -5.4064  -22.1473  -51.1328 C.2       16 UNK         0.5000 
     93 O          -5.5255  -22.0190  -52.3537 O.2       16 UNK        -0.5000 
     94 N          -5.3945  -21.1115  -50.2822 N.am      17 UNK        -0.5000 
     95 CA         -5.5707  -19.7032  -50.6619 C.3       17 UNK         0.1400 
     96 CB         -5.3639  -18.8019  -49.4365 C.3       17 UNK        -0.1800 
     97 C          -6.9292  -19.3972  -51.3251 C.2       17 UNK         0.5000 
     98 O          -7.0313  -18.4203  -52.0662 O.2       17 UNK        -0.5000 
     99 N          -7.9301  -20.2632  -51.1079 N.am      18 UNK        -0.5000 
    100 CA        -9.2174  -20.2635  -51.8095 C.3       18 UNK         0.1400 
    101 CB       -10.1324  -21.3165  -51.1664 C.3       18 UNK        -0.1800 
    102 C         -9.0907  -20.5159  -53.3286 C.2       18 UNK         0.5000 
    103 O         -9.9509  -20.0698  -54.0879 O.2       18 UNK        -0.5000 
    104 N         -8.0101  -21.1923  -53.7430 N.am      19 UNK        -0.5000 
    105 CA        -7.6155  -21.4102  -55.1357 C.3       19 UNK         0.1400 
    106 CB        -7.2710  -22.8997  -55.3147 C.3       19 UNK        -0.1800 
    107 C         -6.4295  -20.5001  -55.5263 C.2       19 UNK         0.5000 
    108 O         -5.7233  -20.8003  -56.4891 O.2       19 UNK        -0.5000 
    109 N         -6.2062  -19.4268  -54.7499 N.am      20 UNK        -0.5000 
    110 CA        -5.1250  -18.4346  -54.8258 C.3       20 UNK         0.1400 
    111 CB        -5.0924  -17.7389  -56.2019 C.3       20 UNK        -0.1800 
    112 C         -3.7335  -18.9646  -54.4224 C.2       20 UNK         0.5000 
    113 O         -2.7825  -18.1822  -54.4175 O.2       20 UNK        -0.5000 
    114 N         -3.6302  -20.2604  -54.0900 N.am      21 UNK        -0.5000 
    115 CA        -2.4518  -21.0508  -53.7082 C.3       21 UNK         0.1400 
    116 CB        -1.8706  -20.5707  -52.3670 C.3       21 UNK        -0.1800 
    117 C         -1.3541  -21.1644  -54.7866 C.2       21 UNK         0.5000 
    118 O         -0.8801  -22.2672  -55.0605 O.2       21 UNK        -0.5000 
    119 N         -0.9788  -20.0307  -55.3809 N.am      22 UNK        -0.5000 
    120 CA         0.0196  -19.8908  -56.4497 C.3       22 UNK         0.1400 
    121 C         -0.5656  -20.0817  -57.8810 C.2       22 UNK         0.5000 
    122 N         -1.8628  -20.3084  -58.0531 N.am      22 UNK        -0.7600 
    123 O          0.1757  -20.0375  -58.8592 O.2       22 UNK        -0.5000 
    124 C124        0.7769  -18.5424  -56.3239 C.3       23 UNK        -0.0398 
    125 S125        1.8008  -18.4467  -54.8145 S.3       23 UNK        -0.2404 
    126 C126        0.6934  -17.5583  -53.6756 C.3       23 UNK        -0.0205 
    127 H127       -2.9159  -17.7969  -50.8726 H         1 UNK         0.0600 
    128 H128       -1.1851  -18.0320  -50.6479 H         1 UNK         0.0600 
    129 H129       -1.7736  -16.8468  -51.8270 H         1 UNK         0.0600 
    130 H130        0.0780  -16.3413  -49.5901 H         1 UNK         0.3000 
    131 H131       -1.2005  -14.0683  -48.3419 H         1 UNK         0.0600 
    132 H132        1.6032  -15.1996  -47.9151 H         1 UNK         0.0800 
    133 H133        1.0130  -13.6852  -47.2872 H         1 UNK         0.0800 
    134 H134        3.2515  -13.9915  -51.0700 H         1 UNK         0.0800 
    135 H135        3.5441  -14.5610  -49.4474 H         1 UNK         0.0800 
    136 H136        1.5874  -15.2357  -52.5586 H         1 UNK         0.1150 
    137 H137        1.2260  -19.4337  -51.7749 H         1 UNK         0.1150 
    138 H138        3.0663  -16.8577  -48.8815 H         1 UNK         0.1150 
    139 H139        1.8409  -20.3478  -49.6568 H         1 UNK         0.0800 
    140 H140        3.4721  -19.7672  -49.4495 H         1 UNK         0.0800 
    141 H141       -0.0751  -18.6167  -48.3488 H         1 UNK         0.0800 
    142 H142        0.0057  -18.5844  -46.6037 H         1 UNK         0.0800 
    143 H143        0.0022  -21.1201  -48.3013 H         1 UNK         0.0600 
    144 H144        0.6657  -20.8606  -45.5501 H         1 UNK         0.3000 
    145 H145       -0.2070  -24.2487  -44.6585 H         1 UNK         0.0600 
    146 H146        2.1374  -24.0745  -43.8355 H         1 UNK         0.0600 
    147 H147        2.0816  -24.2935  -45.5775 H         1 UNK         0.0600 
    148 H148        2.4299  -22.7075  -44.9095 H         1 UNK         0.0600 
    149 H149        0.7199  -21.9155  -43.2171 H         1 UNK         0.3000 
    150 H150       -2.4862  -20.8688  -42.1098 H         1 UNK         0.0600 
    151 H151       -2.0256  -22.8103  -40.6079 H         1 UNK         0.0600 
    152 H152       -1.5388  -21.2971  -39.8614 H         1 UNK         0.0600 
    153 H153       -0.3218  -22.3752  -40.5461 H         1 UNK         0.0600 
    154 H154        0.1438  -20.0725  -41.3609 H         1 UNK         0.3000 
    155 H155        0.6538  -17.6685  -43.9541 H         1 UNK         0.0600 
    156 H156        0.8998  -16.2522  -41.9367 H         1 UNK         0.0600 
    157 H157        0.1205  -17.4715  -40.9359 H         1 UNK         0.0600 
    158 H158       -0.7947  -16.6324  -42.1761 H         1 UNK         0.0600 
    159 H159        2.3331  -18.2485  -41.8196 H         1 UNK         0.3000 
    160 H160        3.8303  -20.9458  -42.2408 H         1 UNK         0.0600 
    161 H161        5.0845  -19.3330  -44.5190 H         1 UNK         0.0600 
    162 H162        4.6424  -21.0311  -44.5475 H         1 UNK         0.0600 
    163 H163        5.9502  -20.4908  -43.5080 H         1 UNK         0.0600 
    164 H164        4.5729  -19.4571  -40.8091 H         1 UNK         0.3000 
    165 H165        4.6078  -17.3525  -39.8281 H         1 UNK         0.0600 
    166 H166        7.4391  -17.2697  -40.9958 H         1 UNK         0.0600 
    167 H167        7.0376  -16.8526  -39.3289 H         1 UNK         0.0600 
    168 H168        6.7657  -18.4819  -39.9241 H         1 UNK         0.0600 
    169 H169        4.1963  -15.2602  -40.4136 H         1 UNK         0.3000 
    170 H170        4.7132  -13.0507  -40.5727 H         1 UNK         0.0600 
    171 H171        7.0210  -12.1887  -40.9980 H         1 UNK         0.0600 
    172 H172        6.7679  -12.3336  -42.7335 H         1 UNK         0.0600 
    173 H173        5.8030  -11.2006  -41.7890 H         1 UNK         0.0600 
    174 H174        4.5584  -12.9247  -43.4899 H         1 UNK         0.3000 
    175 H175        2.4095  -12.9374  -44.4142 H         1 UNK         0.0600 
    176 H176        2.5184  -16.0020  -44.2368 H         1 UNK         0.0600 
    177 H177        2.3190  -15.0476  -45.7019 H         1 UNK         0.0600 
    178 H178        3.8323  -14.9979  -44.8271 H         1 UNK         0.0600 
    179 H179        0.3759  -14.8710  -44.0575 H         1 UNK         0.3000 
    180 H180       -1.5912  -14.1114  -42.0635 H         1 UNK         0.0600 
    181 H181       -2.3958  -11.6377  -43.6881 H         1 UNK         0.0600 
    182 H182       -2.1938  -11.7098  -41.9400 H         1 UNK         0.0600 
    183 H183       -3.4913  -12.6093  -42.7060 H         1 UNK         0.0600 
    184 H184       -1.6075  -14.0115  -45.0223 H         1 UNK         0.3000 
    185 H185       -2.5667  -17.1800  -45.2817 H         1 UNK         0.0600 
    186 H186       -5.0013  -16.7112  -44.8601 H         1 UNK         0.0600 
    187 H187       -4.8983  -15.2817  -45.8787 H         1 UNK         0.0600 
    188 H188       -4.6557  -16.8857  -46.5722 H         1 UNK         0.0600 
    189 H189       -2.9102  -15.2981  -47.3382 H         1 UNK         0.3000 
    190 H190       -1.9922  -20.2410  -45.4808 H         1 UNK         0.3000 
    191 H191       -4.3818  -19.6419  -46.8858 H         1 UNK         0.0600 
    192 H192       -3.9746  -20.6058  -44.0115 H         1 UNK         0.0600 
    193 H193       -5.4542  -19.9113  -44.6591 H         1 UNK         0.0600 
    194 H194       -3.9994  -18.9370  -44.5532 H         1 UNK         0.0600 
    195 H195       -3.6448  -22.6271  -44.9643 H         1 UNK         0.3000 
    196 H196       -6.0753  -23.8451  -46.0756 H         1 UNK         0.0600 
    197 H197       -5.7753  -25.4404  -44.2085 H         1 UNK         0.0600 
    198 H198       -5.7171  -23.7821  -43.6317 H         1 UNK         0.0600 
    199 H199       -4.2293  -24.7112  -43.7945 H         1 UNK         0.0600 
    200 H200       -2.5944  -24.7622  -45.7564 H         1 UNK         0.3000 
    201 H201       -3.0201  -27.3494  -46.9199 H         1 UNK         0.0600 
    202 H202       -1.2238  -26.8610  -45.2441 H         1 UNK         0.0600 
    203 H203       -0.3663  -25.8989  -46.4484 H         1 UNK         0.0600 
    204 H204       -0.5991  -27.6182  -46.7005 H         1 UNK         0.0600 
    205 H205       -1.5239  -24.3448  -48.1812 H         1 UNK         0.3000 
    206 H206       -1.1690  -25.4091  -50.8675 H         1 UNK         0.0600 
    207 H207        0.3085  -23.6462  -49.7818 H         1 UNK         0.0600 
    208 H208       -0.3089  -23.1995  -51.3633 H         1 UNK         0.0600 
    209 H209       -1.0337  -22.5094  -49.9138 H         1 UNK         0.0600 
    210 H210       -3.7732  -23.9752  -49.1510 H         1 UNK         0.3000 
    211 H211       -5.8813  -23.5007  -49.5534 H         1 UNK         0.0600 
    212 H212       -5.5525  -24.7362  -52.3335 H         1 UNK         0.0600 
    213 H213       -7.0657  -24.3815  -51.5198 H         1 UNK         0.0600 
    214 H214       -5.9853  -25.5997  -50.8586 H         1 UNK         0.0600 
    215 H215       -5.2949  -21.3037  -49.2871 H         1 UNK         0.3000 
    216 H216       -4.7981  -19.4617  -51.3940 H         1 UNK         0.0600 
    217 H217       -4.3417  -18.8715  -49.0690 H         1 UNK         0.0600 
    218 H218       -6.0410  -19.0655  -48.6235 H         1 UNK         0.0600 
    219 H219       -5.5372  -17.7535  -49.6837 H         1 UNK         0.0600 
    220 H220       -7.7640  -21.0267  -50.4694 H         1 UNK         0.3000 
    221 H221       -9.6736  -19.2805  -51.6755 H         1 UNK         0.0600 
    222 H222       -9.7135  -22.3200  -51.2526 H         1 UNK         0.0600 
    223 H223      -10.2921  -21.1079  -50.1084 H         1 UNK         0.0600 
    224 H224      -11.1124  -21.3275  -51.6454 H         1 UNK         0.0600 
    225 H225       -7.3313  -21.5037  -53.0551 H         1 UNK         0.3000 
    226 H226       -8.4401  -21.1687  -55.8088 H         1 UNK         0.0600 
    227 H227       -8.1083  -23.5345  -55.0247 H         1 UNK         0.0600 
    228 H228       -7.0381  -23.1288  -56.3552 H         1 UNK         0.0600 
    229 H229       -6.4085  -23.1885  -54.7126 H         1 UNK         0.0600 
    230 H230       -6.8360  -19.2809  -53.9694 H         1 UNK         0.3000 
    231 H231       -5.3736  -17.6723  -54.0865 H         1 UNK         0.0600 
    232 H232       -4.4088  -16.8891  -56.1922 H         1 UNK         0.0600 
    233 H233       -6.0763  -17.3584  -56.4758 H         1 UNK         0.0600 
    234 H234       -4.7582  -18.4108  -56.9927 H         1 UNK         0.0600 
    235 H235       -4.4867  -20.7980  -54.1104 H         1 UNK         0.3000 
    236 H236       -2.8287  -22.0611  -53.5593 H         1 UNK         0.0600 
    237 H237       -2.5800  -20.7149  -51.5522 H         1 UNK         0.0600 
    238 H238       -0.9637  -21.1165  -52.1118 H         1 UNK         0.0600 
    239 H239       -1.6071  -19.5178  -52.4008 H         1 UNK         0.0600 
    240 H240       -1.4643  -19.1813  -55.1002 H         1 UNK         0.3000 
    241 H241        0.7548  -20.6892  -56.3337 H         1 UNK         0.0600 
    242 H242       -2.4836  -20.3686  -57.2623 H         1 UNK         0.3800 
    243 H243       -2.2241  -20.4367  -58.9853 H         1 UNK         0.3800 
    244 H244        1.4544  -18.4031  -57.1681 H         1 UNK         0.0800 
    245 H245        0.0803  -17.7030  -56.3563 H         1 UNK         0.0800 
    246 H246       -0.2313  -18.1170  -53.5512 H         1 UNK         0.0800 
    247 H247        0.4165  -16.5990  -54.1153 H         1 UNK         0.0800 
@<TRIPOS>BOND
     1    1    2 1    
     2    1  127 1    
     3    1  128 1    
     4    1  129 1    
     5    2    3 2    
     6    2    4 am   BACKBONE|DICT|INTERRES
     7    4    5 1    
     8    4  130 1    
     9    5    6 1    
    10    5   65 1    
    11    5  131 1    
    12    6    7 1    
    13    6  132 1    
    14    6  133 1    
    15    7    8 1    
    16    8    9 1    
    17    8  134 1    
    18    8  135 1    
    19    9   10 ar   
    20    9   14 ar   
    21   10   11 ar   
    22   10  136 1    
    23   11   12 ar   
    24   11  126 1    
    25   12   13 ar   
    26   12  137 1    
    27   13   14 ar   
    28   13   15 1    
    29   14  138 1    
    30   15   16 1    
    31   15  139 1    
    32   15  140 1    
    33   16   17 1    
    34   17   18 1    
    35   17  141 1    
    36   17  142 1    
    37   18   19 1    
    38   18   67 1    
    39   18  143 1    
    40   19   20 am   BACKBONE|DICT|INTERRES
    41   19  144 1    
    42   20   21 2    
    43   20   22 1    
    44   22   23 1    
    45   22   24 1    
    46   22  145 1    
    47   23  146 1    
    48   23  147 1    
    49   23  148 1    
    50   24   25 am   BACKBONE|DICT|INTERRES
    51   24  149 1    
    52   25   26 2    
    53   25   27 1    
    54   27   28 1    
    55   27   29 1    
    56   27  150 1    
    57   28  151 1    
    58   28  152 1    
    59   28  153 1    
    60   29   30 am   BACKBONE|DICT|INTERRES
    61   29  154 1    
    62   30   31 2    
    63   30   32 1    
    64   32   33 1    
    65   32   34 1    
    66   32  155 1    
    67   33  156 1    
    68   33  157 1    
    69   33  158 1    
    70   34   35 am   BACKBONE|DICT|INTERRES
    71   34  159 1    
    72   35   36 2    
    73   35   37 1    
    74   37   38 1    
    75   37   39 1    
    76   37  160 1    
    77   38  161 1    
    78   38  162 1    
    79   38  163 1    
    80   39   40 am   BACKBONE|DICT|INTERRES
    81   39  164 1    
    82   40   41 2    
    83   40   42 1    
    84   42   43 1    
    85   42   44 1    
    86   42  165 1    
    87   43  166 1    
    88   43  167 1    
    89   43  168 1    
    90   44   45 am   BACKBONE|DICT|INTERRES
    91   44  169 1    
    92   45   46 2    
    93   45   47 1    
    94   47   48 1    
    95   47   49 1    
    96   47  170 1    
    97   48  171 1    
    98   48  172 1    
    99   48  173 1    
   100   49   50 am   BACKBONE|DICT|INTERRES
   101   49  174 1    
   102   50   51 2    
   103   50   52 1    
   104   52   53 1    
   105   52   54 1    
   106   52  175 1    
   107   53  176 1    
   108   53  177 1    
   109   53  178 1    
   110   54   55 am   BACKBONE|DICT|INTERRES
   111   54  179 1    
   112   55   56 2    
   113   55   57 1    
   114   57   58 1    
   115   57   59 1    
   116   57  180 1    
   117   58  181 1    
   118   58  182 1    
   119   58  183 1    
   120   59   60 am   BACKBONE|DICT|INTERRES
   121   59  184 1    
   122   60   61 2    
   123   60   62 1    
   124   62   63 1    
   125   62   64 1    
   126   62  185 1    
   127   63  186 1    
   128   63  187 1    
   129   63  188 1    
   130   64   65 am   BACKBONE|DICT|INTERRES
   131   64  189 1    
   132   65   66 2    
   133   67   68 2    
   134   67   69 am   BACKBONE|DICT|INTERRES
   135   69   70 1    
   136   69  190 1    
   137   70   71 1    
   138   70   72 1    
   139   70  191 1    
   140   71  192 1    
   141   71  193 1    
   142   71  194 1    
   143   72   73 2    
   144   72   74 am   BACKBONE|DICT|INTERRES
   145   74   75 1    
   146   74  195 1    
   147   75   76 1    
   148   75   77 1    
   149   75  196 1    
   150   76  197 1    
   151   76  198 1    
   152   76  199 1    
   153   77   78 2    
   154   77   79 am   BACKBONE|DICT|INTERRES
   155   79   80 1    
   156   79  200 1    
   157   80   81 1    
   158   80   82 1    
   159   80  201 1    
   160   81  202 1    
   161   81  203 1    
   162   81  204 1    
   163   82   83 2    
   164   82   84 am   BACKBONE|DICT|INTERRES
   165   84   85 1    
   166   84  205 1    
   167   85   86 1    
   168   85   87 1    
   169   85  206 1    
   170   86  207 1    
   171   86  208 1    
   172   86  209 1    
   173   87   88 2    
   174   87   89 am   BACKBONE|DICT|INTERRES
   175   89   90 1    
   176   89  210 1    
   177   90   91 1    
   178   90   92 1    
   179   90  211 1    
   180   91  212 1    
   181   91  213 1    
   182   91  214 1    
   183   92   93 2    
   184   92   94 am   BACKBONE|DICT|INTERRES
   185   94   95 1    
   186   94  215 1    
   187   95   96 1    
   188   95   97 1    
   189   95  216 1    
   190   96  217 1    
   191   96  218 1    
   192   96  219 1    
   193   97   98 2    
   194   97   99 am   BACKBONE|DICT|INTERRES
   195   99  100 1    
   196   99  220 1    
   197  100  101 1    
   198  100  102 1    
   199  100  221 1    
   200  101  222 1    
   201  101  223 1    
   202  101  224 1    
   203  102  103 2    
   204  102  104 am   BACKBONE|DICT|INTERRES
   205  104  105 1    
   206  104  225 1    
   207  105  106 1    
   208  105  107 1    
   209  105  226 1    
   210  106  227 1    
   211  106  228 1    
   212  106  229 1    
   213  107  108 2    
   214  107  109 am   BACKBONE|DICT|INTERRES
   215  109  110 1    
   216  109  230 1    
   217  110  111 1    
   218  110  112 1    
   219  110  231 1    
   220  111  232 1    
   221  111  233 1    
   222  111  234 1    
   223  112  113 2    
   224  112  114 am   BACKBONE|DICT|INTERRES
   225  114  115 1    
   226  114  235 1    
   227  115  116 1    
   228  115  117 1    
   229  115  236 1    
   230  116  237 1    
   231  116  238 1    
   232  116  239 1    
   233  117  118 2    
   234  117  119 am   BACKBONE|DICT|INTERRES
   235  119  120 1    
   236  119  240 1    
   237  120  121 1    
   238  120  124 1    
   239  120  241 1    
   240  121  122 am   BACKBONE|DICT|INTERRES
   241  121  123 2    
   242  122  242 1    
   243  122  243 1    
   244  124  125 1    
   245  124  244 1    
   246  124  245 1    
   247  125  126 1    
   248  126  246 1    
   249  126  247 1    
@<TRIPOS>SUBSTRUCTURE
     1 UNK         1 GROUP             0       ****    0 ROOT    
