@<TRIPOS>MOLECULE
3R540
247   249    1
SMALL
USER_CHARGES


@<TRIPOS>ATOM
      1 CA         -0.5122   -8.7758  -49.6009 C.3       0 UNK        -0.1800 
      2 C           0.2770   -9.7944  -48.7915 C.2       0 UNK         0.5000 
      3 O           0.9877   -9.4191  -47.8583 O.2       0 UNK        -0.5000 
      4 N           0.1434  -11.0855  -49.1301 N.am      1 UNK        -0.5000 
      5 CA          0.8473  -12.2026  -48.4820 C.3       1 UNK         0.1400 
      6 C6          0.7438  -13.5114  -49.3083 C.3       23 UNK        -0.0398 
      7 S7          2.2013  -14.5853  -49.0703 S.3       23 UNK        -0.2404 
      8 C8          1.5309  -15.8992  -48.0046 C.3       23 UNK        -0.0205 
      9 C9          1.1370  -17.1230  -48.8154 C.ar      23 UNK        -0.0193 
     10 C10        -0.1915  -17.3400  -49.1915 C.ar      23 UNK        -0.1150 
     11 C11        -0.5515  -18.4705  -49.9344 C.ar      23 UNK        -0.0193 
     12 C12         0.4436  -19.3942  -50.2867 C.ar      23 UNK        -0.1150 
     13 C13         1.7765  -19.1834  -49.9243 C.ar      23 UNK        -0.0193 
     14 C14         2.1150  -18.0467  -49.1873 C.ar      23 UNK        -0.1150 
     15 C15         2.8578  -20.1846  -50.3130 C.3       23 UNK        -0.0205 
     16 S16         2.5759  -21.8586  -49.6438 S.3       23 UNK        -0.2404 
     17 C17         2.2683  -21.5319  -47.8719 C.3       23 UNK        -0.0398 
     18 CA          1.2663  -22.5166  -47.2259 C.3       11 UNK         0.1400 
     19 N           1.2054  -22.3441  -45.7737 N.am      11 UNK        -0.5000 
     20 C           0.8135  -23.3009  -44.9251 C.2       10 UNK         0.5000 
     21 O           0.4549  -24.4222  -45.2862 O.2       10 UNK        -0.5000 
     22 CA          0.8112  -22.9462  -43.4287 C.3       10 UNK         0.1400 
     23 CB          2.2404  -22.9778  -42.8664 C.3       10 UNK        -0.1800 
     24 N           0.1973  -21.6540  -43.1149 N.am      10 UNK        -0.5000 
     25 C          -1.1050  -21.3740  -43.2678 C.2       9 UNK         0.5000 
     26 O          -1.8944  -22.1138  -43.8532 O.2       9 UNK        -0.5000 
     27 CA         -1.6119  -20.0536  -42.6647 C.3       9 UNK         0.1400 
     28 CB         -1.3904  -20.0038  -41.1437 C.3       9 UNK        -0.1800 
     29 N          -0.9328  -18.9289  -43.2933 N.am      9 UNK        -0.5000 
     30 C          -1.4369  -18.1873  -44.2874 C.2       8 UNK         0.5000 
     31 O          -2.6089  -18.2493  -44.6564 O.2       8 UNK        -0.5000 
     32 CA         -0.4813  -17.2123  -45.0078 C.3       8 UNK         0.1400 
     33 CB         -0.8397  -15.7587  -44.6694 C.3       8 UNK        -0.1800 
     34 N           0.9374  -17.4303  -44.7177 N.am      8 UNK        -0.5000 
     35 C           1.6303  -18.5350  -45.0215 C.2       7 UNK         0.5000 
     36 O           1.1469  -19.5086  -45.5952 O.2       7 UNK        -0.5000 
     37 CA          3.0784  -18.5991  -44.5129 C.3       7 UNK         0.1400 
     38 CB          4.0276  -17.8397  -45.4509 C.3       7 UNK        -0.1800 
     39 N           3.1978  -18.0751  -43.1515 N.am      7 UNK        -0.5000 
     40 C           2.6871  -18.6685  -42.0634 C.2       6 UNK         0.5000 
     41 O           2.0746  -19.7363  -42.0926 O.2       6 UNK        -0.5000 
     42 CA          2.8484  -17.9185  -40.7294 C.3       6 UNK         0.1400 
     43 CB          4.2824  -18.0532  -40.1954 C.3       6 UNK        -0.1800 
     44 N           2.4991  -16.5021  -40.8462 N.am      6 UNK        -0.5000 
     45 C           1.2538  -16.0488  -41.0481 C.2       5 UNK         0.5000 
     46 O           0.2627  -16.7765  -41.1011 O.2       5 UNK        -0.5000 
     47 CA          1.0828  -14.5294  -41.2426 C.3       5 UNK         0.1400 
     48 CB          0.8397  -13.8400  -39.8919 C.3       5 UNK        -0.1800 
     49 N           2.1875  -13.8529  -41.9301 N.am      5 UNK        -0.5000 
     50 C           2.6878  -14.1758  -43.1305 C.2       4 UNK         0.5000 
     51 O           2.3763  -15.1912  -43.7530 O.2       4 UNK        -0.5000 
     52 CA          3.6559  -13.1534  -43.7474 C.3       4 UNK         0.1400 
     53 CB          4.3715  -13.6932  -44.9995 C.3       4 UNK        -0.1800 
     54 N           2.8841  -11.9692  -44.1119 N.am      4 UNK        -0.5000 
     55 C           2.7195  -10.8839  -43.3430 C.2       3 UNK         0.5000 
     56 O           3.3037  -10.7172  -42.2716 O.2       3 UNK        -0.5000 
     57 CA          1.7074   -9.8226  -43.8246 C.3       3 UNK         0.1400 
     58 CB          2.4196   -8.7291  -44.6344 C.3       3 UNK        -0.1800 
     59 N           0.6234  -10.3834  -44.6331 N.am      3 UNK        -0.5000 
     60 C          -0.3083  -11.2384  -44.1833 C.2       2 UNK         0.5000 
     61 O          -0.4287  -11.5518  -42.9986 O.2       2 UNK        -0.5000 
     62 CA         -1.2470  -11.8781  -45.2301 C.3       2 UNK         0.1400 
     63 CB         -2.6158  -11.1812  -45.2196 C.3       2 UNK        -0.1800 
     64 N          -0.7272  -11.8762  -46.6024 N.am      2 UNK        -0.5000 
     65 C           0.4321  -12.4176  -47.0076 C.2       1 UNK         0.5000 
     66 O           1.1907  -13.0191  -46.2504 O.2       1 UNK        -0.5000 
     67 C          -0.1477  -22.4562  -47.8422 C.2       11 UNK         0.5000 
     68 O          -0.4215  -23.1879  -48.7920 O.2       11 UNK        -0.5000 
     69 N          -1.0496  -21.6596  -47.2491 N.am      12 UNK        -0.5000 
     70 CA         -2.4679  -21.6321  -47.6128 C.3       12 UNK         0.1400 
     71 CB         -3.1687  -20.4776  -46.8890 C.3       12 UNK        -0.1800 
     72 C          -3.1725  -22.9710  -47.3205 C.2       12 UNK         0.5000 
     73 O          -3.9527  -23.4353  -48.1496 O.2       12 UNK        -0.5000 
     74 N          -2.8498  -23.5910  -46.1752 N.am      13 UNK        -0.5000 
     75 CA         -3.3104  -24.9286  -45.8013 C.3       13 UNK         0.1400 
     76 CB         -2.9564  -25.2127  -44.3341 C.3       13 UNK        -0.1800 
     77 C          -2.7507  -26.0251  -46.7258 C.2       13 UNK         0.5000 
     78 O          -3.4982  -26.9223  -47.1152 O.2       13 UNK        -0.5000 
     79 N          -1.4678  -25.9151  -47.1042 N.am      14 UNK        -0.5000 
     80 CA         -0.8139  -26.7967  -48.0783 C.3       14 UNK         0.1400 
     81 CB          0.6945  -26.5099  -48.1077 C.3       14 UNK        -0.1800 
     82 C          -1.4218  -26.6829  -49.4918 C.2       14 UNK         0.5000 
     83 O          -1.5291  -27.6896  -50.1922 O.2       14 UNK        -0.5000 
     84 N          -1.8565  -25.4706  -49.8602 N.am      15 UNK        -0.5000 
     85 CA         -2.6022  -25.1590  -51.0809 C.3       15 UNK         0.1400 
     86 CB         -2.4274  -23.6650  -51.3994 C.3       15 UNK        -0.1800 
     87 C          -4.0978  -25.5451  -51.0143 C.2       15 UNK         0.5000 
     88 O          -4.8171  -25.2947  -51.9823 O.2       15 UNK        -0.5000 
     89 N          -4.5431  -26.1430  -49.8978 N.am      16 UNK        -0.5000 
     90 CA         -5.8798  -26.6686  -49.6093 C.3       16 UNK         0.1400 
     91 CB         -6.1952  -27.8862  -50.5042 C.3       16 UNK        -0.1800 
     92 C          -6.9747  -25.5872  -49.6561 C.2       16 UNK         0.5000 
     93 O          -7.3228  -25.0272  -48.6160 O.2       16 UNK        -0.5000 
     94 N          -7.4990  -25.3186  -50.8581 N.am      17 UNK        -0.5000 
     95 CA         -8.4826  -24.2719  -51.1319 C.3       17 UNK         0.1400 
     96 CB         -9.1097  -24.5323  -52.5103 C.3       17 UNK        -0.1800 
     97 C          -7.8818  -22.8541  -51.0766 C.2       17 UNK         0.5000 
     98 O          -8.6266  -21.8995  -50.8482 O.2       17 UNK        -0.5000 
     99 N          -6.5599  -22.7488  -51.2867 N.am      18 UNK        -0.5000 
    100 CA        -5.7748  -21.5135  -51.3588 C.3       18 UNK         0.1400 
    101 CB        -5.7519  -20.7978  -49.9890 C.3       18 UNK        -0.1800 
    102 C         -6.2223  -20.6127  -52.5320 C.2       18 UNK         0.5000 
    103 O         -6.6792  -21.1330  -53.5539 O.2       18 UNK        -0.5000 
    104 N         -6.0577  -19.2890  -52.3867 N.am      19 UNK        -0.5000 
    105 CA        -6.3844  -18.2469  -53.3661 C.3       19 UNK         0.1400 
    106 CB        -7.9158  -18.1040  -53.5139 C.3       19 UNK        -0.1800 
    107 C         -5.6439  -18.4803  -54.6982 C.2       19 UNK         0.5000 
    108 O         -4.4299  -18.2850  -54.7490 O.2       19 UNK        -0.5000 
    109 N         -6.3606  -18.9408  -55.7322 N.am      20 UNK        -0.5000 
    110 CA        -5.8073  -19.3222  -57.0332 C.3       20 UNK         0.1400 
    111 CB        -6.9597  -19.6666  -57.9884 C.3       20 UNK        -0.1800 
    112 C         -4.8013  -20.4888  -56.9572 C.2       20 UNK         0.5000 
    113 O         -3.8558  -20.5212  -57.7464 O.2       20 UNK        -0.5000 
    114 N         -4.9841  -21.3988  -55.9874 N.am      21 UNK        -0.5000 
    115 CA        -4.0830  -22.5272  -55.7341 C.3       21 UNK         0.1400 
    116 CB        -4.7749  -23.5401  -54.8102 C.3       21 UNK        -0.1800 
    117 C         -2.7167  -22.1028  -55.1571 C.2       21 UNK         0.5000 
    118 O         -1.7648  -22.8794  -55.2412 O.2       21 UNK        -0.5000 
    119 N         -2.6325  -20.8826  -54.6097 N.am      22 UNK        -0.5000 
    120 CA        -1.3789  -20.2467  -54.1753 C.3       22 UNK         0.1400 
    121 C         -0.5514  -19.6339  -55.3459 C.2       22 UNK         0.5000 
    122 N         -1.0439  -19.6011  -56.5803 N.am      22 UNK        -0.7600 
    123 O          0.5727  -19.1884  -55.1333 O.2       22 UNK        -0.5000 
    124 C124       -1.6191  -19.1988  -53.0584 C.3       23 UNK        -0.0398 
    125 S125       -2.3870  -19.9256  -51.5705 S.3       23 UNK        -0.2404 
    126 C126       -2.0234  -18.6459  -50.3187 C.3       23 UNK        -0.0205 
    127 H127        0.1665   -8.0627  -50.0688 H         1 UNK         0.0600 
    128 H128       -1.1019   -9.2499  -50.3858 H         1 UNK         0.0600 
    129 H129       -1.1914   -8.2250  -48.9502 H         1 UNK         0.0600 
    130 H130       -0.4635  -11.3316  -49.8995 H         1 UNK         0.3000 
    131 H131        1.8990  -11.9077  -48.4568 H         1 UNK         0.0600 
    132 H132        0.7143  -13.2773  -50.3733 H         1 UNK         0.0800 
    133 H133       -0.1811  -14.0527  -49.1019 H         1 UNK         0.0800 
    134 H134        0.6858  -15.5296  -47.4239 H         1 UNK         0.0800 
    135 H135        2.2919  -16.1749  -47.2745 H         1 UNK         0.0800 
    136 H136       -0.9492  -16.6238  -48.9062 H         1 UNK         0.1150 
    137 H137        0.1961  -20.2875  -50.8410 H         1 UNK         0.1150 
    138 H138        3.1430  -17.8766  -48.8999 H         1 UNK         0.1150 
    139 H139        2.9083  -20.2446  -51.4009 H         1 UNK         0.0800 
    140 H140        3.8385  -19.8411  -49.9805 H         1 UNK         0.0800 
    141 H141        1.9206  -20.5117  -47.7333 H         1 UNK         0.0800 
    142 H142        3.2279  -21.5914  -47.3570 H         1 UNK         0.0800 
    143 H143        1.6506  -23.5205  -47.4176 H         1 UNK         0.0600 
    144 H144        1.3837  -21.4066  -45.4262 H         1 UNK         0.3000 
    145 H145        0.2329  -23.7167  -42.9144 H         1 UNK         0.0600 
    146 H146        2.2423  -22.8248  -41.7871 H         1 UNK         0.0600 
    147 H147        2.7168  -23.9399  -43.0596 H         1 UNK         0.0600 
    148 H148        2.8662  -22.2043  -43.3134 H         1 UNK         0.0600 
    149 H149        0.8021  -20.9727  -42.6620 H         1 UNK         0.3000 
    150 H150       -2.6878  -19.9977  -42.8435 H         1 UNK         0.0600 
    151 H151       -1.8668  -20.8525  -40.6517 H         1 UNK         0.0600 
    152 H152       -1.8204  -19.0968  -40.7181 H         1 UNK         0.0600 
    153 H153       -0.3330  -20.0200  -40.8792 H         1 UNK         0.0600 
    154 H154        0.0356  -18.7900  -43.0410 H         1 UNK         0.3000 
    155 H155       -0.6213  -17.3598  -46.0804 H         1 UNK         0.0600 
    156 H156       -0.7895  -15.5774  -43.5965 H         1 UNK         0.0600 
    157 H157       -1.8517  -15.5183  -44.9969 H         1 UNK         0.0600 
    158 H158       -0.1622  -15.0600  -45.1583 H         1 UNK         0.0600 
    159 H159        1.4290  -16.6640  -44.2601 H         1 UNK         0.3000 
    160 H160        3.3807  -19.6486  -44.5021 H         1 UNK         0.0600 
    161 H161        5.0652  -17.9542  -45.1370 H         1 UNK         0.0600 
    162 H162        3.8030  -16.7734  -45.4776 H         1 UNK         0.0600 
    163 H163        3.9529  -18.2183  -46.4711 H         1 UNK         0.0600 
    164 H164        3.6075  -17.1570  -43.0560 H         1 UNK         0.3000 
    165 H165        2.1729  -18.3793  -40.0053 H         1 UNK         0.0600 
    166 H166        4.3806  -17.5933  -39.2119 H         1 UNK         0.0600 
    167 H167        4.5624  -19.1024  -40.0917 H         1 UNK         0.0600 
    168 H168        5.0089  -17.5834  -40.8594 H         1 UNK         0.0600 
    169 H169        3.2552  -15.8345  -40.8151 H         1 UNK         0.3000 
    170 H170        0.1929  -14.3800  -41.8557 H         1 UNK         0.0600 
    171 H171        0.0060  -14.3015  -39.3608 H         1 UNK         0.0600 
    172 H172        1.7161  -13.9010  -39.2456 H         1 UNK         0.0600 
    173 H173        0.5928  -12.7866  -40.0269 H         1 UNK         0.0600 
    174 H174        2.4977  -12.9850  -41.5151 H         1 UNK         0.3000 
    175 H175        4.4160  -12.9070  -43.0034 H         1 UNK         0.0600 
    176 H176        3.6671  -13.9788  -45.7820 H         1 UNK         0.0600 
    177 H177        5.0477  -12.9474  -45.4172 H         1 UNK         0.0600 
    178 H178        4.9672  -14.5738  -44.7573 H         1 UNK         0.0600 
    179 H179        2.2960  -12.0820  -44.9326 H         1 UNK         0.3000 
    180 H180        1.2647   -9.3615  -42.9393 H         1 UNK         0.0600 
    181 H181        2.8647   -9.1304  -45.5459 H         1 UNK         0.0600 
    182 H182        3.2189   -8.2686  -44.0523 H         1 UNK         0.0600 
    183 H183        1.7281   -7.9366  -44.9211 H         1 UNK         0.0600 
    184 H184        0.6462  -10.1737  -45.6230 H         1 UNK         0.3000 
    185 H185       -1.3923  -12.9181  -44.9355 H         1 UNK         0.0600 
    186 H186       -3.0508  -11.1874  -44.2192 H         1 UNK         0.0600 
    187 H187       -2.5388  -10.1408  -45.5379 H         1 UNK         0.0600 
    188 H188       -3.3210  -11.6849  -45.8810 H         1 UNK         0.0600 
    189 H189       -1.2783  -11.3815  -47.2882 H         1 UNK         0.3000 
    190 H190       -0.7572  -21.0930  -46.4655 H         1 UNK         0.3000 
    191 H191       -2.5326  -21.4463  -48.6870 H         1 UNK         0.0600 
    192 H192       -3.1741  -20.6261  -45.8090 H         1 UNK         0.0600 
    193 H193       -4.2064  -20.3873  -47.2115 H         1 UNK         0.0600 
    194 H194       -2.6789  -19.5261  -47.0949 H         1 UNK         0.0600 
    195 H195       -2.2581  -23.1114  -45.5034 H         1 UNK         0.3000 
    196 H196       -4.3985  -24.9436  -45.8939 H         1 UNK         0.0600 
    197 H197       -3.3014  -26.2028  -44.0337 H         1 UNK         0.0600 
    198 H198       -3.4277  -24.4890  -43.6690 H         1 UNK         0.0600 
    199 H199       -1.8809  -25.1730  -44.1616 H         1 UNK         0.0600 
    200 H200       -0.8993  -25.1821  -46.6947 H         1 UNK         0.3000 
    201 H201       -0.9552  -27.8249  -47.7388 H         1 UNK         0.0600 
    202 H202        1.1334  -26.5891  -47.1129 H         1 UNK         0.0600 
    203 H203        0.9082  -25.5132  -48.4921 H         1 UNK         0.0600 
    204 H204        1.2119  -27.2233  -48.7502 H         1 UNK         0.0600 
    205 H205       -1.6503  -24.6826  -49.2537 H         1 UNK         0.3000 
    206 H206       -2.1663  -25.7279  -51.9043 H         1 UNK         0.0600 
    207 H207       -1.3743  -23.4023  -51.5015 H         1 UNK         0.0600 
    208 H208       -2.9148  -23.3996  -52.3373 H         1 UNK         0.0600 
    209 H209       -2.8512  -23.0358  -50.6172 H         1 UNK         0.0600 
    210 H210       -3.8852  -26.2461  -49.1354 H         1 UNK         0.3000 
    211 H211       -5.8476  -27.0270  -48.5795 H         1 UNK         0.0600 
    212 H212       -6.1582  -27.6460  -51.5669 H         1 UNK         0.0600 
    213 H213       -7.1894  -28.2804  -50.2904 H         1 UNK         0.0600 
    214 H214       -5.4833  -28.6921  -50.3255 H         1 UNK         0.0600 
    215 H215       -7.0959  -25.7841  -51.6600 H         1 UNK         0.3000 
    216 H216       -9.2704  -24.3303  -50.3780 H         1 UNK         0.0600 
    217 H217       -9.8731  -23.7874  -52.7387 H         1 UNK         0.0600 
    218 H218       -9.5889  -25.5107  -52.5486 H         1 UNK         0.0600 
    219 H219       -8.3632  -24.4905  -53.3050 H         1 UNK         0.0600 
    220 H220       -6.0544  -23.6016  -51.4973 H         1 UNK         0.3000 
    221 H221       -4.7561  -21.8234  -51.5887 H         1 UNK         0.0600 
    222 H222       -6.7116  -20.3371  -49.7529 H         1 UNK         0.0600 
    223 H223       -5.5184  -21.4985  -49.1882 H         1 UNK         0.0600 
    224 H224       -4.9922  -20.0171  -49.9572 H         1 UNK         0.0600 
    225 H225       -5.6380  -18.9588  -51.5299 H         1 UNK         0.3000 
    226 H226       -6.0025  -17.3072  -52.9644 H         1 UNK         0.0600 
    227 H227       -8.3713  -17.8325  -52.5615 H         1 UNK         0.0600 
    228 H228       -8.1703  -17.3178  -54.2259 H         1 UNK         0.0600 
    229 H229       -8.3913  -19.0258  -53.8503 H         1 UNK         0.0600 
    230 H230       -7.3450  -19.1144  -55.5903 H         1 UNK         0.3000 
    231 H231       -5.2761  -18.4570  -57.4351 H         1 UNK         0.0600 
    232 H232       -7.6332  -18.8190  -58.1167 H         1 UNK         0.0600 
    233 H233       -7.5462  -20.5106  -57.6230 H         1 UNK         0.0600 
    234 H234       -6.5818  -19.9324  -58.9766 H         1 UNK         0.0600 
    235 H235       -5.7559  -21.2815  -55.3372 H         1 UNK         0.3000 
    236 H236       -3.8916  -23.0226  -56.6883 H         1 UNK         0.0600 
    237 H237       -4.1670  -24.4380  -54.6916 H         1 UNK         0.0600 
    238 H238       -4.9406  -23.1309  -53.8149 H         1 UNK         0.0600 
    239 H239       -5.7399  -23.8513  -55.2101 H         1 UNK         0.0600 
    240 H240       -3.4486  -20.2849  -54.6070 H         1 UNK         0.3000 
    241 H241       -0.7428  -21.0240  -53.7470 H         1 UNK         0.0600 
    242 H242       -0.4867  -19.2053  -57.3208 H         1 UNK         0.3800 
    243 H243       -1.9637  -19.9658  -56.7904 H         1 UNK         0.3800 
    244 H244       -0.6738  -18.7383  -52.7687 H         1 UNK         0.0800 
    245 H245       -2.2481  -18.3842  -53.4163 H         1 UNK         0.0800 
    246 H246       -2.4173  -17.6949  -50.6805 H         1 UNK         0.0800 
    247 H247       -2.5853  -18.8867  -49.4168 H         1 UNK         0.0800 
@<TRIPOS>BOND
     1    1    2 1    
     2    1  127 1    
     3    1  128 1    
     4    1  129 1    
     5    2    3 2    
     6    2    4 am   BACKBONE|DICT|INTERRES
     7    4    5 1    
     8    4  130 1    
     9    5    6 1    
    10    5   65 1    
    11    5  131 1    
    12    6    7 1    
    13    6  132 1    
    14    6  133 1    
    15    7    8 1    
    16    8    9 1    
    17    8  134 1    
    18    8  135 1    
    19    9   10 ar   
    20    9   14 ar   
    21   10   11 ar   
    22   10  136 1    
    23   11   12 ar   
    24   11  126 1    
    25   12   13 ar   
    26   12  137 1    
    27   13   14 ar   
    28   13   15 1    
    29   14  138 1    
    30   15   16 1    
    31   15  139 1    
    32   15  140 1    
    33   16   17 1    
    34   17   18 1    
    35   17  141 1    
    36   17  142 1    
    37   18   19 1    
    38   18   67 1    
    39   18  143 1    
    40   19   20 am   BACKBONE|DICT|INTERRES
    41   19  144 1    
    42   20   21 2    
    43   20   22 1    
    44   22   23 1    
    45   22   24 1    
    46   22  145 1    
    47   23  146 1    
    48   23  147 1    
    49   23  148 1    
    50   24   25 am   BACKBONE|DICT|INTERRES
    51   24  149 1    
    52   25   26 2    
    53   25   27 1    
    54   27   28 1    
    55   27   29 1    
    56   27  150 1    
    57   28  151 1    
    58   28  152 1    
    59   28  153 1    
    60   29   30 am   BACKBONE|DICT|INTERRES
    61   29  154 1    
    62   30   31 2    
    63   30   32 1    
    64   32   33 1    
    65   32   34 1    
    66   32  155 1    
    67   33  156 1    
    68   33  157 1    
    69   33  158 1    
    70   34   35 am   BACKBONE|DICT|INTERRES
    71   34  159 1    
    72   35   36 2    
    73   35   37 1    
    74   37   38 1    
    75   37   39 1    
    76   37  160 1    
    77   38  161 1    
    78   38  162 1    
    79   38  163 1    
    80   39   40 am   BACKBONE|DICT|INTERRES
    81   39  164 1    
    82   40   41 2    
    83   40   42 1    
    84   42   43 1    
    85   42   44 1    
    86   42  165 1    
    87   43  166 1    
    88   43  167 1    
    89   43  168 1    
    90   44   45 am   BACKBONE|DICT|INTERRES
    91   44  169 1    
    92   45   46 2    
    93   45   47 1    
    94   47   48 1    
    95   47   49 1    
    96   47  170 1    
    97   48  171 1    
    98   48  172 1    
    99   48  173 1    
   100   49   50 am   BACKBONE|DICT|INTERRES
   101   49  174 1    
   102   50   51 2    
   103   50   52 1    
   104   52   53 1    
   105   52   54 1    
   106   52  175 1    
   107   53  176 1    
   108   53  177 1    
   109   53  178 1    
   110   54   55 am   BACKBONE|DICT|INTERRES
   111   54  179 1    
   112   55   56 2    
   113   55   57 1    
   114   57   58 1    
   115   57   59 1    
   116   57  180 1    
   117   58  181 1    
   118   58  182 1    
   119   58  183 1    
   120   59   60 am   BACKBONE|DICT|INTERRES
   121   59  184 1    
   122   60   61 2    
   123   60   62 1    
   124   62   63 1    
   125   62   64 1    
   126   62  185 1    
   127   63  186 1    
   128   63  187 1    
   129   63  188 1    
   130   64   65 am   BACKBONE|DICT|INTERRES
   131   64  189 1    
   132   65   66 2    
   133   67   68 2    
   134   67   69 am   BACKBONE|DICT|INTERRES
   135   69   70 1    
   136   69  190 1    
   137   70   71 1    
   138   70   72 1    
   139   70  191 1    
   140   71  192 1    
   141   71  193 1    
   142   71  194 1    
   143   72   73 2    
   144   72   74 am   BACKBONE|DICT|INTERRES
   145   74   75 1    
   146   74  195 1    
   147   75   76 1    
   148   75   77 1    
   149   75  196 1    
   150   76  197 1    
   151   76  198 1    
   152   76  199 1    
   153   77   78 2    
   154   77   79 am   BACKBONE|DICT|INTERRES
   155   79   80 1    
   156   79  200 1    
   157   80   81 1    
   158   80   82 1    
   159   80  201 1    
   160   81  202 1    
   161   81  203 1    
   162   81  204 1    
   163   82   83 2    
   164   82   84 am   BACKBONE|DICT|INTERRES
   165   84   85 1    
   166   84  205 1    
   167   85   86 1    
   168   85   87 1    
   169   85  206 1    
   170   86  207 1    
   171   86  208 1    
   172   86  209 1    
   173   87   88 2    
   174   87   89 am   BACKBONE|DICT|INTERRES
   175   89   90 1    
   176   89  210 1    
   177   90   91 1    
   178   90   92 1    
   179   90  211 1    
   180   91  212 1    
   181   91  213 1    
   182   91  214 1    
   183   92   93 2    
   184   92   94 am   BACKBONE|DICT|INTERRES
   185   94   95 1    
   186   94  215 1    
   187   95   96 1    
   188   95   97 1    
   189   95  216 1    
   190   96  217 1    
   191   96  218 1    
   192   96  219 1    
   193   97   98 2    
   194   97   99 am   BACKBONE|DICT|INTERRES
   195   99  100 1    
   196   99  220 1    
   197  100  101 1    
   198  100  102 1    
   199  100  221 1    
   200  101  222 1    
   201  101  223 1    
   202  101  224 1    
   203  102  103 2    
   204  102  104 am   BACKBONE|DICT|INTERRES
   205  104  105 1    
   206  104  225 1    
   207  105  106 1    
   208  105  107 1    
   209  105  226 1    
   210  106  227 1    
   211  106  228 1    
   212  106  229 1    
   213  107  108 2    
   214  107  109 am   BACKBONE|DICT|INTERRES
   215  109  110 1    
   216  109  230 1    
   217  110  111 1    
   218  110  112 1    
   219  110  231 1    
   220  111  232 1    
   221  111  233 1    
   222  111  234 1    
   223  112  113 2    
   224  112  114 am   BACKBONE|DICT|INTERRES
   225  114  115 1    
   226  114  235 1    
   227  115  116 1    
   228  115  117 1    
   229  115  236 1    
   230  116  237 1    
   231  116  238 1    
   232  116  239 1    
   233  117  118 2    
   234  117  119 am   BACKBONE|DICT|INTERRES
   235  119  120 1    
   236  119  240 1    
   237  120  121 1    
   238  120  124 1    
   239  120  241 1    
   240  121  122 am   BACKBONE|DICT|INTERRES
   241  121  123 2    
   242  122  242 1    
   243  122  243 1    
   244  124  125 1    
   245  124  244 1    
   246  124  245 1    
   247  125  126 1    
   248  126  246 1    
   249  126  247 1    
@<TRIPOS>SUBSTRUCTURE
     1 UNK         1 GROUP             0       ****    0 ROOT    
