@<TRIPOS>MOLECULE
3R540
247   249    1
SMALL
USER_CHARGES


@<TRIPOS>ATOM
      1 CA          3.0265  -12.9032  -49.7693 C.3       0 UNK        -0.1800 
      2 C           4.2830  -13.1651  -48.9513 C.2       0 UNK         0.5000 
      3 O           4.6344  -12.3607  -48.0885 O.2       0 UNK        -0.5000 
      4 N           4.9564  -14.2916  -49.2142 N.am      1 UNK        -0.5000 
      5 CA          6.1619  -14.7444  -48.5059 C.3       1 UNK         0.1400 
      6 C6          7.0487  -15.6508  -49.4002 C.3       23 UNK        -0.0398 
      7 S7          6.1756  -17.1082  -50.0765 S.3       23 UNK        -0.2404 
      8 C8          6.4663  -16.9089  -51.8625 C.3       23 UNK        -0.0205 
      9 C9          5.6302  -17.8937  -52.6643 C.ar      23 UNK        -0.0193 
     10 C10         4.4806  -17.4627  -53.3324 C.ar      23 UNK        -0.1150 
     11 C11         3.6798  -18.3643  -54.0408 C.ar      23 UNK        -0.0193 
     12 C12         4.0616  -19.7126  -54.0925 C.ar      23 UNK        -0.1150 
     13 C13         5.2012  -20.1593  -53.4193 C.ar      23 UNK        -0.0193 
     14 C14         5.9886  -19.2428  -52.7173 C.ar      23 UNK        -0.1150 
     15 C15         5.5903  -21.6295  -53.4567 C.3       23 UNK        -0.0205 
     16 S16         5.3832  -22.4372  -51.8372 S.3       23 UNK        -0.2404 
     17 C17         3.5913  -22.7865  -51.7844 C.3       23 UNK        -0.0398 
     18 CA          3.0708  -22.7848  -50.3205 C.3       11 UNK         0.1400 
     19 N           2.9944  -21.4321  -49.7588 N.am      11 UNK        -0.5000 
     20 C           2.0278  -20.5259  -49.9579 C.2       10 UNK         0.5000 
     21 O           1.0125  -20.7258  -50.6277 O.2       10 UNK        -0.5000 
     22 CA          2.2710  -19.1387  -49.3329 C.3       10 UNK         0.1400 
     23 CB          2.7112  -18.1489  -50.4156 C.3       10 UNK        -0.1800 
     24 N           1.1173  -18.5743  -48.6334 N.am      10 UNK        -0.5000 
     25 C           0.4635  -19.1548  -47.6209 C.2       9 UNK         0.5000 
     26 O           0.6882  -20.2992  -47.2285 O.2       9 UNK        -0.5000 
     27 CA         -0.5992  -18.2811  -46.9248 C.3       9 UNK         0.1400 
     28 CB         -1.8484  -18.0849  -47.7948 C.3       9 UNK        -0.1800 
     29 N          -1.0214  -18.8059  -45.6284 N.am      9 UNK        -0.5000 
     30 C          -0.2582  -18.8530  -44.5307 C.2       8 UNK         0.5000 
     31 O           0.8980  -18.4345  -44.4841 O.2       8 UNK        -0.5000 
     32 CA         -0.9346  -19.4101  -43.2656 C.3       8 UNK         0.1400 
     33 CB         -0.0118  -19.3814  -42.0342 C.3       8 UNK        -0.1800 
     34 N          -2.1385  -18.6411  -42.9603 N.am      8 UNK        -0.5000 
     35 C          -3.3654  -18.8865  -43.4348 C.2       7 UNK         0.5000 
     36 O          -3.6034  -19.8019  -44.2229 O.2       7 UNK        -0.5000 
     37 CA         -4.5064  -17.9348  -43.0178 C.3       7 UNK         0.1400 
     38 CB         -5.6913  -18.6975  -42.3921 C.3       7 UNK        -0.1800 
     39 N          -4.0816  -16.8067  -42.1771 N.am      7 UNK        -0.5000 
     40 C          -3.6973  -16.8112  -40.8894 C.2       6 UNK         0.5000 
     41 O          -3.6778  -17.8219  -40.1871 O.2       6 UNK        -0.5000 
     42 CA         -3.2206  -15.4695  -40.2915 C.3       6 UNK         0.1400 
     43 CB         -1.9306  -15.6488  -39.4709 C.3       6 UNK        -0.1800 
     44 N          -2.9699  -14.4748  -41.3353 N.am      6 UNK        -0.5000 
     45 C          -3.7910  -13.4706  -41.6719 C.2       5 UNK         0.5000 
     46 O          -4.8410  -13.2193  -41.0802 O.2       5 UNK        -0.5000 
     47 CA         -3.3879  -12.6136  -42.8916 C.3       5 UNK         0.1400 
     48 CB         -2.7187  -11.3097  -42.4314 C.3       5 UNK        -0.1800 
     49 N          -2.4910  -13.3007  -43.8257 N.am      5 UNK        -0.5000 
     50 C          -2.8074  -14.3865  -44.5457 C.2       4 UNK         0.5000 
     51 O          -3.9235  -14.9047  -44.5431 O.2       4 UNK        -0.5000 
     52 CA         -1.6680  -15.0481  -45.3447 C.3       4 UNK         0.1400 
     53 CB         -1.6383  -14.5155  -46.7848 C.3       4 UNK        -0.1800 
     54 N          -0.3409  -14.8837  -44.7423 N.am      4 UNK        -0.5000 
     55 C           0.0136  -15.2846  -43.5150 C.2       3 UNK         0.5000 
     56 O          -0.7585  -15.8642  -42.7473 O.2       3 UNK        -0.5000 
     57 CA          1.4497  -14.9402  -43.0669 C.3       3 UNK         0.1400 
     58 CB          1.6661  -15.1990  -41.5648 C.3       3 UNK        -0.1800 
     59 N           2.4880  -15.6508  -43.8164 N.am      3 UNK        -0.5000 
     60 C           2.8566  -15.4182  -45.0820 C.2       2 UNK         0.5000 
     61 O           2.2919  -14.6098  -45.8261 O.2       2 UNK        -0.5000 
     62 CA          4.0790  -16.2056  -45.5847 C.3       2 UNK         0.1400 
     63 CB          3.7436  -17.6809  -45.8498 C.3       2 UNK        -0.1800 
     64 N           4.5694  -15.6063  -46.8214 N.am      2 UNK        -0.5000 
     65 C           5.8542  -15.4084  -47.1410 C.2       1 UNK         0.5000 
     66 O           6.7902  -15.7300  -46.4066 O.2       1 UNK        -0.5000 
     67 C           1.7710  -23.5887  -50.0753 C.2       11 UNK         0.5000 
     68 O           1.4798  -23.8957  -48.9172 O.2       11 UNK        -0.5000 
     69 N           1.0120  -23.9251  -51.1288 N.am      12 UNK        -0.5000 
     70 CA         -0.2023  -24.7389  -51.0235 C.3       12 UNK         0.1400 
     71 CB         -0.5545  -25.3162  -52.4028 C.3       12 UNK        -0.1800 
     72 C          -1.4117  -23.9890  -50.4329 C.2       12 UNK         0.5000 
     73 O          -2.3721  -24.6431  -50.0240 O.2       12 UNK        -0.5000 
     74 N          -1.3649  -22.6491  -50.3827 N.am      13 UNK        -0.5000 
     75 CA         -2.4797  -21.8235  -49.9164 C.3       13 UNK         0.1400 
     76 CB         -2.2601  -20.3612  -50.3200 C.3       13 UNK        -0.1800 
     77 C          -2.7545  -21.9527  -48.4064 C.2       13 UNK         0.5000 
     78 O          -3.8909  -21.7265  -47.9941 O.2       13 UNK        -0.5000 
     79 N          -1.7502  -22.3519  -47.6100 N.am      14 UNK        -0.5000 
     80 CA         -1.8953  -22.6405  -46.1786 C.3       14 UNK         0.1400 
     81 CB         -0.5228  -22.9309  -45.5508 C.3       14 UNK        -0.1800 
     82 C          -2.8527  -23.8123  -45.8990 C.2       14 UNK         0.5000 
     83 O          -3.6425  -23.7404  -44.9580 O.2       14 UNK        -0.5000 
     84 N          -2.7993  -24.8512  -46.7457 N.am      15 UNK        -0.5000 
     85 CA         -3.6795  -26.0214  -46.6758 C.3       15 UNK         0.1400 
     86 CB         -3.1254  -27.1287  -47.5848 C.3       15 UNK        -0.1800 
     87 C          -5.1380  -25.6897  -47.0459 C.2       15 UNK         0.5000 
     88 O          -6.0563  -26.3507  -46.5607 O.2       15 UNK        -0.5000 
     89 N          -5.3196  -24.6523  -47.8723 N.am      16 UNK        -0.5000 
     90 CA         -6.6135  -24.0907  -48.2529 C.3       16 UNK         0.1400 
     91 CB         -6.4993  -23.5380  -49.6818 C.3       16 UNK        -0.1800 
     92 C          -7.0928  -22.9874  -47.2887 C.2       16 UNK         0.5000 
     93 O          -8.1598  -22.4229  -47.5230 O.2       16 UNK        -0.5000 
     94 N          -6.2978  -22.6585  -46.2578 N.am      17 UNK        -0.5000 
     95 CA         -6.5121  -21.5759  -45.2897 C.3       17 UNK         0.1400 
     96 CB         -7.6952  -21.9110  -44.3576 C.3       17 UNK        -0.1800 
     97 C          -6.6430  -20.1895  -45.9616 C.2       17 UNK         0.5000 
     98 O          -7.4823  -19.3815  -45.5612 O.2       17 UNK        -0.5000 
     99 N          -5.8222  -19.9644  -46.9982 N.am      18 UNK        -0.5000 
    100 CA        -5.7481  -18.7790  -47.8575 C.3       18 UNK         0.1400 
    101 CB        -5.4162  -17.5163  -47.0341 C.3       18 UNK        -0.1800 
    102 C         -6.9694  -18.5771  -48.7827 C.2       18 UNK         0.5000 
    103 O         -7.0747  -17.5225  -49.4103 O.2       18 UNK        -0.5000 
    104 N         -7.8583  -19.5770  -48.8870 N.am      19 UNK        -0.5000 
    105 CA        -9.0634  -19.5277  -49.7223 C.3       19 UNK         0.1400 
    106 CB       -10.1541  -20.4036  -49.0852 C.3       19 UNK        -0.1800 
    107 C         -8.8185  -19.9505  -51.1860 C.2       19 UNK         0.5000 
    108 O         -9.7454  -19.8630  -51.9932 O.2       19 UNK        -0.5000 
    109 N         -7.6029  -20.4065  -51.5111 N.am      20 UNK        -0.5000 
    110 CA        -7.1853  -20.8201  -52.8490 C.3       20 UNK         0.1400 
    111 CB        -7.3031  -22.3493  -52.9764 C.3       20 UNK        -0.1800 
    112 C         -5.7495  -20.3440  -53.1182 C.2       20 UNK         0.5000 
    113 O         -5.0877  -19.8260  -52.2142 O.2       20 UNK        -0.5000 
    114 N         -5.3092  -20.5224  -54.3699 N.am      21 UNK        -0.5000 
    115 CA        -3.9872  -20.1509  -54.8746 C.3       21 UNK         0.1400 
    116 CB        -3.9771  -20.3418  -56.4003 C.3       21 UNK        -0.1800 
    117 C         -2.8325  -20.9406  -54.2265 C.2       21 UNK         0.5000 
    118 O         -3.0391  -22.0297  -53.6866 O.2       21 UNK        -0.5000 
    119 N         -1.6282  -20.3680  -54.3238 N.am      22 UNK        -0.5000 
    120 CA        -0.3778  -20.8944  -53.7558 C.3       22 UNK         0.1400 
    121 C          0.1959  -22.1799  -54.4214 C.2       22 UNK         0.5000 
    122 N         -0.3023  -22.6180  -55.5704 N.am      22 UNK        -0.7600 
    123 O          1.0978  -22.8032  -53.8686 O.2       22 UNK        -0.5000 
    124 C124        0.6868  -19.7759  -53.6377 C.3       23 UNK        -0.0398 
    125 S125        1.1883  -19.0680  -55.2471 S.3       23 UNK        -0.2404 
    126 C126        2.4225  -17.8255  -54.7282 C.3       23 UNK        -0.0205 
    127 H127        2.8467  -13.6916  -50.5008 H         1 UNK         0.0600 
    128 H128        3.1164  -11.9574  -50.3037 H         1 UNK         0.0600 
    129 H129        2.1583  -12.8445  -49.1125 H         1 UNK         0.0600 
    130 H130        4.6226  -14.9195  -49.9318 H         1 UNK         0.3000 
    131 H131        6.7597  -13.8611  -48.2709 H         1 UNK         0.0600 
    132 H132        7.4437  -15.0547  -50.2237 H         1 UNK         0.0800 
    133 H133        7.9273  -15.9972  -48.8532 H         1 UNK         0.0800 
    134 H134        6.2319  -15.8855  -52.1598 H         1 UNK         0.0800 
    135 H135        7.5248  -17.0619  -52.0783 H         1 UNK         0.0800 
    136 H136        4.1960  -16.4208  -53.2847 H         1 UNK         0.1150 
    137 H137        3.4703  -20.4284  -54.6443 H         1 UNK         0.1150 
    138 H138        6.8699  -19.5843  -52.1924 H         1 UNK         0.1150 
    139 H139        5.0170  -22.1714  -54.2107 H         1 UNK         0.0800 
    140 H140        6.6366  -21.7082  -53.7551 H         1 UNK         0.0800 
    141 H141        3.4431  -23.7553  -52.2642 H         1 UNK         0.0800 
    142 H142        3.0577  -22.0487  -52.3833 H         1 UNK         0.0800 
    143 H143        3.8146  -23.3071  -49.7162 H         1 UNK         0.0600 
    144 H144        3.7790  -21.1720  -49.1797 H         1 UNK         0.3000 
    145 H145        3.0786  -19.2245  -48.6031 H         1 UNK         0.0600 
    146 H146        2.9948  -17.1868  -49.9892 H         1 UNK         0.0600 
    147 H147        3.5787  -18.5407  -50.9432 H         1 UNK         0.0600 
    148 H148        1.9273  -17.9783  -51.1544 H         1 UNK         0.0600 
    149 H149        0.8428  -17.6474  -48.9212 H         1 UNK         0.3000 
    150 H150       -0.1408  -17.3049  -46.7547 H         1 UNK         0.0600 
    151 H151       -2.4840  -17.2982  -47.3930 H         1 UNK         0.0600 
    152 H152       -1.5928  -17.7925  -48.8136 H         1 UNK         0.0600 
    153 H153       -2.4444  -18.9952  -47.8407 H         1 UNK         0.0600 
    154 H154       -1.9555  -19.1898  -45.5687 H         1 UNK         0.3000 
    155 H155       -1.1989  -20.4510  -43.4633 H         1 UNK         0.0600 
    156 H156       -0.5073  -19.8072  -41.1616 H         1 UNK         0.0600 
    157 H157        0.2908  -18.3642  -41.7828 H         1 UNK         0.0600 
    158 H158        0.8944  -19.9622  -42.2099 H         1 UNK         0.0600 
    159 H159       -1.9974  -17.8084  -42.4038 H         1 UNK         0.3000 
    160 H160       -4.8689  -17.4851  -43.9426 H         1 UNK         0.0600 
    161 H161       -5.3991  -19.2521  -41.5005 H         1 UNK         0.0600 
    162 H162       -6.1011  -19.4205  -43.0955 H         1 UNK         0.0600 
    163 H163       -6.4995  -18.0189  -42.1200 H         1 UNK         0.0600 
    164 H164       -4.0399  -15.9222  -42.6699 H         1 UNK         0.3000 
    165 H165       -4.0048  -15.1212  -39.6167 H         1 UNK         0.0600 
    166 H166       -1.1270  -16.0781  -40.0702 H         1 UNK         0.0600 
    167 H167       -1.5800  -14.6960  -39.0739 H         1 UNK         0.0600 
    168 H168       -2.0944  -16.3115  -38.6204 H         1 UNK         0.0600 
    169 H169       -2.1439  -14.6445  -41.8991 H         1 UNK         0.3000 
    170 H170       -4.3033  -12.3596  -43.4302 H         1 UNK         0.0600 
    171 H171       -3.3700  -10.7531  -41.7561 H         1 UNK         0.0600 
    172 H172       -1.7846  -11.5021  -41.9021 H         1 UNK         0.0600 
    173 H173       -2.4986  -10.6585  -43.2775 H         1 UNK         0.0600 
    174 H174       -1.5482  -12.9462  -43.8898 H         1 UNK         0.3000 
    175 H175       -1.8838  -16.1165  -45.3707 H         1 UNK         0.0600 
    176 H176       -1.4160  -13.4481  -46.8127 H         1 UNK         0.0600 
    177 H177       -0.8853  -15.0279  -47.3834 H         1 UNK         0.0600 
    178 H178       -2.6007  -14.6640  -47.2766 H         1 UNK         0.0600 
    179 H179        0.3847  -14.4753  -45.3239 H         1 UNK         0.3000 
    180 H180        1.5850  -13.8699  -43.2355 H         1 UNK         0.0600 
    181 H181        1.5742  -16.2579  -41.3208 H         1 UNK         0.0600 
    182 H182        0.9334  -14.6585  -40.9639 H         1 UNK         0.0600 
    183 H183        2.6533  -14.8655  -41.2448 H         1 UNK         0.0600 
    184 H184        2.9648  -16.3815  -43.3086 H         1 UNK         0.3000 
    185 H185        4.8485  -16.1470  -44.8122 H         1 UNK         0.0600 
    186 H186        3.4966  -18.1989  -44.9231 H         1 UNK         0.0600 
    187 H187        2.8920  -17.7802  -46.5215 H         1 UNK         0.0600 
    188 H188        4.5872  -18.2071  -46.2969 H         1 UNK         0.0600 
    189 H189        3.8532  -15.2278  -47.4260 H         1 UNK         0.3000 
    190 H190        1.2481  -23.5893  -52.0587 H         1 UNK         0.3000 
    191 H191        0.0108  -25.5795  -50.3595 H         1 UNK         0.0600 
    192 H192        0.2995  -25.8204  -52.8553 H         1 UNK         0.0600 
    193 H193       -1.3591  -26.0481  -52.3217 H         1 UNK         0.0600 
    194 H194       -0.8938  -24.5413  -53.0899 H         1 UNK         0.0600 
    195 H195       -0.5205  -22.1645  -50.6680 H         1 UNK         0.3000 
    196 H196       -3.3800  -22.1659  -50.4317 H         1 UNK         0.0600 
    197 H197       -3.0921  -19.7375  -49.9935 H         1 UNK         0.0600 
    198 H198       -2.2012  -20.2520  -51.4004 H         1 UNK         0.0600 
    199 H199       -1.3454  -19.9574  -49.8914 H         1 UNK         0.0600 
    200 H200       -0.8322  -22.4853  -48.0123 H         1 UNK         0.3000 
    201 H201       -2.3117  -21.7537  -45.6969 H         1 UNK         0.0600 
    202 H202        0.1014  -22.0404  -45.5243 H         1 UNK         0.0600 
    203 H203        0.0166  -23.7045  -46.0988 H         1 UNK         0.0600 
    204 H204       -0.6260  -23.2697  -44.5189 H         1 UNK         0.0600 
    205 H205       -2.1539  -24.8152  -47.5226 H         1 UNK         0.3000 
    206 H206       -3.6746  -26.3900  -45.6478 H         1 UNK         0.0600 
    207 H207       -2.1063  -27.3967  -47.3058 H         1 UNK         0.0600 
    208 H208       -3.7310  -28.0328  -47.5096 H         1 UNK         0.0600 
    209 H209       -3.1192  -26.8264  -48.6323 H         1 UNK         0.0600 
    210 H210       -4.5026  -24.1674  -48.2166 H         1 UNK         0.3000 
    211 H211       -7.3696  -24.8784  -48.2518 H         1 UNK         0.0600 
    212 H212       -5.7980  -22.7051  -49.7400 H         1 UNK         0.0600 
    213 H213       -7.4652  -23.1784  -50.0390 H         1 UNK         0.0600 
    214 H214       -6.1637  -24.3087  -50.3758 H         1 UNK         0.0600 
    215 H215       -5.4266  -23.1620  -46.1505 H         1 UNK         0.3000 
    216 H216       -5.6112  -21.5350  -44.6766 H         1 UNK         0.0600 
    217 H217       -7.5612  -22.8853  -43.8876 H         1 UNK         0.0600 
    218 H218       -8.6435  -21.9253  -44.8955 H         1 UNK         0.0600 
    219 H219       -7.7855  -21.1760  -43.5574 H         1 UNK         0.0600 
    220 H220       -5.1735  -20.7085  -47.2541 H         1 UNK         0.3000 
    221 H221       -4.9050  -18.9605  -48.5244 H         1 UNK         0.0600 
    222 H222       -6.2638  -17.1888  -46.4318 H         1 UNK         0.0600 
    223 H223       -4.5783  -17.6928  -46.3607 H         1 UNK         0.0600 
    224 H224       -5.1406  -16.6855  -47.6844 H         1 UNK         0.0600 
    225 H225       -7.7304  -20.4154  -48.3325 H         1 UNK         0.3000 
    226 H226       -9.4374  -18.5019  -49.7412 H         1 UNK         0.0600 
    227 H227      -10.2881  -20.1691  -48.0289 H         1 UNK         0.0600 
    228 H228      -11.1147  -20.2470  -49.5772 H         1 UNK         0.0600 
    229 H229       -9.9186  -21.4646  -49.1691 H         1 UNK         0.0600 
    230 H230       -6.8632  -20.3657  -50.8240 H         1 UNK         0.3000 
    231 H231       -7.8276  -20.3496  -53.5965 H         1 UNK         0.0600 
    232 H232       -7.1701  -22.6680  -54.0106 H         1 UNK         0.0600 
    233 H233       -6.5458  -22.8602  -52.3825 H         1 UNK         0.0600 
    234 H234       -8.2826  -22.7030  -52.6541 H         1 UNK         0.0600 
    235 H235       -5.9158  -20.9846  -55.0308 H         1 UNK         0.3000 
    236 H236       -3.8374  -19.0917  -54.6546 H         1 UNK         0.0600 
    237 H237       -4.7560  -19.7470  -56.8780 H         1 UNK         0.0600 
    238 H238       -3.0255  -20.0298  -56.8324 H         1 UNK         0.0600 
    239 H239       -4.1355  -21.3855  -56.6751 H         1 UNK         0.0600 
    240 H240       -1.5387  -19.4937  -54.8211 H         1 UNK         0.3000 
    241 H241       -0.6120  -21.2066  -52.7387 H         1 UNK         0.0600 
    242 H242       -1.0473  -22.1207  -56.0295 H         1 UNK         0.3800 
    243 H243        0.0750  -23.4551  -55.9848 H         1 UNK         0.3800 
    244 H244        1.5675  -20.1536  -53.1197 H         1 UNK         0.0800 
    245 H245        0.3032  -18.9715  -53.0086 H         1 UNK         0.0800 
    246 H246        2.7311  -17.2641  -55.6108 H         1 UNK         0.0800 
    247 H247        1.9271  -17.1121  -54.0675 H         1 UNK         0.0800 
@<TRIPOS>BOND
     1    1    2 1    
     2    1  127 1    
     3    1  128 1    
     4    1  129 1    
     5    2    3 2    
     6    2    4 am   BACKBONE|DICT|INTERRES
     7    4    5 1    
     8    4  130 1    
     9    5    6 1    
    10    5   65 1    
    11    5  131 1    
    12    6    7 1    
    13    6  132 1    
    14    6  133 1    
    15    7    8 1    
    16    8    9 1    
    17    8  134 1    
    18    8  135 1    
    19    9   10 ar   
    20    9   14 ar   
    21   10   11 ar   
    22   10  136 1    
    23   11   12 ar   
    24   11  126 1    
    25   12   13 ar   
    26   12  137 1    
    27   13   14 ar   
    28   13   15 1    
    29   14  138 1    
    30   15   16 1    
    31   15  139 1    
    32   15  140 1    
    33   16   17 1    
    34   17   18 1    
    35   17  141 1    
    36   17  142 1    
    37   18   19 1    
    38   18   67 1    
    39   18  143 1    
    40   19   20 am   BACKBONE|DICT|INTERRES
    41   19  144 1    
    42   20   21 2    
    43   20   22 1    
    44   22   23 1    
    45   22   24 1    
    46   22  145 1    
    47   23  146 1    
    48   23  147 1    
    49   23  148 1    
    50   24   25 am   BACKBONE|DICT|INTERRES
    51   24  149 1    
    52   25   26 2    
    53   25   27 1    
    54   27   28 1    
    55   27   29 1    
    56   27  150 1    
    57   28  151 1    
    58   28  152 1    
    59   28  153 1    
    60   29   30 am   BACKBONE|DICT|INTERRES
    61   29  154 1    
    62   30   31 2    
    63   30   32 1    
    64   32   33 1    
    65   32   34 1    
    66   32  155 1    
    67   33  156 1    
    68   33  157 1    
    69   33  158 1    
    70   34   35 am   BACKBONE|DICT|INTERRES
    71   34  159 1    
    72   35   36 2    
    73   35   37 1    
    74   37   38 1    
    75   37   39 1    
    76   37  160 1    
    77   38  161 1    
    78   38  162 1    
    79   38  163 1    
    80   39   40 am   BACKBONE|DICT|INTERRES
    81   39  164 1    
    82   40   41 2    
    83   40   42 1    
    84   42   43 1    
    85   42   44 1    
    86   42  165 1    
    87   43  166 1    
    88   43  167 1    
    89   43  168 1    
    90   44   45 am   BACKBONE|DICT|INTERRES
    91   44  169 1    
    92   45   46 2    
    93   45   47 1    
    94   47   48 1    
    95   47   49 1    
    96   47  170 1    
    97   48  171 1    
    98   48  172 1    
    99   48  173 1    
   100   49   50 am   BACKBONE|DICT|INTERRES
   101   49  174 1    
   102   50   51 2    
   103   50   52 1    
   104   52   53 1    
   105   52   54 1    
   106   52  175 1    
   107   53  176 1    
   108   53  177 1    
   109   53  178 1    
   110   54   55 am   BACKBONE|DICT|INTERRES
   111   54  179 1    
   112   55   56 2    
   113   55   57 1    
   114   57   58 1    
   115   57   59 1    
   116   57  180 1    
   117   58  181 1    
   118   58  182 1    
   119   58  183 1    
   120   59   60 am   BACKBONE|DICT|INTERRES
   121   59  184 1    
   122   60   61 2    
   123   60   62 1    
   124   62   63 1    
   125   62   64 1    
   126   62  185 1    
   127   63  186 1    
   128   63  187 1    
   129   63  188 1    
   130   64   65 am   BACKBONE|DICT|INTERRES
   131   64  189 1    
   132   65   66 2    
   133   67   68 2    
   134   67   69 am   BACKBONE|DICT|INTERRES
   135   69   70 1    
   136   69  190 1    
   137   70   71 1    
   138   70   72 1    
   139   70  191 1    
   140   71  192 1    
   141   71  193 1    
   142   71  194 1    
   143   72   73 2    
   144   72   74 am   BACKBONE|DICT|INTERRES
   145   74   75 1    
   146   74  195 1    
   147   75   76 1    
   148   75   77 1    
   149   75  196 1    
   150   76  197 1    
   151   76  198 1    
   152   76  199 1    
   153   77   78 2    
   154   77   79 am   BACKBONE|DICT|INTERRES
   155   79   80 1    
   156   79  200 1    
   157   80   81 1    
   158   80   82 1    
   159   80  201 1    
   160   81  202 1    
   161   81  203 1    
   162   81  204 1    
   163   82   83 2    
   164   82   84 am   BACKBONE|DICT|INTERRES
   165   84   85 1    
   166   84  205 1    
   167   85   86 1    
   168   85   87 1    
   169   85  206 1    
   170   86  207 1    
   171   86  208 1    
   172   86  209 1    
   173   87   88 2    
   174   87   89 am   BACKBONE|DICT|INTERRES
   175   89   90 1    
   176   89  210 1    
   177   90   91 1    
   178   90   92 1    
   179   90  211 1    
   180   91  212 1    
   181   91  213 1    
   182   91  214 1    
   183   92   93 2    
   184   92   94 am   BACKBONE|DICT|INTERRES
   185   94   95 1    
   186   94  215 1    
   187   95   96 1    
   188   95   97 1    
   189   95  216 1    
   190   96  217 1    
   191   96  218 1    
   192   96  219 1    
   193   97   98 2    
   194   97   99 am   BACKBONE|DICT|INTERRES
   195   99  100 1    
   196   99  220 1    
   197  100  101 1    
   198  100  102 1    
   199  100  221 1    
   200  101  222 1    
   201  101  223 1    
   202  101  224 1    
   203  102  103 2    
   204  102  104 am   BACKBONE|DICT|INTERRES
   205  104  105 1    
   206  104  225 1    
   207  105  106 1    
   208  105  107 1    
   209  105  226 1    
   210  106  227 1    
   211  106  228 1    
   212  106  229 1    
   213  107  108 2    
   214  107  109 am   BACKBONE|DICT|INTERRES
   215  109  110 1    
   216  109  230 1    
   217  110  111 1    
   218  110  112 1    
   219  110  231 1    
   220  111  232 1    
   221  111  233 1    
   222  111  234 1    
   223  112  113 2    
   224  112  114 am   BACKBONE|DICT|INTERRES
   225  114  115 1    
   226  114  235 1    
   227  115  116 1    
   228  115  117 1    
   229  115  236 1    
   230  116  237 1    
   231  116  238 1    
   232  116  239 1    
   233  117  118 2    
   234  117  119 am   BACKBONE|DICT|INTERRES
   235  119  120 1    
   236  119  240 1    
   237  120  121 1    
   238  120  124 1    
   239  120  241 1    
   240  121  122 am   BACKBONE|DICT|INTERRES
   241  121  123 2    
   242  122  242 1    
   243  122  243 1    
   244  124  125 1    
   245  124  244 1    
   246  124  245 1    
   247  125  126 1    
   248  126  246 1    
   249  126  247 1    
@<TRIPOS>SUBSTRUCTURE
     1 UNK         1 GROUP             0       ****    0 ROOT    
