@<TRIPOS>MOLECULE
3R540
247   249    1
SMALL
USER_CHARGES


@<TRIPOS>ATOM
      1 CA          0.4640  -15.0614  -53.9220 C.3       0 UNK        -0.1800 
      2 C           0.8050  -14.1419  -52.7584 C.2       0 UNK         0.5000 
      3 O           0.6654  -12.9235  -52.8688 O.2       0 UNK        -0.5000 
      4 N           1.2395  -14.7212  -51.6358 N.am      1 UNK        -0.5000 
      5 CA          1.5862  -14.0519  -50.3767 C.3       1 UNK         0.1400 
      6 C6          2.6549  -14.8389  -49.5614 C.3       23 UNK        -0.0398 
      7 S7          2.4976  -16.6623  -49.6515 S.3       23 UNK        -0.2404 
      8 C8          4.0009  -17.0802  -50.5885 C.3       23 UNK        -0.0205 
      9 C9          3.8151  -18.3322  -51.4275 C.ar      23 UNK        -0.0193 
     10 C10         3.3515  -18.2228  -52.7412 C.ar      23 UNK        -0.1150 
     11 C11         3.2274  -19.3572  -53.5453 C.ar      23 UNK        -0.0193 
     12 C12         3.5570  -20.6103  -53.0196 C.ar      23 UNK        -0.1150 
     13 C13         4.0142  -20.7388  -51.7043 C.ar      23 UNK        -0.0193 
     14 C14         4.1464  -19.5898  -50.9142 C.ar      23 UNK        -0.1150 
     15 C15         4.4160  -22.1189  -51.1860 C.3       23 UNK        -0.0205 
     16 S16         3.9388  -22.4471  -49.4568 S.3       23 UNK        -0.2404 
     17 C17         2.1211  -22.3379  -49.5551 C.3       23 UNK        -0.0398 
     18 CA          1.4065  -23.1604  -48.4554 C.3       11 UNK         0.1400 
     19 N           1.8915  -22.8189  -47.1100 N.am      11 UNK        -0.5000 
     20 C           1.4781  -23.3346  -45.9446 C.2       10 UNK         0.5000 
     21 O           0.6360  -24.2302  -45.8583 O.2       10 UNK        -0.5000 
     22 CA          2.0250  -22.6815  -44.6603 C.3       10 UNK         0.1400 
     23 CB          3.4128  -23.2370  -44.2908 C.3       10 UNK        -0.1800 
     24 N           2.0065  -21.2095  -44.6925 N.am      10 UNK        -0.5000 
     25 C           2.7487  -20.3692  -45.4343 C.2       9 UNK         0.5000 
     26 O           3.6221  -20.7438  -46.2161 O.2       9 UNK        -0.5000 
     27 CA          2.4355  -18.8608  -45.3454 C.3       9 UNK         0.1400 
     28 CB          1.6708  -18.4139  -46.6000 C.3       9 UNK        -0.1800 
     29 N           1.6537  -18.4839  -44.1688 N.am      9 UNK        -0.5000 
     30 C           2.1034  -18.4958  -42.9075 C.2       8 UNK         0.5000 
     31 O           3.2718  -18.7362  -42.6018 O.2       8 UNK        -0.5000 
     32 CA          1.0696  -18.2205  -41.7964 C.3       8 UNK         0.1400 
     33 CB          1.2209  -16.7862  -41.2677 C.3       8 UNK        -0.1800 
     34 N          -0.3297  -18.4452  -42.1828 N.am      8 UNK        -0.5000 
     35 C          -0.8525  -19.6090  -42.6005 C.2       7 UNK         0.5000 
     36 O          -0.1806  -20.6239  -42.7946 O.2       7 UNK        -0.5000 
     37 CA         -2.3715  -19.6246  -42.8750 C.3       7 UNK         0.1400 
     38 CB         -2.9600  -21.0500  -42.9384 C.3       7 UNK        -0.1800 
     39 N          -3.1355  -18.7860  -41.9462 N.am      7 UNK        -0.5000 
     40 C          -3.2188  -18.9062  -40.6107 C.2       6 UNK         0.5000 
     41 O          -2.6695  -19.8001  -39.9650 O.2       6 UNK        -0.5000 
     42 CA         -4.0698  -17.8403  -39.8828 C.3       6 UNK         0.1400 
     43 CB         -3.6441  -17.6312  -38.4139 C.3       6 UNK        -0.1800 
     44 N          -4.1335  -16.5601  -40.6032 N.am      6 UNK        -0.5000 
     45 C          -3.1078  -15.7429  -40.8831 C.2       5 UNK         0.5000 
     46 O          -1.9518  -15.9226  -40.4960 O.2       5 UNK        -0.5000 
     47 CA         -3.4486  -14.5207  -41.7553 C.3       5 UNK         0.1400 
     48 CB         -3.8817  -13.3386  -40.8748 C.3       5 UNK        -0.1800 
     49 N          -2.3504  -14.0831  -42.6185 N.am      5 UNK        -0.5000 
     50 C          -1.6802  -14.8232  -43.5121 C.2       4 UNK         0.5000 
     51 O          -1.8863  -16.0233  -43.7121 O.2       4 UNK        -0.5000 
     52 CA         -0.6497  -14.0521  -44.3647 C.3       4 UNK         0.1400 
     53 CB          0.2876  -14.9847  -45.1505 C.3       4 UNK        -0.1800 
     54 N          -1.3362  -13.1551  -45.2995 N.am      4 UNK        -0.5000 
     55 C          -1.8744  -11.9697  -44.9739 C.2       3 UNK         0.5000 
     56 O          -1.7380  -11.4588  -43.8602 O.2       3 UNK        -0.5000 
     57 CA         -2.7684  -11.2689  -46.0211 C.3       3 UNK         0.1400 
     58 CB         -2.6141   -9.7329  -46.0065 C.3       3 UNK        -0.1800 
     59 N          -2.6640  -11.8182  -47.3797 N.am      3 UNK        -0.5000 
     60 C          -1.6414  -11.6935  -48.2365 C.2       2 UNK         0.5000 
     61 O          -0.6194  -11.0401  -48.0134 O.2       2 UNK        -0.5000 
     62 CA         -1.8170  -12.4196  -49.5866 C.3       2 UNK         0.1400 
     63 CB         -2.5117  -11.5030  -50.6051 C.3       2 UNK        -0.1800 
     64 N          -0.5573  -12.8879  -50.1622 N.am      2 UNK        -0.5000 
     65 C           0.3145  -13.7133  -49.5689 C.2       1 UNK         0.5000 
     66 O           0.1318  -14.1988  -48.4531 O.2       1 UNK        -0.5000 
     67 C          -0.1223  -22.9798  -48.5753 C.2       11 UNK         0.5000 
     68 O          -0.7943  -23.7618  -49.2480 O.2       11 UNK        -0.5000 
     69 N          -0.6359  -21.9756  -47.8513 N.am      12 UNK        -0.5000 
     70 CA         -2.0443  -21.6561  -47.6513 C.3       12 UNK         0.1400 
     71 CB         -2.1202  -20.5033  -46.6415 C.3       12 UNK        -0.1800 
     72 C          -2.8868  -22.8394  -47.1508 C.2       12 UNK         0.5000 
     73 O          -3.9757  -23.0684  -47.6779 O.2       12 UNK        -0.5000 
     74 N          -2.3549  -23.5605  -46.1553 N.am      13 UNK        -0.5000 
     75 CA         -2.9822  -24.7325  -45.5512 C.3       13 UNK         0.1400 
     76 CB         -2.4988  -24.8776  -44.0998 C.3       13 UNK        -0.1800 
     77 C          -2.6829  -26.0123  -46.3458 C.2       13 UNK         0.5000 
     78 O          -3.5559  -26.8741  -46.4421 O.2       13 UNK        -0.5000 
     79 N          -1.4679  -26.1109  -46.9066 N.am      14 UNK        -0.5000 
     80 CA         -1.0071  -27.2567  -47.6937 C.3       14 UNK         0.1400 
     81 CB          0.4949  -27.1177  -47.9808 C.3       14 UNK        -0.1800 
     82 C          -1.7998  -27.4395  -49.0006 C.2       14 UNK         0.5000 
     83 O          -2.2177  -28.5573  -49.3054 O.2       14 UNK        -0.5000 
     84 N          -2.0177  -26.3369  -49.7308 N.am      15 UNK        -0.5000 
     85 CA         -2.8577  -26.3054  -50.9299 C.3       15 UNK         0.1400 
     86 CB         -2.4373  -25.1150  -51.8050 C.3       15 UNK        -0.1800 
     87 C          -4.3568  -26.2034  -50.5915 C.2       15 UNK         0.5000 
     88 O          -5.1875  -26.5620  -51.4262 O.2       15 UNK        -0.5000 
     89 N          -4.6675  -25.6816  -49.3935 N.am      16 UNK        -0.5000 
     90 CA         -6.0002  -25.3711  -48.8562 C.3       16 UNK         0.1400 
     91 CB         -6.8497  -26.6499  -48.7072 C.3       16 UNK        -0.1800 
     92 C          -6.7337  -24.2537  -49.6338 C.2       16 UNK         0.5000 
     93 O          -7.9515  -24.1145  -49.5093 O.2       16 UNK        -0.5000 
     94 N          -5.9790  -23.4774  -50.4215 N.am      17 UNK        -0.5000 
     95 CA         -6.4754  -22.4359  -51.3204 C.3       17 UNK         0.1400 
     96 CB         -5.6537  -22.5037  -52.6193 C.3       17 UNK        -0.1800 
     97 C          -6.3896  -21.0242  -50.7103 C.2       17 UNK         0.5000 
     98 O          -6.9214  -20.0901  -51.3097 O.2       17 UNK        -0.5000 
     99 N          -5.7186  -20.8978  -49.5543 N.am      18 UNK        -0.5000 
    100 CA        -5.2659  -19.6661  -48.8951 C.3       18 UNK         0.1400 
    101 CB        -6.3867  -18.6183  -48.7377 C.3       18 UNK        -0.1800 
    102 C         -4.0155  -19.0745  -49.5762 C.2       18 UNK         0.5000 
    103 O         -3.6843  -19.4262  -50.7117 O.2       18 UNK        -0.5000 
    104 N         -3.3008  -18.2156  -48.8373 N.am      19 UNK        -0.5000 
    105 CA        -1.9687  -17.7101  -49.1910 C.3       19 UNK         0.1400 
    106 CB        -1.4199  -16.8944  -48.0143 C.3       19 UNK        -0.1800 
    107 C         -1.9405  -16.8686  -50.4783 C.2       19 UNK         0.5000 
    108 O         -0.9815  -16.9526  -51.2452 O.2       19 UNK        -0.5000 
    109 N         -3.0260  -16.1200  -50.7168 N.am      20 UNK        -0.5000 
    110 CA        -3.2458  -15.3044  -51.9131 C.3       20 UNK         0.1400 
    111 CB        -4.5102  -14.4567  -51.7029 C.3       20 UNK        -0.1800 
    112 C         -3.3652  -16.1242  -53.2148 C.2       20 UNK         0.5000 
    113 O         -3.1829  -15.5629  -54.2949 O.2       20 UNK        -0.5000 
    114 N         -3.6634  -17.4236  -53.0902 N.am      21 UNK        -0.5000 
    115 CA        -3.7564  -18.3841  -54.1864 C.3       21 UNK         0.1400 
    116 CB        -5.1870  -18.9429  -54.2306 C.3       21 UNK        -0.1800 
    117 C         -2.7020  -19.4994  -54.0438 C.2       21 UNK         0.5000 
    118 O         -2.8712  -20.5641  -54.6400 O.2       21 UNK        -0.5000 
    119 N         -1.6292  -19.2371  -53.2809 N.am      22 UNK        -0.5000 
    120 CA        -0.4727  -20.1290  -53.0820 C.3       22 UNK         0.1400 
    121 C         -0.7748  -21.4152  -52.2558 C.2       22 UNK         0.5000 
    122 N         -1.8073  -21.4452  -51.4237 N.am      22 UNK        -0.7600 
    123 O         -0.0440  -22.3973  -52.3380 O.2       22 UNK        -0.5000 
    124 C124        0.2900  -20.4262  -54.4061 C.3       23 UNK        -0.0398 
    125 S125        0.9887  -18.9098  -55.1443 S.3       23 UNK        -0.2404 
    126 C126        2.7761  -19.2220  -54.9934 C.3       23 UNK        -0.0205 
    127 H127        0.4284  -16.1068  -53.6128 H         1 UNK         0.0600 
    128 H128        1.2098  -14.9633  -54.7106 H         1 UNK         0.0600 
    129 H129       -0.5090  -14.7996  -54.3366 H         1 UNK         0.0600 
    130 H130        1.2505  -15.7318  -51.5793 H         1 UNK         0.3000 
    131 H131        2.0370  -13.0877  -50.6218 H         1 UNK         0.0600 
    132 H132        2.6598  -14.5434  -48.5107 H         1 UNK         0.0800 
    133 H133        3.6428  -14.5517  -49.9215 H         1 UNK         0.0800 
    134 H134        4.8329  -17.2065  -49.8941 H         1 UNK         0.0800 
    135 H135        4.2769  -16.2567  -51.2488 H         1 UNK         0.0800 
    136 H136        3.1025  -17.2517  -53.1459 H         1 UNK         0.1150 
    137 H137        3.4734  -21.4888  -53.6439 H         1 UNK         0.1150 
    138 H138        4.5190  -19.6701  -49.9027 H         1 UNK         0.1150 
    139 H139        3.9898  -22.9027  -51.8143 H         1 UNK         0.0800 
    140 H140        5.4991  -22.2139  -51.2697 H         1 UNK         0.0800 
    141 H141        1.8099  -22.6888  -50.5397 H         1 UNK         0.0800 
    142 H142        1.8439  -21.2832  -49.5002 H         1 UNK         0.0800 
    143 H143        1.6312  -24.2142  -48.6195 H         1 UNK         0.0600 
    144 H144        2.6120  -22.1022  -47.0648 H         1 UNK         0.3000 
    145 H145        1.3413  -22.9598  -43.8565 H         1 UNK         0.0600 
    146 H146        3.7788  -22.7957  -43.3637 H         1 UNK         0.0600 
    147 H147        3.3691  -24.3166  -44.1426 H         1 UNK         0.0600 
    148 H148        4.1532  -23.0480  -45.0683 H         1 UNK         0.0600 
    149 H149        1.3045  -20.7992  -44.0830 H         1 UNK         0.3000 
    150 H150        3.3888  -18.3294  -45.3137 H         1 UNK         0.0600 
    151 H151        2.2017  -18.7069  -47.5067 H         1 UNK         0.0600 
    152 H152        1.5592  -17.3300  -46.6282 H         1 UNK         0.0600 
    153 H153        0.6767  -18.8576  -46.6476 H         1 UNK         0.0600 
    154 H154        0.6813  -18.2610  -44.3194 H         1 UNK         0.3000 
    155 H155        1.2946  -18.9087  -40.9793 H         1 UNK         0.0600 
    156 H156        0.9058  -16.0485  -42.0060 H         1 UNK         0.0600 
    157 H157        0.6251  -16.6360  -40.3676 H         1 UNK         0.0600 
    158 H158        2.2569  -16.5684  -41.0049 H         1 UNK         0.0600 
    159 H159       -0.9545  -17.6561  -42.0712 H         1 UNK         0.3000 
    160 H160       -2.4983  -19.1730  -43.8598 H         1 UNK         0.0600 
    161 H161       -2.8396  -21.5813  -41.9940 H         1 UNK         0.0600 
    162 H162       -2.4691  -21.6455  -43.7073 H         1 UNK         0.0600 
    163 H163       -4.0229  -21.0279  -43.1783 H         1 UNK         0.0600 
    164 H164       -3.6055  -17.9974  -42.3678 H         1 UNK         0.3000 
    165 H165       -5.0882  -18.2312  -39.8727 H         1 UNK         0.0600 
    166 H166       -4.2554  -16.8693  -37.9304 H         1 UNK         0.0600 
    167 H167       -3.7600  -18.5506  -37.8389 H         1 UNK         0.0600 
    168 H168       -2.6004  -17.3268  -38.3317 H         1 UNK         0.0600 
    169 H169       -5.0485  -16.3142  -40.9558 H         1 UNK         0.3000 
    170 H170       -4.2798  -14.7887  -42.4104 H         1 UNK         0.0600 
    171 H171       -3.0715  -13.0072  -40.2238 H         1 UNK         0.0600 
    172 H172       -4.1945  -12.4878  -41.4807 H         1 UNK         0.0600 
    173 H173       -4.7246  -13.6096  -40.2378 H         1 UNK         0.0600 
    174 H174       -2.1190  -13.0977  -42.5759 H         1 UNK         0.3000 
    175 H175       -0.0305  -13.4611  -43.6865 H         1 UNK         0.0600 
    176 H176        1.0238  -14.4166  -45.7193 H         1 UNK         0.0600 
    177 H177       -0.2623  -15.6093  -45.8522 H         1 UNK         0.0600 
    178 H178        0.8355  -15.6465  -44.4797 H         1 UNK         0.0600 
    179 H179       -1.4796  -13.5096  -46.2340 H         1 UNK         0.3000 
    180 H180       -3.7909  -11.4830  -45.7068 H         1 UNK         0.0600 
    181 H181       -1.5865   -9.4234  -46.1974 H         1 UNK         0.0600 
    182 H182       -2.8986   -9.3219  -45.0371 H         1 UNK         0.0600 
    183 H183       -3.2526   -9.2637  -46.7550 H         1 UNK         0.0600 
    184 H184       -3.4610  -12.3668  -47.6722 H         1 UNK         0.3000 
    185 H185       -2.4400  -13.3013  -49.4251 H         1 UNK         0.0600 
    186 H186       -3.4879  -11.1799  -50.2414 H         1 UNK         0.0600 
    187 H187       -1.9221  -10.6069  -50.8034 H         1 UNK         0.0600 
    188 H188       -2.6720  -12.0132  -51.5550 H         1 UNK         0.0600 
    189 H189       -0.3202  -12.5466  -51.0868 H         1 UNK         0.3000 
    190 H190        0.0197  -21.4116  -47.3332 H         1 UNK         0.3000 
    191 H191       -2.4533  -21.3295  -48.6073 H         1 UNK         0.0600 
    192 H192       -1.6183  -19.6227  -47.0297 H         1 UNK         0.0600 
    193 H193       -3.1501  -20.2289  -46.4134 H         1 UNK         0.0600 
    194 H194       -1.6320  -20.7620  -45.7023 H         1 UNK         0.0600 
    195 H195       -1.4204  -23.3408  -45.8380 H         1 UNK         0.3000 
    196 H196       -4.0654  -24.5926  -45.5352 H         1 UNK         0.0600 
    197 H197       -2.9319  -25.7620  -43.6307 H         1 UNK         0.0600 
    198 H198       -2.7929  -24.0188  -43.4977 H         1 UNK         0.0600 
    199 H199       -1.4138  -24.9733  -44.0418 H         1 UNK         0.0600 
    200 H200       -0.7919  -25.3748  -46.7330 H         1 UNK         0.3000 
    201 H201       -1.1523  -28.1524  -47.0860 H         1 UNK         0.0600 
    202 H202        1.0638  -26.9650  -47.0633 H         1 UNK         0.0600 
    203 H203        0.6990  -26.2818  -48.6481 H         1 UNK         0.0600 
    204 H204        0.8824  -28.0176  -48.4598 H         1 UNK         0.0600 
    205 H205       -1.6018  -25.4541  -49.4414 H         1 UNK         0.3000 
    206 H206       -2.7018  -27.2217  -51.5033 H         1 UNK         0.0600 
    207 H207       -1.3768  -25.1592  -52.0545 H         1 UNK         0.0600 
    208 H208       -2.9932  -25.1019  -52.7434 H         1 UNK         0.0600 
    209 H209       -2.6218  -24.1655  -51.3038 H         1 UNK         0.0600 
    210 H210       -3.8984  -25.4189  -48.7938 H         1 UNK         0.3000 
    211 H211       -5.8347  -24.9779  -47.8526 H         1 UNK         0.0600 
    212 H212       -7.1354  -27.0644  -49.6741 H         1 UNK         0.0600 
    213 H213       -7.7686  -26.4470  -48.1562 H         1 UNK         0.0600 
    214 H214       -6.3070  -27.4193  -48.1576 H         1 UNK         0.0600 
    215 H215       -4.9873  -23.6599  -50.4446 H         1 UNK         0.3000 
    216 H216       -7.5214  -22.6273  -51.5682 H         1 UNK         0.0600 
    217 H217       -4.6099  -22.2320  -52.4536 H         1 UNK         0.0600 
    218 H218       -6.0539  -21.8229  -53.3709 H         1 UNK         0.0600 
    219 H219       -5.6751  -23.5052  -53.0497 H         1 UNK         0.0600 
    220 H220       -5.3501  -21.7504  -49.1531 H         1 UNK         0.3000 
    221 H221       -4.9694  -19.9780  -47.8937 H         1 UNK         0.0600 
    222 H222       -6.6261  -18.1268  -49.6812 H         1 UNK         0.0600 
    223 H223       -7.3002  -19.0705  -48.3515 H         1 UNK         0.0600 
    224 H224       -6.0932  -17.8362  -48.0371 H         1 UNK         0.0600 
    225 H225       -3.6453  -17.9530  -47.9254 H         1 UNK         0.3000 
    226 H226       -1.3178  -18.5737  -49.3451 H         1 UNK         0.0600 
    227 H227       -1.9290  -15.9350  -47.9145 H         1 UNK         0.0600 
    228 H228       -1.5175  -17.4132  -47.0624 H         1 UNK         0.0600 
    229 H229       -0.3586  -16.6948  -48.1608 H         1 UNK         0.0600 
    230 H230       -3.7756  -16.1432  -50.0415 H         1 UNK         0.3000 
    231 H231       -2.3909  -14.6340  -52.0237 H         1 UNK         0.0600 
    232 H232       -5.3998  -15.0809  -51.6083 H         1 UNK         0.0600 
    233 H233       -4.6715  -13.7815  -52.5443 H         1 UNK         0.0600 
    234 H234       -4.4368  -13.8429  -50.8057 H         1 UNK         0.0600 
    235 H235       -3.7718  -17.8172  -52.1625 H         1 UNK         0.3000 
    236 H236       -3.5565  -17.8958  -55.1419 H         1 UNK         0.0600 
    237 H237       -5.9213  -18.1443  -54.3354 H         1 UNK         0.0600 
    238 H238       -5.3238  -19.6231  -55.0719 H         1 UNK         0.0600 
    239 H239       -5.4169  -19.4924  -53.3198 H         1 UNK         0.0600 
    240 H240       -1.5716  -18.3431  -52.8094 H         1 UNK         0.3000 
    241 H241        0.2115  -19.5694  -52.4426 H         1 UNK         0.0600 
    242 H242       -1.9420  -22.2812  -50.8803 H         1 UNK         0.3800 
    243 H243       -2.4428  -20.6565  -51.3313 H         1 UNK         0.3800 
    244 H244        1.0968  -21.1396  -54.2408 H         1 UNK         0.0800 
    245 H245       -0.3625  -20.9024  -55.1377 H         1 UNK         0.0800 
    246 H246        3.0340  -20.1158  -55.5636 H         1 UNK         0.0800 
    247 H247        3.3164  -18.3984  -55.4622 H         1 UNK         0.0800 
@<TRIPOS>BOND
     1    1    2 1    
     2    1  127 1    
     3    1  128 1    
     4    1  129 1    
     5    2    3 2    
     6    2    4 am   BACKBONE|DICT|INTERRES
     7    4    5 1    
     8    4  130 1    
     9    5    6 1    
    10    5   65 1    
    11    5  131 1    
    12    6    7 1    
    13    6  132 1    
    14    6  133 1    
    15    7    8 1    
    16    8    9 1    
    17    8  134 1    
    18    8  135 1    
    19    9   10 ar   
    20    9   14 ar   
    21   10   11 ar   
    22   10  136 1    
    23   11   12 ar   
    24   11  126 1    
    25   12   13 ar   
    26   12  137 1    
    27   13   14 ar   
    28   13   15 1    
    29   14  138 1    
    30   15   16 1    
    31   15  139 1    
    32   15  140 1    
    33   16   17 1    
    34   17   18 1    
    35   17  141 1    
    36   17  142 1    
    37   18   19 1    
    38   18   67 1    
    39   18  143 1    
    40   19   20 am   BACKBONE|DICT|INTERRES
    41   19  144 1    
    42   20   21 2    
    43   20   22 1    
    44   22   23 1    
    45   22   24 1    
    46   22  145 1    
    47   23  146 1    
    48   23  147 1    
    49   23  148 1    
    50   24   25 am   BACKBONE|DICT|INTERRES
    51   24  149 1    
    52   25   26 2    
    53   25   27 1    
    54   27   28 1    
    55   27   29 1    
    56   27  150 1    
    57   28  151 1    
    58   28  152 1    
    59   28  153 1    
    60   29   30 am   BACKBONE|DICT|INTERRES
    61   29  154 1    
    62   30   31 2    
    63   30   32 1    
    64   32   33 1    
    65   32   34 1    
    66   32  155 1    
    67   33  156 1    
    68   33  157 1    
    69   33  158 1    
    70   34   35 am   BACKBONE|DICT|INTERRES
    71   34  159 1    
    72   35   36 2    
    73   35   37 1    
    74   37   38 1    
    75   37   39 1    
    76   37  160 1    
    77   38  161 1    
    78   38  162 1    
    79   38  163 1    
    80   39   40 am   BACKBONE|DICT|INTERRES
    81   39  164 1    
    82   40   41 2    
    83   40   42 1    
    84   42   43 1    
    85   42   44 1    
    86   42  165 1    
    87   43  166 1    
    88   43  167 1    
    89   43  168 1    
    90   44   45 am   BACKBONE|DICT|INTERRES
    91   44  169 1    
    92   45   46 2    
    93   45   47 1    
    94   47   48 1    
    95   47   49 1    
    96   47  170 1    
    97   48  171 1    
    98   48  172 1    
    99   48  173 1    
   100   49   50 am   BACKBONE|DICT|INTERRES
   101   49  174 1    
   102   50   51 2    
   103   50   52 1    
   104   52   53 1    
   105   52   54 1    
   106   52  175 1    
   107   53  176 1    
   108   53  177 1    
   109   53  178 1    
   110   54   55 am   BACKBONE|DICT|INTERRES
   111   54  179 1    
   112   55   56 2    
   113   55   57 1    
   114   57   58 1    
   115   57   59 1    
   116   57  180 1    
   117   58  181 1    
   118   58  182 1    
   119   58  183 1    
   120   59   60 am   BACKBONE|DICT|INTERRES
   121   59  184 1    
   122   60   61 2    
   123   60   62 1    
   124   62   63 1    
   125   62   64 1    
   126   62  185 1    
   127   63  186 1    
   128   63  187 1    
   129   63  188 1    
   130   64   65 am   BACKBONE|DICT|INTERRES
   131   64  189 1    
   132   65   66 2    
   133   67   68 2    
   134   67   69 am   BACKBONE|DICT|INTERRES
   135   69   70 1    
   136   69  190 1    
   137   70   71 1    
   138   70   72 1    
   139   70  191 1    
   140   71  192 1    
   141   71  193 1    
   142   71  194 1    
   143   72   73 2    
   144   72   74 am   BACKBONE|DICT|INTERRES
   145   74   75 1    
   146   74  195 1    
   147   75   76 1    
   148   75   77 1    
   149   75  196 1    
   150   76  197 1    
   151   76  198 1    
   152   76  199 1    
   153   77   78 2    
   154   77   79 am   BACKBONE|DICT|INTERRES
   155   79   80 1    
   156   79  200 1    
   157   80   81 1    
   158   80   82 1    
   159   80  201 1    
   160   81  202 1    
   161   81  203 1    
   162   81  204 1    
   163   82   83 2    
   164   82   84 am   BACKBONE|DICT|INTERRES
   165   84   85 1    
   166   84  205 1    
   167   85   86 1    
   168   85   87 1    
   169   85  206 1    
   170   86  207 1    
   171   86  208 1    
   172   86  209 1    
   173   87   88 2    
   174   87   89 am   BACKBONE|DICT|INTERRES
   175   89   90 1    
   176   89  210 1    
   177   90   91 1    
   178   90   92 1    
   179   90  211 1    
   180   91  212 1    
   181   91  213 1    
   182   91  214 1    
   183   92   93 2    
   184   92   94 am   BACKBONE|DICT|INTERRES
   185   94   95 1    
   186   94  215 1    
   187   95   96 1    
   188   95   97 1    
   189   95  216 1    
   190   96  217 1    
   191   96  218 1    
   192   96  219 1    
   193   97   98 2    
   194   97   99 am   BACKBONE|DICT|INTERRES
   195   99  100 1    
   196   99  220 1    
   197  100  101 1    
   198  100  102 1    
   199  100  221 1    
   200  101  222 1    
   201  101  223 1    
   202  101  224 1    
   203  102  103 2    
   204  102  104 am   BACKBONE|DICT|INTERRES
   205  104  105 1    
   206  104  225 1    
   207  105  106 1    
   208  105  107 1    
   209  105  226 1    
   210  106  227 1    
   211  106  228 1    
   212  106  229 1    
   213  107  108 2    
   214  107  109 am   BACKBONE|DICT|INTERRES
   215  109  110 1    
   216  109  230 1    
   217  110  111 1    
   218  110  112 1    
   219  110  231 1    
   220  111  232 1    
   221  111  233 1    
   222  111  234 1    
   223  112  113 2    
   224  112  114 am   BACKBONE|DICT|INTERRES
   225  114  115 1    
   226  114  235 1    
   227  115  116 1    
   228  115  117 1    
   229  115  236 1    
   230  116  237 1    
   231  116  238 1    
   232  116  239 1    
   233  117  118 2    
   234  117  119 am   BACKBONE|DICT|INTERRES
   235  119  120 1    
   236  119  240 1    
   237  120  121 1    
   238  120  124 1    
   239  120  241 1    
   240  121  122 am   BACKBONE|DICT|INTERRES
   241  121  123 2    
   242  122  242 1    
   243  122  243 1    
   244  124  125 1    
   245  124  244 1    
   246  124  245 1    
   247  125  126 1    
   248  126  246 1    
   249  126  247 1    
@<TRIPOS>SUBSTRUCTURE
     1 UNK         1 GROUP             0       ****    0 ROOT    
