@<TRIPOS>MOLECULE
3R540
247   249    1
SMALL
USER_CHARGES


@<TRIPOS>ATOM
      1 CA         -2.1523  -17.9385  -49.1003 C.3       0 UNK        -0.1800 
      2 C          -2.4492  -16.4574  -49.2805 C.2       0 UNK         0.5000 
      3 O          -3.5929  -16.0884  -49.5506 O.2       0 UNK        -0.5000 
      4 N          -1.4195  -15.6138  -49.1527 N.am      1 UNK        -0.5000 
      5 CA         -1.5022  -14.1550  -49.2380 C.3       1 UNK         0.1400 
      6 C6         -0.1236  -13.5028  -49.5260 C.3       23 UNK        -0.0398 
      7 S7          1.2370  -14.0764  -48.4459 S.3       23 UNK        -0.2404 
      8 C8          2.3656  -14.8808  -49.6317 C.3       23 UNK        -0.0205 
      9 C9          1.8346  -16.2148  -50.1410 C.ar      23 UNK        -0.0193 
     10 C10         1.0951  -16.2735  -51.3288 C.ar      23 UNK        -0.1150 
     11 C11         0.6051  -17.4935  -51.8020 C.ar      23 UNK        -0.0193 
     12 C12         0.8938  -18.6608  -51.0960 C.ar      23 UNK        -0.1150 
     13 C13         1.6397  -18.6245  -49.9174 C.ar      23 UNK        -0.0193 
     14 C14         2.1008  -17.3951  -49.4360 C.ar      23 UNK        -0.1150 
     15 C15         1.9307  -19.9260  -49.1867 C.3       23 UNK        -0.0205 
     16 S16         0.3987  -20.6357  -48.5161 S.3       23 UNK        -0.2404 
     17 C17         0.8303  -22.3989  -48.3520 C.3       23 UNK        -0.0398 
     18 CA         -0.0279  -23.1712  -47.3196 C.3       11 UNK         0.1400 
     19 N           0.3032  -22.8138  -45.9342 N.am      11 UNK        -0.5000 
     20 C          -0.0391  -23.5583  -44.8722 C.2       10 UNK         0.5000 
     21 O          -0.6969  -24.5952  -44.9541 O.2       10 UNK        -0.5000 
     22 CA          0.3878  -23.0532  -43.4842 C.3       10 UNK         0.1400 
     23 CB          1.8876  -23.2901  -43.2533 C.3       10 UNK        -0.1800 
     24 N           0.0610  -21.6460  -43.2569 N.am      10 UNK        -0.5000 
     25 C          -1.1845  -21.1491  -43.2390 C.2       9 UNK         0.5000 
     26 O          -2.1940  -21.8262  -43.4296 O.2       9 UNK        -0.5000 
     27 CA         -1.3272  -19.6350  -43.0079 C.3       9 UNK         0.1400 
     28 CB         -1.1327  -19.2786  -41.5266 C.3       9 UNK        -0.1800 
     29 N          -0.3884  -18.8689  -43.8205 N.am      9 UNK        -0.5000 
     30 C          -0.4059  -18.8188  -45.1585 C.2       8 UNK         0.5000 
     31 O          -1.2741  -19.3465  -45.8511 O.2       8 UNK        -0.5000 
     32 CA          0.7699  -18.0872  -45.8266 C.3       8 UNK         0.1400 
     33 CB          0.5326  -16.5705  -45.8462 C.3       8 UNK        -0.1800 
     34 N           2.0489  -18.3806  -45.1760 N.am      8 UNK        -0.5000 
     35 C           2.6430  -19.5836  -45.1535 C.2       7 UNK         0.5000 
     36 O           2.1845  -20.5922  -45.6883 O.2       7 UNK        -0.5000 
     37 CA          3.9631  -19.6826  -44.3686 C.3       7 UNK         0.1400 
     38 CB          5.1354  -19.1681  -45.2173 C.3       7 UNK        -0.1800 
     39 N           3.9186  -18.9502  -43.1027 N.am      7 UNK        -0.5000 
     40 C           3.1478  -19.2896  -42.0595 C.2       6 UNK         0.5000 
     41 O           2.4219  -20.2832  -42.0379 O.2       6 UNK        -0.5000 
     42 CA          3.1420  -18.3163  -40.8643 C.3       6 UNK         0.1400 
     43 CB          4.3361  -18.5873  -39.9371 C.3       6 UNK        -0.1800 
     44 N           3.1417  -16.9035  -41.2637 N.am      6 UNK        -0.5000 
     45 C           2.1977  -16.3384  -42.0277 C.2       5 UNK         0.5000 
     46 O           1.2451  -16.9650  -42.4962 O.2       5 UNK        -0.5000 
     47 CA          2.3762  -14.8463  -42.3703 C.3       5 UNK         0.1400 
     48 CB          3.4555  -14.6722  -43.4513 C.3       5 UNK        -0.1800 
     49 N           1.1328  -14.2560  -42.8655 N.am      5 UNK        -0.5000 
     50 C           0.0218  -14.0754  -42.1393 C.2       4 UNK         0.5000 
     51 O          -0.0327  -14.2474  -40.9195 O.2       4 UNK        -0.5000 
     52 CA         -1.2347  -13.6455  -42.9260 C.3       4 UNK         0.1400 
     53 CB         -2.3508  -13.0803  -42.0229 C.3       4 UNK        -0.1800 
     54 N          -0.9490  -12.7240  -44.0319 N.am      4 UNK        -0.5000 
     55 C          -0.4031  -11.4990  -43.9447 C.2       3 UNK         0.5000 
     56 O           0.0088  -10.9981  -42.8979 O.2       3 UNK        -0.5000 
     57 CA         -0.3139  -10.6819  -45.2506 C.3       3 UNK         0.1400 
     58 CB          1.0846  -10.8224  -45.8718 C.3       3 UNK        -0.1800 
     59 N          -1.3139  -11.0656  -46.2492 N.am      3 UNK        -0.5000 
     60 C          -2.6434  -10.9622  -46.1048 C.2       2 UNK         0.5000 
     61 O          -3.1807  -10.4233  -45.1365 O.2       2 UNK        -0.5000 
     62 CA         -3.5281  -11.5731  -47.2131 C.3       2 UNK         0.1400 
     63 CB         -4.3201  -10.4746  -47.9407 C.3       2 UNK        -0.1800 
     64 N          -2.8033  -12.3643  -48.2140 N.am      2 UNK        -0.5000 
     65 C          -2.1828  -13.5335  -48.0002 C.2       1 UNK         0.5000 
     66 O          -2.0996  -14.0731  -46.8933 O.2       1 UNK        -0.5000 
     67 C          -1.5440  -23.0915  -47.6196 C.2       11 UNK         0.5000 
     68 O          -2.0252  -23.7935  -48.5159 O.2       11 UNK        -0.5000 
     69 N          -2.2661  -22.2550  -46.8603 N.am      12 UNK        -0.5000 
     70 CA         -3.7208  -22.1753  -46.8700 C.3       12 UNK         0.1400 
     71 CB         -4.1845  -20.8415  -46.2670 C.3       12 UNK        -0.1800 
     72 C          -4.3479  -23.3708  -46.1366 C.2       12 UNK         0.5000 
     73 O          -5.1866  -24.0596  -46.7165 O.2       12 UNK        -0.5000 
     74 N          -3.9081  -23.6157  -44.8930 N.am      13 UNK        -0.5000 
     75 CA         -4.4063  -24.6779  -44.0142 C.3       13 UNK         0.1400 
     76 CB         -3.7832  -24.5231  -42.6187 C.3       13 UNK        -0.1800 
     77 C          -4.1613  -26.0969  -44.5565 C.2       13 UNK         0.5000 
     78 O          -5.0417  -26.9504  -44.4430 O.2       13 UNK        -0.5000 
     79 N          -2.9858  -26.3170  -45.1601 N.am      14 UNK        -0.5000 
     80 CA         -2.6169  -27.5705  -45.8213 C.3       14 UNK         0.1400 
     81 CB         -1.0876  -27.6204  -45.9703 C.3       14 UNK        -0.1800 
     82 C          -3.2864  -27.7517  -47.1981 C.2       14 UNK         0.5000 
     83 O          -3.2293  -28.8514  -47.7492 O.2       14 UNK        -0.5000 
     84 N          -3.8674  -26.6699  -47.7426 N.am      15 UNK        -0.5000 
     85 CA         -4.4508  -26.5464  -49.0831 C.3       15 UNK         0.1400 
     86 CB         -5.7042  -27.4329  -49.2280 C.3       15 UNK        -0.1800 
     87 C          -3.4211  -26.7621  -50.2137 C.2       15 UNK         0.5000 
     88 O          -3.7894  -27.1631  -51.3187 O.2       15 UNK        -0.5000 
     89 N          -2.1452  -26.4777  -49.9158 N.am      16 UNK        -0.5000 
     90 CA         -1.0261  -26.5386  -50.8542 C.3       16 UNK         0.1400 
     91 CB          0.2939  -26.5058  -50.0684 C.3       16 UNK        -0.1800 
     92 C          -1.0875  -25.3881  -51.8720 C.2       16 UNK         0.5000 
     93 O          -0.8247  -25.6043  -53.0555 O.2       16 UNK        -0.5000 
     94 N          -1.4701  -24.2015  -51.3855 N.am      17 UNK        -0.5000 
     95 CA         -1.7865  -23.0285  -52.1972 C.3       17 UNK         0.1400 
     96 CB         -0.9372  -21.8455  -51.7243 C.3       17 UNK        -0.1800 
     97 C          -3.2743  -22.6676  -52.0834 C.2       17 UNK         0.5000 
     98 O          -3.8364  -22.1457  -53.0452 O.2       17 UNK        -0.5000 
     99 N          -3.8765  -22.9352  -50.9129 N.am      18 UNK        -0.5000 
    100 CA        -5.2577  -22.6416  -50.5107 C.3       18 UNK         0.1400 
    101 CB        -6.2903  -23.2916  -51.4515 C.3       18 UNK        -0.1800 
    102 C         -5.5345  -21.1395  -50.2969 C.2       18 UNK         0.5000 
    103 O         -6.0201  -20.7726  -49.2272 O.2       18 UNK        -0.5000 
    104 N         -5.2052  -20.2995  -51.2840 N.am      19 UNK        -0.5000 
    105 CA        -5.3578  -18.8468  -51.2604 C.3       19 UNK         0.1400 
    106 CB        -6.8502  -18.4619  -51.3244 C.3       19 UNK        -0.1800 
    107 C         -4.6016  -18.2258  -52.4447 C.2       19 UNK         0.5000 
    108 O         -4.3000  -18.9192  -53.4185 O.2       19 UNK        -0.5000 
    109 N         -4.3441  -16.9156  -52.3522 N.am      20 UNK        -0.5000 
    110 CA        -3.8236  -16.0633  -53.4240 C.3       20 UNK         0.1400 
    111 CB        -3.6406  -14.6467  -52.8557 C.3       20 UNK        -0.1800 
    112 C         -4.7372  -16.0419  -54.6745 C.2       20 UNK         0.5000 
    113 O         -5.9462  -16.2334  -54.5371 O.2       20 UNK        -0.5000 
    114 N         -4.2175  -15.7896  -55.8858 N.am      21 UNK        -0.5000 
    115 CA        -2.8366  -15.4320  -56.2363 C.3       21 UNK         0.1400 
    116 CB        -2.8658  -14.6732  -57.5730 C.3       21 UNK        -0.1800 
    117 C         -1.8621  -16.6237  -56.3233 C.2       21 UNK         0.5000 
    118 O         -0.6658  -16.3898  -56.4846 O.2       21 UNK        -0.5000 
    119 N         -2.3840  -17.8542  -56.2337 N.am      22 UNK        -0.5000 
    120 CA        -1.7078  -19.1704  -56.2444 C.3       22 UNK         0.1400 
    121 C         -0.7638  -19.5191  -57.4383 C.2       22 UNK         0.5000 
    122 N         -0.3517  -18.5773  -58.2734 N.am      22 UNK        -0.7600 
    123 O         -0.4339  -20.6857  -57.6349 O.2       22 UNK        -0.5000 
    124 C124       -1.1059  -19.5741  -54.8684 C.3       23 UNK        -0.0398 
    125 S125        0.3862  -18.6611  -54.3263 S.3       23 UNK        -0.2404 
    126 C126       -0.2816  -17.5552  -53.0373 C.3       23 UNK        -0.0205 
    127 H127       -2.8882  -18.3954  -48.4394 H         1 UNK         0.0600 
    128 H128       -2.1853  -18.4526  -50.0609 H         1 UNK         0.0600 
    129 H129       -1.1666  -18.0951  -48.6626 H         1 UNK         0.0600 
    130 H130       -0.5027  -15.9733  -48.9269 H         1 UNK         0.3000 
    131 H131       -2.1451  -13.9211  -50.0871 H         1 UNK         0.0600 
    132 H132       -0.1815  -12.4158  -49.4489 H         1 UNK         0.0800 
    133 H133        0.1439  -13.6853  -50.5654 H         1 UNK         0.0800 
    134 H134        3.3271  -15.0382  -49.1408 H         1 UNK         0.0800 
    135 H135        2.5639  -14.2055  -50.4655 H         1 UNK         0.0800 
    136 H136        0.8880  -15.3683  -51.8805 H         1 UNK         0.1150 
    137 H137        0.5273  -19.6068  -51.4604 H         1 UNK         0.1150 
    138 H138        2.6737  -17.3563  -48.5200 H         1 UNK         0.1150 
    139 H139        2.3879  -20.6289  -49.8846 H         1 UNK         0.0800 
    140 H140        2.6453  -19.7740  -48.3768 H         1 UNK         0.0800 
    141 H141        0.7362  -22.8623  -49.3353 H         1 UNK         0.0800 
    142 H142        1.8847  -22.4807  -48.0839 H         1 UNK         0.0800 
    143 H143        0.2370  -24.2247  -47.4311 H         1 UNK         0.0600 
    144 H144        0.8512  -21.9663  -45.8013 H         1 UNK         0.3000 
    145 H145       -0.1594  -23.6387  -42.7425 H         1 UNK         0.0600 
    146 H146        2.1719  -23.0420  -42.2306 H         1 UNK         0.0600 
    147 H147        2.1481  -24.3364  -43.4173 H         1 UNK         0.0600 
    148 H148        2.5001  -22.6895  -43.9257 H         1 UNK         0.0600 
    149 H149        0.8408  -21.0268  -43.0609 H         1 UNK         0.3000 
    150 H150       -2.3391  -19.3454  -43.2988 H         1 UNK         0.0600 
    151 H151       -1.8393  -19.8221  -40.8983 H         1 UNK         0.0600 
    152 H152       -1.2932  -18.2141  -41.3541 H         1 UNK         0.0600 
    153 H153       -0.1280  -19.5231  -41.1807 H         1 UNK         0.0600 
    154 H154        0.3294  -18.3450  -43.3249 H         1 UNK         0.3000 
    155 H155        0.8384  -18.4213  -46.8602 H         1 UNK         0.0600 
    156 H156        1.3869  -16.0448  -46.2706 H         1 UNK         0.0600 
    157 H157        0.3546  -16.1724  -44.8485 H         1 UNK         0.0600 
    158 H158       -0.3396  -16.3235  -46.4524 H         1 UNK         0.0600 
    159 H159        2.4682  -17.6295  -44.6508 H         1 UNK         0.3000 
    160 H160        4.1408  -20.7368  -44.1456 H         1 UNK         0.0600 
    161 H161        5.0321  -18.1076  -45.4506 H         1 UNK         0.0600 
    162 H162        5.1975  -19.7076  -46.1634 H         1 UNK         0.0600 
    163 H163        6.0859  -19.3076  -44.7020 H         1 UNK         0.0600 
    164 H164        4.4821  -18.1159  -43.0344 H         1 UNK         0.3000 
    165 H165        2.2251  -18.4986  -40.3000 H         1 UNK         0.0600 
    166 H166        5.2865  -18.3846  -40.4323 H         1 UNK         0.0600 
    167 H167        4.2864  -17.9706  -39.0395 H         1 UNK         0.0600 
    168 H168        4.3500  -19.6289  -39.6133 H         1 UNK         0.0600 
    169 H169        3.9030  -16.3363  -40.9195 H         1 UNK         0.3000 
    170 H170        2.6803  -14.3135  -41.4671 H         1 UNK         0.0600 
    171 H171        3.1921  -15.1928  -44.3730 H         1 UNK         0.0600 
    172 H172        3.6029  -13.6194  -43.6935 H         1 UNK         0.0600 
    173 H173        4.4175  -15.0623  -43.1169 H         1 UNK         0.0600 
    174 H174        1.0784  -14.0897  -43.8586 H         1 UNK         0.3000 
    175 H175       -1.6202  -14.5560  -43.3873 H         1 UNK         0.0600 
    176 H176       -3.2285  -12.8049  -42.6078 H         1 UNK         0.0600 
    177 H177       -2.6710  -13.8187  -41.2870 H         1 UNK         0.0600 
    178 H178       -2.0211  -12.1959  -41.4770 H         1 UNK         0.0600 
    179 H179       -1.2447  -13.0415  -44.9473 H         1 UNK         0.3000 
    180 H180       -0.4773   -9.6326  -44.9966 H         1 UNK         0.0600 
    181 H181        1.1880  -10.1984  -46.7596 H         1 UNK         0.0600 
    182 H182        1.8580  -10.5137  -45.1672 H         1 UNK         0.0600 
    183 H183        1.2958  -11.8533  -46.1589 H         1 UNK         0.0600 
    184 H184       -0.9662  -11.5172  -47.0809 H         1 UNK         0.3000 
    185 H185       -4.2409  -12.2363  -46.7187 H         1 UNK         0.0600 
    186 H186       -5.0108  -10.9011  -48.6684 H         1 UNK         0.0600 
    187 H187       -4.9148   -9.8880  -47.2391 H         1 UNK         0.0600 
    188 H188       -3.6592   -9.7846  -48.4669 H         1 UNK         0.0600 
    189 H189       -2.8110  -11.9849  -49.1501 H         1 UNK         0.3000 
    190 H190       -1.7826  -21.6684  -46.1921 H         1 UNK         0.3000 
    191 H191       -4.0533  -22.2013  -47.9059 H         1 UNK         0.0600 
    192 H192       -5.2729  -20.7715  -46.2682 H         1 UNK         0.0600 
    193 H193       -3.8071  -19.9999  -46.8470 H         1 UNK         0.0600 
    194 H194       -3.8459  -20.7154  -45.2388 H         1 UNK         0.0600 
    195 H195       -3.2149  -22.9921  -44.4852 H         1 UNK         0.3000 
    196 H196       -5.4859  -24.5454  -43.9196 H         1 UNK         0.0600 
    197 H197       -4.1418  -25.2978  -41.9398 H         1 UNK         0.0600 
    198 H198       -4.0406  -23.5601  -42.1773 H         1 UNK         0.0600 
    199 H199       -2.6953  -24.5939  -42.6556 H         1 UNK         0.0600 
    200 H200       -2.2832  -25.5801  -45.1591 H         1 UNK         0.3000 
    201 H201       -2.9268  -28.4056  -45.1896 H         1 UNK         0.0600 
    202 H202       -0.5935  -27.5247  -45.0033 H         1 UNK         0.0600 
    203 H203       -0.7201  -26.8205  -46.6146 H         1 UNK         0.0600 
    204 H204       -0.7657  -28.5667  -46.4069 H         1 UNK         0.0600 
    205 H205       -3.8981  -25.8252  -47.1859 H         1 UNK         0.3000 
    206 H206       -4.7746  -25.5091  -49.1716 H         1 UNK         0.0600 
    207 H207       -6.4093  -27.2513  -48.4168 H         1 UNK         0.0600 
    208 H208       -6.2257  -27.2225  -50.1624 H         1 UNK         0.0600 
    209 H209       -5.4541  -28.4940  -49.2254 H         1 UNK         0.0600 
    210 H210       -1.9492  -26.1098  -48.9959 H         1 UNK         0.3000 
    211 H211       -1.0806  -27.4826  -51.4006 H         1 UNK         0.0600 
    212 H212        0.4044  -25.5818  -49.5005 H         1 UNK         0.0600 
    213 H213        1.1490  -26.5814  -50.7413 H         1 UNK         0.0600 
    214 H214        0.3564  -27.3392  -49.3683 H         1 UNK         0.0600 
    215 H215       -1.6513  -24.1328  -50.3897 H         1 UNK         0.3000 
    216 H216       -1.5670  -23.2117  -53.2511 H         1 UNK         0.0600 
    217 H217       -1.1286  -20.9648  -52.3357 H         1 UNK         0.0600 
    218 H218        0.1281  -22.0674  -51.7880 H         1 UNK         0.0600 
    219 H219       -1.1709  -21.5792  -50.6944 H         1 UNK         0.0600 
    220 H220       -3.2985  -23.3087  -50.1708 H         1 UNK         0.3000 
    221 H221       -5.3848  -23.1225  -49.5402 H         1 UNK         0.0600 
    222 H222       -6.2834  -22.8446  -52.4456 H         1 UNK         0.0600 
    223 H223       -6.1044  -24.3602  -51.5617 H         1 UNK         0.0600 
    224 H224       -7.2993  -23.1762  -51.0540 H         1 UNK         0.0600 
    225 H225       -4.7824  -20.6740  -52.1315 H         1 UNK         0.3000 
    226 H226       -4.9216  -18.4662  -50.3350 H         1 UNK         0.0600 
    227 H227       -6.9773  -17.3790  -51.3500 H         1 UNK         0.0600 
    228 H228       -7.3278  -18.8681  -52.2169 H         1 UNK         0.0600 
    229 H229       -7.3995  -18.8247  -50.4561 H         1 UNK         0.0600 
    230 H230       -4.5795  -16.4414  -51.4889 H         1 UNK         0.3000 
    231 H231       -2.8508  -16.4601  -53.7035 H         1 UNK         0.0600 
    232 H232       -3.3640  -13.9248  -53.6234 H         1 UNK         0.0600 
    233 H233       -2.8507  -14.6361  -52.1072 H         1 UNK         0.0600 
    234 H234       -4.5554  -14.2813  -52.3873 H         1 UNK         0.0600 
    235 H235       -4.8566  -15.7971  -56.6672 H         1 UNK         0.3000 
    236 H236       -2.4353  -14.7512  -55.4861 H         1 UNK         0.0600 
    237 H237       -3.2476  -15.2972  -58.3822 H         1 UNK         0.0600 
    238 H238       -3.4945  -13.7848  -57.5088 H         1 UNK         0.0600 
    239 H239       -1.8677  -14.3390  -57.8598 H         1 UNK         0.0600 
    240 H240       -3.3885  -17.9095  -56.1419 H         1 UNK         0.3000 
    241 H241       -2.5439  -19.8545  -56.3964 H         1 UNK         0.0600 
    242 H242        0.2459  -18.8152  -59.0490 H         1 UNK         0.3800 
    243 H243       -0.5068  -17.6081  -58.0226 H         1 UNK         0.3800 
    244 H244       -0.8412  -20.6326  -54.8869 H         1 UNK         0.0800 
    245 H245       -1.8788  -19.5021  -54.1057 H         1 UNK         0.0800 
    246 H246       -0.4147  -16.5622  -53.4682 H         1 UNK         0.0800 
    247 H247       -1.2669  -17.8902  -52.7142 H         1 UNK         0.0800 
@<TRIPOS>BOND
     1    1    2 1    
     2    1  127 1    
     3    1  128 1    
     4    1  129 1    
     5    2    3 2    
     6    2    4 am   BACKBONE|DICT|INTERRES
     7    4    5 1    
     8    4  130 1    
     9    5    6 1    
    10    5   65 1    
    11    5  131 1    
    12    6    7 1    
    13    6  132 1    
    14    6  133 1    
    15    7    8 1    
    16    8    9 1    
    17    8  134 1    
    18    8  135 1    
    19    9   10 ar   
    20    9   14 ar   
    21   10   11 ar   
    22   10  136 1    
    23   11   12 ar   
    24   11  126 1    
    25   12   13 ar   
    26   12  137 1    
    27   13   14 ar   
    28   13   15 1    
    29   14  138 1    
    30   15   16 1    
    31   15  139 1    
    32   15  140 1    
    33   16   17 1    
    34   17   18 1    
    35   17  141 1    
    36   17  142 1    
    37   18   19 1    
    38   18   67 1    
    39   18  143 1    
    40   19   20 am   BACKBONE|DICT|INTERRES
    41   19  144 1    
    42   20   21 2    
    43   20   22 1    
    44   22   23 1    
    45   22   24 1    
    46   22  145 1    
    47   23  146 1    
    48   23  147 1    
    49   23  148 1    
    50   24   25 am   BACKBONE|DICT|INTERRES
    51   24  149 1    
    52   25   26 2    
    53   25   27 1    
    54   27   28 1    
    55   27   29 1    
    56   27  150 1    
    57   28  151 1    
    58   28  152 1    
    59   28  153 1    
    60   29   30 am   BACKBONE|DICT|INTERRES
    61   29  154 1    
    62   30   31 2    
    63   30   32 1    
    64   32   33 1    
    65   32   34 1    
    66   32  155 1    
    67   33  156 1    
    68   33  157 1    
    69   33  158 1    
    70   34   35 am   BACKBONE|DICT|INTERRES
    71   34  159 1    
    72   35   36 2    
    73   35   37 1    
    74   37   38 1    
    75   37   39 1    
    76   37  160 1    
    77   38  161 1    
    78   38  162 1    
    79   38  163 1    
    80   39   40 am   BACKBONE|DICT|INTERRES
    81   39  164 1    
    82   40   41 2    
    83   40   42 1    
    84   42   43 1    
    85   42   44 1    
    86   42  165 1    
    87   43  166 1    
    88   43  167 1    
    89   43  168 1    
    90   44   45 am   BACKBONE|DICT|INTERRES
    91   44  169 1    
    92   45   46 2    
    93   45   47 1    
    94   47   48 1    
    95   47   49 1    
    96   47  170 1    
    97   48  171 1    
    98   48  172 1    
    99   48  173 1    
   100   49   50 am   BACKBONE|DICT|INTERRES
   101   49  174 1    
   102   50   51 2    
   103   50   52 1    
   104   52   53 1    
   105   52   54 1    
   106   52  175 1    
   107   53  176 1    
   108   53  177 1    
   109   53  178 1    
   110   54   55 am   BACKBONE|DICT|INTERRES
   111   54  179 1    
   112   55   56 2    
   113   55   57 1    
   114   57   58 1    
   115   57   59 1    
   116   57  180 1    
   117   58  181 1    
   118   58  182 1    
   119   58  183 1    
   120   59   60 am   BACKBONE|DICT|INTERRES
   121   59  184 1    
   122   60   61 2    
   123   60   62 1    
   124   62   63 1    
   125   62   64 1    
   126   62  185 1    
   127   63  186 1    
   128   63  187 1    
   129   63  188 1    
   130   64   65 am   BACKBONE|DICT|INTERRES
   131   64  189 1    
   132   65   66 2    
   133   67   68 2    
   134   67   69 am   BACKBONE|DICT|INTERRES
   135   69   70 1    
   136   69  190 1    
   137   70   71 1    
   138   70   72 1    
   139   70  191 1    
   140   71  192 1    
   141   71  193 1    
   142   71  194 1    
   143   72   73 2    
   144   72   74 am   BACKBONE|DICT|INTERRES
   145   74   75 1    
   146   74  195 1    
   147   75   76 1    
   148   75   77 1    
   149   75  196 1    
   150   76  197 1    
   151   76  198 1    
   152   76  199 1    
   153   77   78 2    
   154   77   79 am   BACKBONE|DICT|INTERRES
   155   79   80 1    
   156   79  200 1    
   157   80   81 1    
   158   80   82 1    
   159   80  201 1    
   160   81  202 1    
   161   81  203 1    
   162   81  204 1    
   163   82   83 2    
   164   82   84 am   BACKBONE|DICT|INTERRES
   165   84   85 1    
   166   84  205 1    
   167   85   86 1    
   168   85   87 1    
   169   85  206 1    
   170   86  207 1    
   171   86  208 1    
   172   86  209 1    
   173   87   88 2    
   174   87   89 am   BACKBONE|DICT|INTERRES
   175   89   90 1    
   176   89  210 1    
   177   90   91 1    
   178   90   92 1    
   179   90  211 1    
   180   91  212 1    
   181   91  213 1    
   182   91  214 1    
   183   92   93 2    
   184   92   94 am   BACKBONE|DICT|INTERRES
   185   94   95 1    
   186   94  215 1    
   187   95   96 1    
   188   95   97 1    
   189   95  216 1    
   190   96  217 1    
   191   96  218 1    
   192   96  219 1    
   193   97   98 2    
   194   97   99 am   BACKBONE|DICT|INTERRES
   195   99  100 1    
   196   99  220 1    
   197  100  101 1    
   198  100  102 1    
   199  100  221 1    
   200  101  222 1    
   201  101  223 1    
   202  101  224 1    
   203  102  103 2    
   204  102  104 am   BACKBONE|DICT|INTERRES
   205  104  105 1    
   206  104  225 1    
   207  105  106 1    
   208  105  107 1    
   209  105  226 1    
   210  106  227 1    
   211  106  228 1    
   212  106  229 1    
   213  107  108 2    
   214  107  109 am   BACKBONE|DICT|INTERRES
   215  109  110 1    
   216  109  230 1    
   217  110  111 1    
   218  110  112 1    
   219  110  231 1    
   220  111  232 1    
   221  111  233 1    
   222  111  234 1    
   223  112  113 2    
   224  112  114 am   BACKBONE|DICT|INTERRES
   225  114  115 1    
   226  114  235 1    
   227  115  116 1    
   228  115  117 1    
   229  115  236 1    
   230  116  237 1    
   231  116  238 1    
   232  116  239 1    
   233  117  118 2    
   234  117  119 am   BACKBONE|DICT|INTERRES
   235  119  120 1    
   236  119  240 1    
   237  120  121 1    
   238  120  124 1    
   239  120  241 1    
   240  121  122 am   BACKBONE|DICT|INTERRES
   241  121  123 2    
   242  122  242 1    
   243  122  243 1    
   244  124  125 1    
   245  124  244 1    
   246  124  245 1    
   247  125  126 1    
   248  126  246 1    
   249  126  247 1    
@<TRIPOS>SUBSTRUCTURE
     1 UNK         1 GROUP             0       ****    0 ROOT    
