@<TRIPOS>MOLECULE
3R540
247   249    1
SMALL
USER_CHARGES


@<TRIPOS>ATOM
      1 CA         -2.9193   -9.6017  -41.0479 C.3       0 UNK        -0.1800 
      2 C          -1.9604   -9.9069  -42.1893 C.2       0 UNK         0.5000 
      3 O          -0.7472   -9.7813  -42.0223 O.2       0 UNK        -0.5000 
      4 N          -2.4963  -10.3166  -43.3471 N.am      1 UNK        -0.5000 
      5 CA         -1.7345  -10.6672  -44.5536 C.3       1 UNK         0.1400 
      6 C6         -2.6418  -10.8140  -45.8019 C.3       23 UNK        -0.0398 
      7 S7         -4.0535  -11.9642  -45.6065 S.3       23 UNK        -0.2404 
      8 C8         -3.3652  -13.4813  -46.3351 C.3       23 UNK        -0.0205 
      9 C9         -4.4206  -14.5553  -46.5313 C.ar      23 UNK        -0.0193 
     10 C10        -4.9023  -14.8379  -47.8124 C.ar      23 UNK        -0.1150 
     11 C11        -5.8327  -15.8610  -48.0094 C.ar      23 UNK        -0.0193 
     12 C12        -6.2751  -16.6074  -46.9148 C.ar      23 UNK        -0.1150 
     13 C13        -5.7941  -16.3435  -45.6290 C.ar      23 UNK        -0.0193 
     14 C14        -4.8821  -15.2991  -45.4411 C.ar      23 UNK        -0.1150 
     15 C15        -6.2676  -17.2025  -44.4606 C.3       23 UNK        -0.0205 
     16 S16        -4.9280  -17.8637  -43.4055 S.3       23 UNK        -0.2404 
     17 C17        -3.6131  -18.3567  -44.5749 C.3       23 UNK        -0.0398 
     18 CA         -4.0189  -19.3683  -45.6763 C.3       11 UNK         0.1400 
     19 N          -3.0429  -19.3698  -46.7714 N.am      11 UNK        -0.5000 
     20 C          -3.1643  -20.0333  -47.9306 C.2       10 UNK         0.5000 
     21 O          -4.1644  -20.6754  -48.2470 O.2       10 UNK        -0.5000 
     22 CA         -1.9463  -20.0111  -48.8763 C.3       10 UNK         0.1400 
     23 CB         -1.9383  -18.7500  -49.7521 C.3       10 UNK        -0.1800 
     24 N          -0.6790  -20.1120  -48.1500 N.am      10 UNK        -0.5000 
     25 C          -0.2611  -21.2249  -47.5299 C.2       9 UNK         0.5000 
     26 O          -0.8636  -22.2943  -47.5721 O.2       9 UNK        -0.5000 
     27 CA          1.0217  -21.1259  -46.6841 C.3       9 UNK         0.1400 
     28 CB          2.2684  -21.3521  -47.5479 C.3       9 UNK        -0.1800 
     29 N           1.1389  -19.8558  -45.9692 N.am      9 UNK        -0.5000 
     30 C           0.3047  -19.4584  -44.9984 C.2       8 UNK         0.5000 
     31 O          -0.6295  -20.1401  -44.5791 O.2       8 UNK        -0.5000 
     32 CA          0.5205  -18.0435  -44.4344 C.3       8 UNK         0.1400 
     33 CB          1.6631  -18.0484  -43.4090 C.3       8 UNK        -0.1800 
     34 N           0.7954  -17.0603  -45.4832 N.am      8 UNK        -0.5000 
     35 C          -0.0461  -16.7523  -46.4810 C.2       7 UNK         0.5000 
     36 O          -1.1799  -17.2148  -46.5824 O.2       7 UNK        -0.5000 
     37 CA          0.4863  -15.8226  -47.5833 C.3       7 UNK         0.1400 
     38 CB          0.3862  -14.3522  -47.1667 C.3       7 UNK        -0.1800 
     39 N           1.8700  -16.1330  -47.9301 N.am      7 UNK        -0.5000 
     40 C           2.2540  -17.2345  -48.5882 C.2       6 UNK         0.5000 
     41 O           1.4730  -18.0873  -49.0100 O.2       6 UNK        -0.5000 
     42 CA          3.7710  -17.4281  -48.7638 C.3       6 UNK         0.1400 
     43 CB          4.2750  -16.6713  -50.0015 C.3       6 UNK        -0.1800 
     44 N           4.5274  -16.9944  -47.5861 N.am      6 UNK        -0.5000 
     45 C           4.4826  -17.6154  -46.3994 C.2       5 UNK         0.5000 
     46 O           3.8202  -18.6309  -46.1879 O.2       5 UNK        -0.5000 
     47 CA          5.2793  -16.9747  -45.2477 C.3       5 UNK         0.1400 
     48 CB          6.7453  -17.4309  -45.2872 C.3       5 UNK        -0.1800 
     49 N           5.2255  -15.5086  -45.2284 N.am      5 UNK        -0.5000 
     50 C           4.1079  -14.7920  -45.0517 C.2       4 UNK         0.5000 
     51 O           2.9821  -15.2891  -44.9888 O.2       4 UNK        -0.5000 
     52 CA          4.2653  -13.2648  -44.9629 C.3       4 UNK         0.1400 
     53 CB          3.9167  -12.6053  -46.3057 C.3       4 UNK        -0.1800 
     54 N           3.3865  -12.7310  -43.9240 N.am      4 UNK        -0.5000 
     55 C           3.6802  -12.7232  -42.6149 C.2       3 UNK         0.5000 
     56 O           4.7790  -13.0454  -42.1610 O.2       3 UNK        -0.5000 
     57 CA          2.5567  -12.3003  -41.6444 C.3       3 UNK         0.1400 
     58 CB          2.6247  -10.7921  -41.3624 C.3       3 UNK        -0.1800 
     59 N           1.2265  -12.6301  -42.1550 N.am      3 UNK        -0.5000 
     60 C           0.7575  -13.8759  -42.3092 C.2       2 UNK         0.5000 
     61 O           1.3216  -14.8613  -41.8358 O.2       2 UNK        -0.5000 
     62 CA         -0.5378  -14.0650  -43.1327 C.3       2 UNK         0.1400 
     63 CB         -1.5313  -15.0076  -42.4326 C.3       2 UNK        -0.1800 
     64 N          -1.2331  -12.8209  -43.4760 N.am      2 UNK        -0.5000 
     65 C          -0.8254  -11.9005  -44.3621 C.2       1 UNK         0.5000 
     66 O           0.2367  -11.9752  -44.9793 O.2       1 UNK        -0.5000 
     67 C          -4.2373  -20.7880  -45.1119 C.2       11 UNK         0.5000 
     68 O          -5.3809  -21.2149  -44.9413 O.2       11 UNK        -0.5000 
     69 N          -3.1371  -21.5253  -44.9097 N.am      12 UNK        -0.5000 
     70 CA         -3.1097  -22.9552  -44.6107 C.3       12 UNK         0.1400 
     71 CB         -1.7603  -23.2949  -43.9533 C.3       12 UNK        -0.1800 
     72 C          -3.3657  -23.7823  -45.8878 C.2       12 UNK         0.5000 
     73 O          -2.4881  -24.5186  -46.3400 O.2       12 UNK        -0.5000 
     74 N          -4.5708  -23.6444  -46.4558 N.am      13 UNK        -0.5000 
     75 CA         -4.9915  -24.1826  -47.7554 C.3       13 UNK         0.1400 
     76 CB         -6.4190  -23.6981  -48.0497 C.3       13 UNK        -0.1800 
     77 C          -4.8898  -25.7152  -47.9179 C.2       13 UNK         0.5000 
     78 O          -4.9207  -26.2002  -49.0485 O.2       13 UNK        -0.5000 
     79 N          -4.7473  -26.4507  -46.8066 N.am      14 UNK        -0.5000 
     80 CA         -4.4103  -27.8752  -46.7890 C.3       14 UNK         0.1400 
     81 CB         -4.6090  -28.4197  -45.3664 C.3       14 UNK        -0.1800 
     82 C          -2.9738  -28.1565  -47.2809 C.2       14 UNK         0.5000 
     83 O          -2.7390  -29.2028  -47.8868 O.2       14 UNK        -0.5000 
     84 N          -2.0485  -27.2206  -47.0251 N.am      15 UNK        -0.5000 
     85 CA         -0.6816  -27.2303  -47.5442 C.3       15 UNK         0.1400 
     86 CB          0.2667  -26.5920  -46.5160 C.3       15 UNK        -0.1800 
     87 C          -0.6141  -26.4818  -48.8851 C.2       15 UNK         0.5000 
     88 O           0.0071  -26.9805  -49.8247 O.2       15 UNK        -0.5000 
     89 N          -1.2748  -25.3151  -48.9497 N.am      16 UNK        -0.5000 
     90 CA         -1.4716  -24.4227  -50.0996 C.3       16 UNK         0.1400 
     91 CB         -2.2032  -25.1432  -51.2497 C.3       16 UNK        -0.1800 
     92 C          -0.1980  -23.7322  -50.6224 C.2       16 UNK         0.5000 
     93 O          -0.2039  -22.5118  -50.7880 O.2       16 UNK        -0.5000 
     94 N           0.8464  -24.5226  -50.9073 N.am      17 UNK        -0.5000 
     95 CA          2.1316  -24.1907  -51.5378 C.3       17 UNK         0.1400 
     96 CB          2.9662  -23.2403  -50.6605 C.3       17 UNK        -0.1800 
     97 C           2.0030  -23.6603  -52.9801 C.2       17 UNK         0.5000 
     98 O           2.5768  -24.2461  -53.8994 O.2       17 UNK        -0.5000 
     99 N           1.2449  -22.5739  -53.1519 N.am      18 UNK        -0.5000 
    100 CA         0.8400  -22.0117  -54.4345 C.3       18 UNK         0.1400 
    101 CB         0.3605  -20.5712  -54.2031 C.3       18 UNK        -0.1800 
    102 C         -0.2767  -22.8560  -55.0736 C.2       18 UNK         0.5000 
    103 O         -1.0565  -23.4942  -54.3589 O.2       18 UNK        -0.5000 
    104 N         -0.3481  -22.8223  -56.4105 N.am      19 UNK        -0.5000 
    105 CA        -1.3574  -23.5092  -57.2170 C.3       19 UNK         0.1400 
    106 CB        -1.0395  -23.3076  -58.7074 C.3       19 UNK        -0.1800 
    107 C         -2.7779  -23.0209  -56.8771 C.2       19 UNK         0.5000 
    108 O         -3.0890  -21.8505  -57.1057 O.2       19 UNK        -0.5000 
    109 N         -3.5839  -23.9255  -56.3041 N.am      20 UNK        -0.5000 
    110 CA        -4.9358  -23.7014  -55.7786 C.3       20 UNK         0.1400 
    111 CB        -5.9163  -23.3234  -56.9095 C.3       20 UNK        -0.1800 
    112 C         -4.9834  -22.7174  -54.5875 C.2       20 UNK         0.5000 
    113 O         -6.0101  -22.0669  -54.3784 O.2       20 UNK        -0.5000 
    114 N         -3.8845  -22.6357  -53.8183 N.am      21 UNK        -0.5000 
    115 CA        -3.6956  -21.7855  -52.6390 C.3       21 UNK         0.1400 
    116 CB        -4.5804  -22.2847  -51.4724 C.3       21 UNK        -0.1800 
    117 C         -3.8951  -20.2948  -52.9866 C.2       21 UNK         0.5000 
    118 O         -3.0866  -19.7377  -53.7296 O.2       21 UNK        -0.5000 
    119 N         -4.9686  -19.6868  -52.4692 N.am      22 UNK        -0.5000 
    120 CA        -5.4051  -18.3199  -52.7945 C.3       22 UNK         0.1400 
    121 C         -6.0292  -18.1638  -54.2144 C.2       22 UNK         0.5000 
    122 N         -6.3550  -19.2323  -54.9326 N.am      22 UNK        -0.7600 
    123 O         -6.2199  -17.0424  -54.6772 O.2       22 UNK        -0.5000 
    124 C124       -6.3692  -17.7610  -51.7168 C.3       23 UNK        -0.0398 
    125 S125       -5.6046  -17.6875  -50.0623 S.3       23 UNK        -0.2404 
    126 C126       -6.3556  -16.1693  -49.4024 C.3       23 UNK        -0.0205 
    127 H127       -3.9582   -9.7618  -41.3372 H         1 UNK         0.0600 
    128 H128       -2.8095   -8.5638  -40.7336 H         1 UNK         0.0600 
    129 H129       -2.7011  -10.2427  -40.1938 H         1 UNK         0.0600 
    130 H130       -3.4997  -10.4085  -43.4276 H         1 UNK         0.3000 
    131 H131       -1.0609   -9.8301  -44.7501 H         1 UNK         0.0600 
    132 H132       -3.0619   -9.8368  -46.0436 H         1 UNK         0.0800 
    133 H133       -2.0527  -11.0909  -46.6782 H         1 UNK         0.0800 
    134 H134       -2.5833  -13.8759  -45.6869 H         1 UNK         0.0800 
    135 H135       -2.8927  -13.2439  -47.2894 H         1 UNK         0.0800 
    136 H136       -4.5452  -14.2681  -48.6588 H         1 UNK         0.1150 
    137 H137       -6.9841  -17.4080  -47.0732 H         1 UNK         0.1150 
    138 H138       -4.5070  -15.0852  -44.4503 H         1 UNK         0.1150 
    139 H139       -6.9389  -16.6080  -43.8400 H         1 UNK         0.0800 
    140 H140       -6.8579  -18.0462  -44.8218 H         1 UNK         0.0800 
    141 H141       -2.7764  -18.7398  -43.9904 H         1 UNK         0.0800 
    142 H142       -3.2400  -17.4423  -45.0340 H         1 UNK         0.0800 
    143 H143       -4.9637  -19.0496  -46.1169 H         1 UNK         0.0600 
    144 H144       -2.2141  -18.7981  -46.6328 H         1 UNK         0.3000 
    145 H145       -2.0255  -20.8756  -49.5384 H         1 UNK         0.0600 
    146 H146       -1.9123  -17.8396  -49.1527 H         1 UNK         0.0600 
    147 H147       -1.0760  -18.7389  -50.4191 H         1 UNK         0.0600 
    148 H148       -2.8300  -18.7078  -50.3771 H         1 UNK         0.0600 
    149 H149       -0.0974  -19.2833  -48.1179 H         1 UNK         0.3000 
    150 H150        0.9847  -21.9213  -45.9368 H         1 UNK         0.0600 
    151 H151        2.2285  -22.3352  -48.0150 H         1 UNK         0.0600 
    152 H152        3.1790  -21.3125  -46.9501 H         1 UNK         0.0600 
    153 H153        2.3529  -20.6094  -48.3415 H         1 UNK         0.0600 
    154 H154        1.9238  -19.2611  -46.2164 H         1 UNK         0.3000 
    155 H155       -0.3957  -17.7363  -43.9267 H         1 UNK         0.0600 
    156 H156        2.5913  -18.4269  -43.8358 H         1 UNK         0.0600 
    157 H157        1.8615  -17.0482  -43.0298 H         1 UNK         0.0600 
    158 H158        1.4152  -18.6790  -42.5547 H         1 UNK         0.0600 
    159 H159        1.6911  -16.5811  -45.4343 H         1 UNK         0.3000 
    160 H160       -0.1317  -15.9665  -48.4724 H         1 UNK         0.0600 
    161 H161       -0.6459  -14.0751  -46.9650 H         1 UNK         0.0600 
    162 H162        0.7521  -13.6893  -47.9507 H         1 UNK         0.0600 
    163 H163        0.9597  -14.1539  -46.2626 H         1 UNK         0.0600 
    164 H164        2.5789  -15.5110  -47.5723 H         1 UNK         0.3000 
    165 H165        3.9548  -18.4939  -48.9164 H         1 UNK         0.0600 
    166 H166        5.3343  -16.8614  -50.1753 H         1 UNK         0.0600 
    167 H167        3.7380  -16.9877  -50.8968 H         1 UNK         0.0600 
    168 H168        4.1388  -15.5938  -49.9003 H         1 UNK         0.0600 
    169 H169        5.0970  -16.1665  -47.6805 H         1 UNK         0.3000 
    170 H170        4.8409  -17.3307  -44.3131 H         1 UNK         0.0600 
    171 H171        6.8157  -18.5196  -45.2830 H         1 UNK         0.0600 
    172 H172        7.2560  -17.0723  -46.1818 H         1 UNK         0.0600 
    173 H173        7.2949  -17.0685  -44.4182 H         1 UNK         0.0600 
    174 H174        6.1115  -15.0275  -45.2866 H         1 UNK         0.3000 
    175 H175        5.3025  -13.0239  -44.7203 H         1 UNK         0.0600 
    176 H176        2.8767  -12.7754  -46.5838 H         1 UNK         0.0600 
    177 H177        4.0761  -11.5277  -46.2650 H         1 UNK         0.0600 
    178 H178        4.5418  -12.9959  -47.1096 H         1 UNK         0.0600 
    179 H179        2.4438  -12.4996  -44.2100 H         1 UNK         0.3000 
    180 H180        2.7075  -12.8338  -40.7036 H         1 UNK         0.0600 
    181 H181        2.4600  -10.2058  -42.2675 H         1 UNK         0.0600 
    182 H182        3.5995  -10.5126  -40.9608 H         1 UNK         0.0600 
    183 H183        1.8734  -10.4940  -40.6306 H         1 UNK         0.0600 
    184 H184        0.6895  -11.8660  -42.5412 H         1 UNK         0.3000 
    185 H185       -0.2342  -14.5430  -44.0660 H         1 UNK         0.0600 
    186 H186       -2.3958  -15.2097  -43.0653 H         1 UNK         0.0600 
    187 H187       -1.0716  -15.9701  -42.2051 H         1 UNK         0.0600 
    188 H188       -1.8908  -14.5850  -41.4938 H         1 UNK         0.0600 
    189 H189       -2.1012  -12.6475  -42.9903 H         1 UNK         0.3000 
    190 H190       -2.2309  -21.0865  -45.0505 H         1 UNK         0.3000 
    191 H191       -3.9017  -23.1881  -43.8964 H         1 UNK         0.0600 
    192 H192       -0.9242  -23.0796  -44.6201 H         1 UNK         0.0600 
    193 H193       -1.7075  -24.3518  -43.6895 H         1 UNK         0.0600 
    194 H194       -1.6122  -22.7216  -43.0381 H         1 UNK         0.0600 
    195 H195       -5.2067  -22.9845  -46.0216 H         1 UNK         0.3000 
    196 H196       -4.3291  -23.7455  -48.5050 H         1 UNK         0.0600 
    197 H197       -6.7562  -24.0396  -49.0293 H         1 UNK         0.0600 
    198 H198       -6.4702  -22.6088  -48.0536 H         1 UNK         0.0600 
    199 H199       -7.1286  -24.0671  -47.3083 H         1 UNK         0.0600 
    200 H200       -4.7444  -25.9707  -45.9192 H         1 UNK         0.3000 
    201 H201       -5.0994  -28.3982  -47.4554 H         1 UNK         0.0600 
    202 H202       -5.6387  -28.2880  -45.0335 H         1 UNK         0.0600 
    203 H203       -3.9565  -27.9203  -44.6490 H         1 UNK         0.0600 
    204 H204       -4.3884  -29.4871  -45.3231 H         1 UNK         0.0600 
    205 H205       -2.3387  -26.3574  -46.5735 H         1 UNK         0.3000 
    206 H206       -0.3555  -28.2593  -47.7102 H         1 UNK         0.0600 
    207 H207        0.2405  -27.1321  -45.5696 H         1 UNK         0.0600 
    208 H208        1.2969  -26.6109  -46.8737 H         1 UNK         0.0600 
    209 H209        0.0102  -25.5514  -46.3135 H         1 UNK         0.0600 
    210 H210       -1.6725  -24.9669  -48.0811 H         1 UNK         0.3000 
    211 H211       -2.1282  -23.6282  -49.7415 H         1 UNK         0.0600 
    212 H212       -1.6278  -25.9797  -51.6459 H         1 UNK         0.0600 
    213 H213       -2.3844  -24.4642  -52.0824 H         1 UNK         0.0600 
    214 H214       -3.1693  -25.5276  -50.9266 H         1 UNK         0.0600 
    215 H215        0.7063  -25.5121  -50.7150 H         1 UNK         0.3000 
    216 H216        2.6776  -25.1332  -51.6015 H         1 UNK         0.0600 
    217 H217        3.9295  -23.0271  -51.1253 H         1 UNK         0.0600 
    218 H218        3.1701  -23.6885  -49.6886 H         1 UNK         0.0600 
    219 H219        2.4660  -22.2854  -50.4978 H         1 UNK         0.0600 
    220 H220        0.7399  -22.2425  -52.3331 H         1 UNK         0.3000 
    221 H221        1.7027  -21.9961  -55.1037 H         1 UNK         0.0600 
    222 H222       -0.4721  -20.5361  -53.4994 H         1 UNK         0.0600 
    223 H223        1.1611  -19.9490  -53.8029 H         1 UNK         0.0600 
    224 H224        0.0236  -20.1118  -55.1332 H         1 UNK         0.0600 
    225 H225        0.3074  -22.2467  -56.9184 H         1 UNK         0.3000 
    226 H226       -1.2861  -24.5772  -57.0000 H         1 UNK         0.0600 
    227 H227       -0.0605  -23.7147  -58.9612 H         1 UNK         0.0600 
    228 H228       -1.7742  -23.8149  -59.3341 H         1 UNK         0.0600 
    229 H229       -1.0462  -22.2522  -58.9830 H         1 UNK         0.0600 
    230 H230       -3.2110  -24.8505  -56.1393 H         1 UNK         0.3000 
    231 H231       -5.2617  -24.6618  -55.3770 H         1 UNK         0.0600 
    232 H232       -6.9461  -23.3249  -56.5505 H         1 UNK         0.0600 
    233 H233       -5.8615  -24.0341  -57.7340 H         1 UNK         0.0600 
    234 H234       -5.7134  -22.3291  -57.3080 H         1 UNK         0.0600 
    235 H235       -3.0587  -23.1490  -54.1099 H         1 UNK         0.3000 
    236 H236       -2.6525  -21.8953  -52.3374 H         1 UNK         0.0600 
    237 H237       -4.3970  -21.7034  -50.5708 H         1 UNK         0.0600 
    238 H238       -4.3675  -23.3240  -51.2289 H         1 UNK         0.0600 
    239 H239       -5.6453  -22.2210  -51.6969 H         1 UNK         0.0600 
    240 H240       -5.5865  -20.2196  -51.8755 H         1 UNK         0.3000 
    241 H241       -4.5152  -17.6874  -52.7940 H         1 UNK         0.0600 
    242 H242       -6.7545  -19.1049  -55.8483 H         1 UNK         0.3800 
    243 H243       -6.2051  -20.1746  -54.5818 H         1 UNK         0.3800 
    244 H244       -6.6983  -16.7571  -51.9909 H         1 UNK         0.0800 
    245 H245       -7.2718  -18.3710  -51.6554 H         1 UNK         0.0800 
    246 H246       -6.1503  -15.3376  -50.0783 H         1 UNK         0.0800 
    247 H247       -7.4401  -16.2845  -49.3690 H         1 UNK         0.0800 
@<TRIPOS>BOND
     1    1    2 1    
     2    1  127 1    
     3    1  128 1    
     4    1  129 1    
     5    2    3 2    
     6    2    4 am   BACKBONE|DICT|INTERRES
     7    4    5 1    
     8    4  130 1    
     9    5    6 1    
    10    5   65 1    
    11    5  131 1    
    12    6    7 1    
    13    6  132 1    
    14    6  133 1    
    15    7    8 1    
    16    8    9 1    
    17    8  134 1    
    18    8  135 1    
    19    9   10 ar   
    20    9   14 ar   
    21   10   11 ar   
    22   10  136 1    
    23   11   12 ar   
    24   11  126 1    
    25   12   13 ar   
    26   12  137 1    
    27   13   14 ar   
    28   13   15 1    
    29   14  138 1    
    30   15   16 1    
    31   15  139 1    
    32   15  140 1    
    33   16   17 1    
    34   17   18 1    
    35   17  141 1    
    36   17  142 1    
    37   18   19 1    
    38   18   67 1    
    39   18  143 1    
    40   19   20 am   BACKBONE|DICT|INTERRES
    41   19  144 1    
    42   20   21 2    
    43   20   22 1    
    44   22   23 1    
    45   22   24 1    
    46   22  145 1    
    47   23  146 1    
    48   23  147 1    
    49   23  148 1    
    50   24   25 am   BACKBONE|DICT|INTERRES
    51   24  149 1    
    52   25   26 2    
    53   25   27 1    
    54   27   28 1    
    55   27   29 1    
    56   27  150 1    
    57   28  151 1    
    58   28  152 1    
    59   28  153 1    
    60   29   30 am   BACKBONE|DICT|INTERRES
    61   29  154 1    
    62   30   31 2    
    63   30   32 1    
    64   32   33 1    
    65   32   34 1    
    66   32  155 1    
    67   33  156 1    
    68   33  157 1    
    69   33  158 1    
    70   34   35 am   BACKBONE|DICT|INTERRES
    71   34  159 1    
    72   35   36 2    
    73   35   37 1    
    74   37   38 1    
    75   37   39 1    
    76   37  160 1    
    77   38  161 1    
    78   38  162 1    
    79   38  163 1    
    80   39   40 am   BACKBONE|DICT|INTERRES
    81   39  164 1    
    82   40   41 2    
    83   40   42 1    
    84   42   43 1    
    85   42   44 1    
    86   42  165 1    
    87   43  166 1    
    88   43  167 1    
    89   43  168 1    
    90   44   45 am   BACKBONE|DICT|INTERRES
    91   44  169 1    
    92   45   46 2    
    93   45   47 1    
    94   47   48 1    
    95   47   49 1    
    96   47  170 1    
    97   48  171 1    
    98   48  172 1    
    99   48  173 1    
   100   49   50 am   BACKBONE|DICT|INTERRES
   101   49  174 1    
   102   50   51 2    
   103   50   52 1    
   104   52   53 1    
   105   52   54 1    
   106   52  175 1    
   107   53  176 1    
   108   53  177 1    
   109   53  178 1    
   110   54   55 am   BACKBONE|DICT|INTERRES
   111   54  179 1    
   112   55   56 2    
   113   55   57 1    
   114   57   58 1    
   115   57   59 1    
   116   57  180 1    
   117   58  181 1    
   118   58  182 1    
   119   58  183 1    
   120   59   60 am   BACKBONE|DICT|INTERRES
   121   59  184 1    
   122   60   61 2    
   123   60   62 1    
   124   62   63 1    
   125   62   64 1    
   126   62  185 1    
   127   63  186 1    
   128   63  187 1    
   129   63  188 1    
   130   64   65 am   BACKBONE|DICT|INTERRES
   131   64  189 1    
   132   65   66 2    
   133   67   68 2    
   134   67   69 am   BACKBONE|DICT|INTERRES
   135   69   70 1    
   136   69  190 1    
   137   70   71 1    
   138   70   72 1    
   139   70  191 1    
   140   71  192 1    
   141   71  193 1    
   142   71  194 1    
   143   72   73 2    
   144   72   74 am   BACKBONE|DICT|INTERRES
   145   74   75 1    
   146   74  195 1    
   147   75   76 1    
   148   75   77 1    
   149   75  196 1    
   150   76  197 1    
   151   76  198 1    
   152   76  199 1    
   153   77   78 2    
   154   77   79 am   BACKBONE|DICT|INTERRES
   155   79   80 1    
   156   79  200 1    
   157   80   81 1    
   158   80   82 1    
   159   80  201 1    
   160   81  202 1    
   161   81  203 1    
   162   81  204 1    
   163   82   83 2    
   164   82   84 am   BACKBONE|DICT|INTERRES
   165   84   85 1    
   166   84  205 1    
   167   85   86 1    
   168   85   87 1    
   169   85  206 1    
   170   86  207 1    
   171   86  208 1    
   172   86  209 1    
   173   87   88 2    
   174   87   89 am   BACKBONE|DICT|INTERRES
   175   89   90 1    
   176   89  210 1    
   177   90   91 1    
   178   90   92 1    
   179   90  211 1    
   180   91  212 1    
   181   91  213 1    
   182   91  214 1    
   183   92   93 2    
   184   92   94 am   BACKBONE|DICT|INTERRES
   185   94   95 1    
   186   94  215 1    
   187   95   96 1    
   188   95   97 1    
   189   95  216 1    
   190   96  217 1    
   191   96  218 1    
   192   96  219 1    
   193   97   98 2    
   194   97   99 am   BACKBONE|DICT|INTERRES
   195   99  100 1    
   196   99  220 1    
   197  100  101 1    
   198  100  102 1    
   199  100  221 1    
   200  101  222 1    
   201  101  223 1    
   202  101  224 1    
   203  102  103 2    
   204  102  104 am   BACKBONE|DICT|INTERRES
   205  104  105 1    
   206  104  225 1    
   207  105  106 1    
   208  105  107 1    
   209  105  226 1    
   210  106  227 1    
   211  106  228 1    
   212  106  229 1    
   213  107  108 2    
   214  107  109 am   BACKBONE|DICT|INTERRES
   215  109  110 1    
   216  109  230 1    
   217  110  111 1    
   218  110  112 1    
   219  110  231 1    
   220  111  232 1    
   221  111  233 1    
   222  111  234 1    
   223  112  113 2    
   224  112  114 am   BACKBONE|DICT|INTERRES
   225  114  115 1    
   226  114  235 1    
   227  115  116 1    
   228  115  117 1    
   229  115  236 1    
   230  116  237 1    
   231  116  238 1    
   232  116  239 1    
   233  117  118 2    
   234  117  119 am   BACKBONE|DICT|INTERRES
   235  119  120 1    
   236  119  240 1    
   237  120  121 1    
   238  120  124 1    
   239  120  241 1    
   240  121  122 am   BACKBONE|DICT|INTERRES
   241  121  123 2    
   242  122  242 1    
   243  122  243 1    
   244  124  125 1    
   245  124  244 1    
   246  124  245 1    
   247  125  126 1    
   248  126  246 1    
   249  126  247 1    
@<TRIPOS>SUBSTRUCTURE
     1 UNK         1 GROUP             0       ****    0 ROOT    
