@<TRIPOS>MOLECULE
3R540
247   249    1
SMALL
USER_CHARGES


@<TRIPOS>ATOM
      1 CA          4.0321  -15.1707  -47.7323 C.3       0 UNK        -0.1800 
      2 C           3.0012  -14.2064  -47.1643 C.2       0 UNK         0.5000 
      3 O           3.3302  -13.3846  -46.3078 O.2       0 UNK        -0.5000 
      4 N           1.7475  -14.3166  -47.6184 N.am      1 UNK        -0.5000 
      5 CA          0.6385  -13.4469  -47.2190 C.3       1 UNK         0.1400 
      6 C6         -0.7564  -14.0448  -47.5643 C.3       23 UNK        -0.0398 
      7 S7         -0.8609  -14.8730  -49.1961 S.3       23 UNK        -0.2404 
      8 C8         -1.2604  -16.5938  -48.7413 C.3       23 UNK        -0.0205 
      9 C9         -0.4050  -17.5857  -49.5130 C.ar      23 UNK        -0.0193 
     10 C10        -0.8717  -18.1522  -50.7043 C.ar      23 UNK        -0.1150 
     11 C11        -0.0749  -19.0539  -51.4175 C.ar      23 UNK        -0.0193 
     12 C12         1.1873  -19.3941  -50.9263 C.ar      23 UNK        -0.1150 
     13 C13         1.6588  -18.8448  -49.7329 C.ar      23 UNK        -0.0193 
     14 C14         0.8586  -17.9394  -49.0297 C.ar      23 UNK        -0.1150 
     15 C15         3.0394  -19.2259  -49.2205 C.3       23 UNK        -0.0205 
     16 S16         3.0902  -20.9399  -48.6060 S.3       23 UNK        -0.2404 
     17 C17         2.0722  -20.7985  -47.1033 C.3       23 UNK        -0.0398 
     18 CA          1.0793  -21.9668  -46.9099 C.3       11 UNK         0.1400 
     19 N           0.6827  -22.0698  -45.5040 N.am      11 UNK        -0.5000 
     20 C          -0.0437  -23.0589  -44.9698 C.2       10 UNK         0.5000 
     21 O          -0.4288  -24.0445  -45.5984 O.2       10 UNK        -0.5000 
     22 CA         -0.4401  -22.8888  -43.4923 C.3       10 UNK         0.1400 
     23 CB          0.6847  -23.3688  -42.5631 C.3       10 UNK        -0.1800 
     24 N          -0.7816  -21.5008  -43.1741 N.am      10 UNK        -0.5000 
     25 C          -1.8914  -20.8822  -43.6023 C.2       9 UNK         0.5000 
     26 O          -2.7592  -21.4313  -44.2808 O.2       9 UNK        -0.5000 
     27 CA         -2.0276  -19.3866  -43.2573 C.3       9 UNK         0.1400 
     28 CB         -2.4710  -19.2014  -41.7985 C.3       9 UNK        -0.1800 
     29 N          -0.7910  -18.6385  -43.4869 N.am      9 UNK        -0.5000 
     30 C          -0.1889  -18.5151  -44.6776 C.2       8 UNK         0.5000 
     31 O          -0.6512  -18.9562  -45.7252 O.2       8 UNK        -0.5000 
     32 CA          1.1807  -17.8229  -44.7126 C.3       8 UNK         0.1400 
     33 CB          1.0088  -16.3253  -44.9662 C.3       8 UNK        -0.1800 
     34 N           1.9715  -18.0311  -43.5053 N.am      8 UNK        -0.5000 
     35 C           2.3996  -19.2152  -43.0489 C.2       7 UNK         0.5000 
     36 O           2.1413  -20.2912  -43.5904 O.2       7 UNK        -0.5000 
     37 CA          3.2331  -19.1826  -41.7589 C.3       7 UNK         0.1400 
     38 CB          4.7064  -18.8882  -42.0791 C.3       7 UNK        -0.1800 
     39 N           2.7276  -18.1666  -40.8353 N.am      7 UNK        -0.5000 
     40 C           1.7428  -18.3725  -39.9521 C.2       6 UNK         0.5000 
     41 O           1.2026  -19.4645  -39.7721 O.2       6 UNK        -0.5000 
     42 CA          1.2681  -17.1492  -39.1430 C.3       6 UNK         0.1400 
     43 CB          2.1359  -16.9628  -37.8892 C.3       6 UNK        -0.1800 
     44 N           1.2565  -15.9004  -39.9100 N.am      6 UNK        -0.5000 
     45 C           0.4580  -15.6614  -40.9594 C.2       5 UNK         0.5000 
     46 O          -0.3325  -16.4863  -41.4188 O.2       5 UNK        -0.5000 
     47 CA          0.5752  -14.2746  -41.6250 C.3       5 UNK         0.1400 
     48 CB         -0.1711  -13.2255  -40.7863 C.3       5 UNK        -0.1800 
     49 N           1.9322  -13.7833  -41.9073 N.am      5 UNK        -0.5000 
     50 C           2.9963  -14.4755  -42.3433 C.2       4 UNK         0.5000 
     51 O           3.0340  -15.7030  -42.4193 O.2       4 UNK        -0.5000 
     52 CA          4.2186  -13.6542  -42.7909 C.3       4 UNK         0.1400 
     53 CB          5.2287  -14.4983  -43.5907 C.3       4 UNK        -0.1800 
     54 N           3.8085  -12.5136  -43.6114 N.am      4 UNK        -0.5000 
     55 C           3.7456  -11.2478  -43.1840 C.2       3 UNK         0.5000 
     56 O           3.9731  -10.9073  -42.0225 O.2       3 UNK        -0.5000 
     57 CA          3.3559  -10.1795  -44.2218 C.3       3 UNK         0.1400 
     58 CB          4.5607   -9.8270  -45.1080 C.3       3 UNK        -0.1800 
     59 N           2.2218  -10.5367  -45.0773 N.am      3 UNK        -0.5000 
     60 C           0.9739  -10.7900  -44.6576 C.2       2 UNK         0.5000 
     61 O           0.6603  -10.8859  -43.4717 O.2       2 UNK        -0.5000 
     62 CA         -0.1243  -10.9195  -45.7360 C.3       2 UNK         0.1400 
     63 CB         -1.0962   -9.7328  -45.6395 C.3       2 UNK        -0.1800 
     64 N           0.4144  -10.9550  -47.1020 N.am      2 UNK        -0.5000 
     65 C           0.8119  -12.0244  -47.8073 C.2       1 UNK         0.5000 
     66 O           1.2955  -11.8942  -48.9326 O.2       1 UNK        -0.5000 
     67 C          -0.1472  -21.8719  -47.8487 C.2       11 UNK         0.5000 
     68 O          -0.2070  -22.5853  -48.8503 O.2       11 UNK        -0.5000 
     69 N          -1.1347  -21.0477  -47.4695 N.am      12 UNK        -0.5000 
     70 CA         -2.4260  -20.9259  -48.1402 C.3       12 UNK         0.1400 
     71 CB         -3.2098  -19.7377  -47.5665 C.3       12 UNK        -0.1800 
     72 C          -3.2598  -22.2099  -48.0332 C.2       12 UNK         0.5000 
     73 O          -3.8395  -22.6257  -49.0346 O.2       12 UNK        -0.5000 
     74 N          -3.2947  -22.8358  -46.8469 N.am      13 UNK        -0.5000 
     75 CA         -3.9900  -24.1035  -46.5986 C.3       13 UNK         0.1400 
     76 CB         -3.9292  -24.4596  -45.1067 C.3       13 UNK        -0.1800 
     77 C          -3.4560  -25.2612  -47.4629 C.2       13 UNK         0.5000 
     78 O          -4.2521  -26.0398  -47.9882 O.2       13 UNK        -0.5000 
     79 N          -2.1309  -25.3072  -47.6618 N.am      14 UNK        -0.5000 
     80 CA         -1.4532  -26.2267  -48.5812 C.3       14 UNK         0.1400 
     81 CB          0.0643  -26.1365  -48.3612 C.3       14 UNK        -0.1800 
     82 C          -1.8096  -25.9885  -50.0654 C.2       14 UNK         0.5000 
     83 O          -1.7376  -26.9249  -50.8612 O.2       14 UNK        -0.5000 
     84 N          -2.2319  -24.7622  -50.4005 N.am      15 UNK        -0.5000 
     85 CA         -2.7715  -24.3590  -51.6995 C.3       15 UNK         0.1400 
     86 CB         -2.2465  -22.9526  -52.0433 C.3       15 UNK        -0.1800 
     87 C          -4.3155  -24.4221  -51.7278 C.2       15 UNK         0.5000 
     88 O          -4.9351  -23.7272  -52.5354 O.2       15 UNK        -0.5000 
     89 N          -4.9195  -25.2392  -50.8513 N.am      16 UNK        -0.5000 
     90 CA         -6.3592  -25.4924  -50.7157 C.3       16 UNK         0.1400 
     91 CB         -6.9176  -26.1680  -51.9868 C.3       16 UNK        -0.1800 
     92 C          -7.1561  -24.2396  -50.2951 C.2       16 UNK         0.5000 
     93 O          -8.2463  -23.9986  -50.8128 O.2       16 UNK        -0.5000 
     94 N          -6.5784  -23.4646  -49.3664 N.am      17 UNK        -0.5000 
     95 CA         -7.0262  -22.1482  -48.8948 C.3       17 UNK         0.1400 
     96 CB         -8.4330  -22.2070  -48.2627 C.3       17 UNK        -0.1800 
     97 C          -6.8796  -21.0794  -49.9971 C.2       17 UNK         0.5000 
     98 O          -7.7806  -20.2637  -50.1987 O.2       17 UNK        -0.5000 
     99 N          -5.7293  -21.1276  -50.6873 N.am      18 UNK        -0.5000 
    100 CA        -5.3301  -20.3053  -51.8335 C.3       18 UNK         0.1400 
    101 CB        -5.0282  -18.8606  -51.3861 C.3       18 UNK        -0.1800 
    102 C         -6.3356  -20.3943  -53.0025 C.2       18 UNK         0.5000 
    103 O         -6.7922  -19.3700  -53.5150 O.2       18 UNK        -0.5000 
    104 N         -6.6775  -21.6333  -53.3762 N.am      19 UNK        -0.5000 
    105 CA        -7.6028  -21.9628  -54.4602 C.3       19 UNK         0.1400 
    106 CB        -8.8191  -22.7022  -53.8838 C.3       19 UNK        -0.1800 
    107 C         -6.9242  -22.8154  -55.5441 C.2       19 UNK         0.5000 
    108 O         -7.2530  -22.6599  -56.7207 O.2       19 UNK        -0.5000 
    109 N         -5.9844  -23.6873  -55.1495 N.am      20 UNK        -0.5000 
    110 CA        -5.1854  -24.5077  -56.0639 C.3       20 UNK         0.1400 
    111 CB        -4.6734  -25.7476  -55.3145 C.3       20 UNK        -0.1800 
    112 C         -4.0084  -23.7194  -56.6691 C.2       20 UNK         0.5000 
    113 O         -3.5059  -24.0930  -57.7296 O.2       20 UNK        -0.5000 
    114 N         -3.6014  -22.6419  -55.9915 N.am      21 UNK        -0.5000 
    115 CA        -2.5812  -21.6907  -56.4047 C.3       21 UNK         0.1400 
    116 CB        -1.1872  -22.2111  -56.0110 C.3       21 UNK        -0.1800 
    117 C         -2.8848  -20.3515  -55.7216 C.2       21 UNK         0.5000 
    118 O         -3.5730  -20.3326  -54.6988 O.2       21 UNK        -0.5000 
    119 N         -2.3434  -19.2669  -56.2854 N.am      22 UNK        -0.5000 
    120 CA        -2.4236  -17.8856  -55.7680 C.3       22 UNK         0.1400 
    121 C         -3.8179  -17.2041  -55.9229 C.2       22 UNK         0.5000 
    122 N         -4.7457  -17.7596  -56.6925 N.am      22 UNK        -0.7600 
    123 O         -4.0540  -16.1348  -55.3669 O.2       22 UNK        -0.5000 
    124 C124       -1.8461  -17.7130  -54.3314 C.3       23 UNK        -0.0398 
    125 S125       -0.2167  -18.5129  -54.1120 S.3       23 UNK        -0.2404 
    126 C126       -0.5525  -19.6505  -52.7305 C.3       23 UNK        -0.0205 
    127 H127        4.8667  -14.6167  -48.1615 H         1 UNK         0.0600 
    128 H128        3.6073  -15.8050  -48.5108 H         1 UNK         0.0600 
    129 H129        4.4177  -15.8138  -46.9413 H         1 UNK         0.0600 
    130 H130        1.5339  -14.9622  -48.3653 H         1 UNK         0.3000 
    131 H131        0.7037  -13.3859  -46.1326 H         1 UNK         0.0600 
    132 H132       -1.5297  -13.2750  -47.5297 H         1 UNK         0.0800 
    133 H133       -1.0464  -14.7455  -46.7829 H         1 UNK         0.0800 
    134 H134       -2.3181  -16.7702  -48.9417 H         1 UNK         0.0800 
    135 H135       -1.1227  -16.7673  -47.6738 H         1 UNK         0.0800 
    136 H136       -1.8454  -17.8791  -51.0853 H         1 UNK         0.1150 
    137 H137        1.8086  -20.0885  -51.4746 H         1 UNK         0.1150 
    138 H138        1.2177  -17.5067  -48.1070 H         1 UNK         0.1150 
    139 H139        3.7621  -19.1206  -50.0310 H         1 UNK         0.0800 
    140 H140        3.3656  -18.5466  -48.4313 H         1 UNK         0.0800 
    141 H141        1.5402  -19.8495  -47.0965 H         1 UNK         0.0800 
    142 H142        2.7688  -20.7561  -46.2646 H         1 UNK         0.0800 
    143 H143        1.5990  -22.8969  -47.1502 H         1 UNK         0.0600 
    144 H144        0.9948  -21.3259  -44.8885 H         1 UNK         0.3000 
    145 H145       -1.3188  -23.5092  -43.3061 H         1 UNK         0.0600 
    146 H146        0.3884  -23.2972  -41.5165 H         1 UNK         0.0600 
    147 H147        1.5967  -22.7856  -42.6935 H         1 UNK         0.0600 
    148 H148        0.9326  -24.4125  -42.7602 H         1 UNK         0.0600 
    149 H149       -0.0910  -20.9662  -42.6665 H         1 UNK         0.3000 
    150 H150       -2.7984  -18.9656  -43.9061 H         1 UNK         0.0600 
    151 H151       -1.7107  -19.5504  -41.0982 H         1 UNK         0.0600 
    152 H152       -3.3883  -19.7550  -41.5942 H         1 UNK         0.0600 
    153 H153       -2.6689  -18.1521  -41.5788 H         1 UNK         0.0600 
    154 H154       -0.3808  -18.1728  -42.6849 H         1 UNK         0.3000 
    155 H155        1.7527  -18.2366  -45.5427 H         1 UNK         0.0600 
    156 H156        0.5525  -16.1647  -45.9403 H         1 UNK         0.0600 
    157 H157        1.9669  -15.8076  -44.9610 H         1 UNK         0.0600 
    158 H158        0.3660  -15.8619  -44.2203 H         1 UNK         0.0600 
    159 H159        2.2712  -17.1905  -43.0149 H         1 UNK         0.3000 
    160 H160        3.1760  -20.1685  -41.2926 H         1 UNK         0.0600 
    161 H161        4.8313  -17.9121  -42.5500 H         1 UNK         0.0600 
    162 H162        5.1144  -19.6363  -42.7599 H         1 UNK         0.0600 
    163 H163        5.3156  -18.9038  -41.1753 H         1 UNK         0.0600 
    164 H164        3.0562  -17.2195  -40.9831 H         1 UNK         0.3000 
    165 H165        0.2444  -17.3494  -38.8196 H         1 UNK         0.0600 
    166 H166        1.7530  -16.1590  -37.2601 H         1 UNK         0.0600 
    167 H167        2.1475  -17.8702  -37.2837 H         1 UNK         0.0600 
    168 H168        3.1692  -16.7262  -38.1461 H         1 UNK         0.0600 
    169 H169        1.8932  -15.1752  -39.6143 H         1 UNK         0.3000 
    170 H170        0.0652  -14.3369  -42.5863 H         1 UNK         0.0600 
    171 H171        0.3280  -13.0425  -39.8341 H         1 UNK         0.0600 
    172 H172       -0.2431  -12.2745  -41.3136 H         1 UNK         0.0600 
    173 H173       -1.1898  -13.5489  -40.5672 H         1 UNK         0.0600 
    174 H174        2.0293  -12.7773  -41.8946 H         1 UNK         0.3000 
    175 H175        4.7212  -13.3132  -41.8839 H         1 UNK         0.0600 
    176 H176        4.7729  -14.9363  -44.4791 H         1 UNK         0.0600 
    177 H177        6.0780  -13.8959  -43.9130 H         1 UNK         0.0600 
    178 H178        5.6228  -15.3163  -42.9864 H         1 UNK         0.0600 
    179 H179        3.5821  -12.7199  -44.5832 H         1 UNK         0.3000 
    180 H180        3.0723   -9.2812  -43.6693 H         1 UNK         0.0600 
    181 H181        4.3355   -8.9869  -45.7652 H         1 UNK         0.0600 
    182 H182        4.8606  -10.6706  -45.7315 H         1 UNK         0.0600 
    183 H183        5.4226   -9.5426  -44.5029 H         1 UNK         0.0600 
    184 H184        2.3903  -10.5138  -46.0723 H         1 UNK         0.3000 
    185 H185       -0.7026  -11.8194  -45.5240 H         1 UNK         0.0600 
    186 H186       -0.5918   -8.7820  -45.8166 H         1 UNK         0.0600 
    187 H187       -1.9040   -9.8244  -46.3659 H         1 UNK         0.0600 
    188 H188       -1.5564   -9.6805  -44.6517 H         1 UNK         0.0600 
    189 H189        0.5213  -10.0491  -47.5352 H         1 UNK         0.3000 
    190 H190       -0.9870  -20.4336  -46.6707 H         1 UNK         0.3000 
    191 H191       -2.2370  -20.7313  -49.1981 H         1 UNK         0.0600 
    192 H192       -2.6512  -18.8107  -47.6759 H         1 UNK         0.0600 
    193 H193       -3.4251  -19.8694  -46.5056 H         1 UNK         0.0600 
    194 H194       -4.1613  -19.6091  -48.0841 H         1 UNK         0.0600 
    195 H195       -2.8403  -22.4029  -46.0490 H         1 UNK         0.3000 
    196 H196       -5.0394  -23.9557  -46.8602 H         1 UNK         0.0600 
    197 H197       -4.3653  -23.6707  -44.4940 H         1 UNK         0.0600 
    198 H198       -2.9058  -24.6203  -44.7705 H         1 UNK         0.0600 
    199 H199       -4.4870  -25.3743  -44.9024 H         1 UNK         0.0600 
    200 H200       -1.5407  -24.6593  -47.1481 H         1 UNK         0.3000 
    201 H201       -1.7714  -27.2404  -48.3294 H         1 UNK         0.0600 
    202 H202        0.3272  -26.3643  -47.3280 H         1 UNK         0.0600 
    203 H203        0.4470  -25.1424  -48.5913 H         1 UNK         0.0600 
    204 H204        0.5942  -26.8471  -48.9966 H         1 UNK         0.0600 
    205 H205       -2.2754  -24.0572  -49.6753 H         1 UNK         0.3000 
    206 H206       -2.4162  -25.0421  -52.4730 H         1 UNK         0.0600 
    207 H207       -1.1568  -22.9361  -52.0659 H         1 UNK         0.0600 
    208 H208       -2.5720  -22.2082  -51.3176 H         1 UNK         0.0600 
    209 H209       -2.5949  -22.6272  -53.0239 H         1 UNK         0.0600 
    210 H210       -4.3376  -25.7237  -50.1795 H         1 UNK         0.3000 
    211 H211       -6.4644  -26.2039  -49.8955 H         1 UNK         0.0600 
    212 H212       -6.9110  -25.4948  -52.8438 H         1 UNK         0.0600 
    213 H213       -7.9483  -26.4908  -51.8361 H         1 UNK         0.0600 
    214 H214       -6.3372  -27.0518  -52.2511 H         1 UNK         0.0600 
    215 H215       -5.6399  -23.7159  -49.0810 H         1 UNK         0.3000 
    216 H216       -6.3358  -21.8587  -48.1016 H         1 UNK         0.0600 
    217 H217       -8.6759  -21.2633  -47.7734 H         1 UNK         0.0600 
    218 H218       -8.4932  -22.9896  -47.5065 H         1 UNK         0.0600 
    219 H219       -9.2097  -22.3943  -49.0042 H         1 UNK         0.0600 
    220 H220       -5.0588  -21.8342  -50.4040 H         1 UNK         0.3000 
    221 H221       -4.3971  -20.7322  -52.2020 H         1 UNK         0.0600 
    222 H222       -5.9176  -18.3617  -51.0005 H         1 UNK         0.0600 
    223 H223       -4.2664  -18.8413  -50.6069 H         1 UNK         0.0600 
    224 H224       -4.6542  -18.2662  -52.2204 H         1 UNK         0.0600 
    225 H225       -6.2233  -22.4119  -52.9073 H         1 UNK         0.3000 
    226 H226       -7.9603  -21.0519  -54.9445 H         1 UNK         0.0600 
    227 H227       -9.3030  -22.1166  -53.1016 H         1 UNK         0.0600 
    228 H228       -9.5628  -22.8929  -54.6583 H         1 UNK         0.0600 
    229 H229       -8.5387  -23.6645  -53.4553 H         1 UNK         0.0600 
    230 H230       -5.7347  -23.7475  -54.1657 H         1 UNK         0.3000 
    231 H231       -5.8199  -24.8469  -56.8854 H         1 UNK         0.0600 
    232 H232       -4.1464  -26.4202  -55.9923 H         1 UNK         0.0600 
    233 H233       -3.9795  -25.4800  -54.5181 H         1 UNK         0.0600 
    234 H234       -5.4948  -26.3109  -54.8717 H         1 UNK         0.0600 
    235 H235       -4.0981  -22.3683  -55.1527 H         1 UNK         0.3000 
    236 H236       -2.6330  -21.5499  -57.4864 H         1 UNK         0.0600 
    237 H237       -1.0998  -22.3523  -54.9335 H         1 UNK         0.0600 
    238 H238       -0.9694  -23.1645  -56.4922 H         1 UNK         0.0600 
    239 H239       -0.4078  -21.5101  -56.3123 H         1 UNK         0.0600 
    240 H240       -1.7936  -19.3790  -57.1250 H         1 UNK         0.3000 
    241 H241       -1.7748  -17.3110  -56.4298 H         1 UNK         0.0600 
    242 H242       -5.6418  -17.3093  -56.7917 H         1 UNK         0.3800 
    243 H243       -4.5671  -18.6323  -57.1617 H         1 UNK         0.3800 
    244 H244       -2.5541  -18.0915  -53.5940 H         1 UNK         0.0800 
    245 H245       -1.7221  -16.6536  -54.1016 H         1 UNK         0.0800 
    246 H246       -0.0335  -20.5906  -52.9236 H         1 UNK         0.0800 
    247 H247       -1.6111  -19.9064  -52.6714 H         1 UNK         0.0800 
@<TRIPOS>BOND
     1    1    2 1    
     2    1  127 1    
     3    1  128 1    
     4    1  129 1    
     5    2    3 2    
     6    2    4 am   BACKBONE|DICT|INTERRES
     7    4    5 1    
     8    4  130 1    
     9    5    6 1    
    10    5   65 1    
    11    5  131 1    
    12    6    7 1    
    13    6  132 1    
    14    6  133 1    
    15    7    8 1    
    16    8    9 1    
    17    8  134 1    
    18    8  135 1    
    19    9   10 ar   
    20    9   14 ar   
    21   10   11 ar   
    22   10  136 1    
    23   11   12 ar   
    24   11  126 1    
    25   12   13 ar   
    26   12  137 1    
    27   13   14 ar   
    28   13   15 1    
    29   14  138 1    
    30   15   16 1    
    31   15  139 1    
    32   15  140 1    
    33   16   17 1    
    34   17   18 1    
    35   17  141 1    
    36   17  142 1    
    37   18   19 1    
    38   18   67 1    
    39   18  143 1    
    40   19   20 am   BACKBONE|DICT|INTERRES
    41   19  144 1    
    42   20   21 2    
    43   20   22 1    
    44   22   23 1    
    45   22   24 1    
    46   22  145 1    
    47   23  146 1    
    48   23  147 1    
    49   23  148 1    
    50   24   25 am   BACKBONE|DICT|INTERRES
    51   24  149 1    
    52   25   26 2    
    53   25   27 1    
    54   27   28 1    
    55   27   29 1    
    56   27  150 1    
    57   28  151 1    
    58   28  152 1    
    59   28  153 1    
    60   29   30 am   BACKBONE|DICT|INTERRES
    61   29  154 1    
    62   30   31 2    
    63   30   32 1    
    64   32   33 1    
    65   32   34 1    
    66   32  155 1    
    67   33  156 1    
    68   33  157 1    
    69   33  158 1    
    70   34   35 am   BACKBONE|DICT|INTERRES
    71   34  159 1    
    72   35   36 2    
    73   35   37 1    
    74   37   38 1    
    75   37   39 1    
    76   37  160 1    
    77   38  161 1    
    78   38  162 1    
    79   38  163 1    
    80   39   40 am   BACKBONE|DICT|INTERRES
    81   39  164 1    
    82   40   41 2    
    83   40   42 1    
    84   42   43 1    
    85   42   44 1    
    86   42  165 1    
    87   43  166 1    
    88   43  167 1    
    89   43  168 1    
    90   44   45 am   BACKBONE|DICT|INTERRES
    91   44  169 1    
    92   45   46 2    
    93   45   47 1    
    94   47   48 1    
    95   47   49 1    
    96   47  170 1    
    97   48  171 1    
    98   48  172 1    
    99   48  173 1    
   100   49   50 am   BACKBONE|DICT|INTERRES
   101   49  174 1    
   102   50   51 2    
   103   50   52 1    
   104   52   53 1    
   105   52   54 1    
   106   52  175 1    
   107   53  176 1    
   108   53  177 1    
   109   53  178 1    
   110   54   55 am   BACKBONE|DICT|INTERRES
   111   54  179 1    
   112   55   56 2    
   113   55   57 1    
   114   57   58 1    
   115   57   59 1    
   116   57  180 1    
   117   58  181 1    
   118   58  182 1    
   119   58  183 1    
   120   59   60 am   BACKBONE|DICT|INTERRES
   121   59  184 1    
   122   60   61 2    
   123   60   62 1    
   124   62   63 1    
   125   62   64 1    
   126   62  185 1    
   127   63  186 1    
   128   63  187 1    
   129   63  188 1    
   130   64   65 am   BACKBONE|DICT|INTERRES
   131   64  189 1    
   132   65   66 2    
   133   67   68 2    
   134   67   69 am   BACKBONE|DICT|INTERRES
   135   69   70 1    
   136   69  190 1    
   137   70   71 1    
   138   70   72 1    
   139   70  191 1    
   140   71  192 1    
   141   71  193 1    
   142   71  194 1    
   143   72   73 2    
   144   72   74 am   BACKBONE|DICT|INTERRES
   145   74   75 1    
   146   74  195 1    
   147   75   76 1    
   148   75   77 1    
   149   75  196 1    
   150   76  197 1    
   151   76  198 1    
   152   76  199 1    
   153   77   78 2    
   154   77   79 am   BACKBONE|DICT|INTERRES
   155   79   80 1    
   156   79  200 1    
   157   80   81 1    
   158   80   82 1    
   159   80  201 1    
   160   81  202 1    
   161   81  203 1    
   162   81  204 1    
   163   82   83 2    
   164   82   84 am   BACKBONE|DICT|INTERRES
   165   84   85 1    
   166   84  205 1    
   167   85   86 1    
   168   85   87 1    
   169   85  206 1    
   170   86  207 1    
   171   86  208 1    
   172   86  209 1    
   173   87   88 2    
   174   87   89 am   BACKBONE|DICT|INTERRES
   175   89   90 1    
   176   89  210 1    
   177   90   91 1    
   178   90   92 1    
   179   90  211 1    
   180   91  212 1    
   181   91  213 1    
   182   91  214 1    
   183   92   93 2    
   184   92   94 am   BACKBONE|DICT|INTERRES
   185   94   95 1    
   186   94  215 1    
   187   95   96 1    
   188   95   97 1    
   189   95  216 1    
   190   96  217 1    
   191   96  218 1    
   192   96  219 1    
   193   97   98 2    
   194   97   99 am   BACKBONE|DICT|INTERRES
   195   99  100 1    
   196   99  220 1    
   197  100  101 1    
   198  100  102 1    
   199  100  221 1    
   200  101  222 1    
   201  101  223 1    
   202  101  224 1    
   203  102  103 2    
   204  102  104 am   BACKBONE|DICT|INTERRES
   205  104  105 1    
   206  104  225 1    
   207  105  106 1    
   208  105  107 1    
   209  105  226 1    
   210  106  227 1    
   211  106  228 1    
   212  106  229 1    
   213  107  108 2    
   214  107  109 am   BACKBONE|DICT|INTERRES
   215  109  110 1    
   216  109  230 1    
   217  110  111 1    
   218  110  112 1    
   219  110  231 1    
   220  111  232 1    
   221  111  233 1    
   222  111  234 1    
   223  112  113 2    
   224  112  114 am   BACKBONE|DICT|INTERRES
   225  114  115 1    
   226  114  235 1    
   227  115  116 1    
   228  115  117 1    
   229  115  236 1    
   230  116  237 1    
   231  116  238 1    
   232  116  239 1    
   233  117  118 2    
   234  117  119 am   BACKBONE|DICT|INTERRES
   235  119  120 1    
   236  119  240 1    
   237  120  121 1    
   238  120  124 1    
   239  120  241 1    
   240  121  122 am   BACKBONE|DICT|INTERRES
   241  121  123 2    
   242  122  242 1    
   243  122  243 1    
   244  124  125 1    
   245  124  244 1    
   246  124  245 1    
   247  125  126 1    
   248  126  246 1    
   249  126  247 1    
@<TRIPOS>SUBSTRUCTURE
     1 UNK         1 GROUP             0       ****    0 ROOT    
