@<TRIPOS>MOLECULE
3R540
247   249    1
SMALL
USER_CHARGES


@<TRIPOS>ATOM
      1 CA          1.3571  -10.3720  -50.9899 C.3       0 UNK        -0.1800 
      2 C           1.6061  -11.4145  -49.9093 C.2       0 UNK         0.5000 
      3 O           0.6532  -11.8994  -49.3001 O.2       0 UNK        -0.5000 
      4 N           2.8814  -11.7580  -49.6790 N.am      1 UNK        -0.5000 
      5 CA          3.3584  -12.7411  -48.6932 C.3       1 UNK         0.1400 
      6 C6          2.9243  -14.2017  -48.9989 C.3       23 UNK        -0.0398 
      7 S7          3.5573  -14.7754  -50.6121 S.3       23 UNK        -0.2404 
      8 C8          2.0355  -14.8502  -51.6070 C.3       23 UNK        -0.0205 
      9 C9          1.2794  -16.1505  -51.3859 C.ar      23 UNK        -0.0193 
     10 C10         1.6386  -17.2939  -52.1046 C.ar      23 UNK        -0.1150 
     11 C11         0.9298  -18.4870  -51.9427 C.ar      23 UNK        -0.0193 
     12 C12        -0.1384  -18.5348  -51.0425 C.ar      23 UNK        -0.1150 
     13 C13        -0.5062  -17.3985  -50.3169 C.ar      23 UNK        -0.0193 
     14 C14         0.2067  -16.2085  -50.4914 C.ar      23 UNK        -0.1150 
     15 C15        -1.6863  -17.4510  -49.3618 C.3       23 UNK        -0.0205 
     16 S16        -1.2152  -18.1995  -47.7699 S.3       23 UNK        -0.2404 
     17 C17        -2.2725  -19.6868  -47.6891 C.3       23 UNK        -0.0398 
     18 CA         -1.4822  -20.9836  -47.3898 C.3       11 UNK         0.1400 
     19 N          -0.6213  -20.8670  -46.2099 N.am      11 UNK        -0.5000 
     20 C           0.2925  -21.7706  -45.8295 C.2       10 UNK         0.5000 
     21 O           0.5412  -22.8000  -46.4550 O.2       10 UNK        -0.5000 
     22 CA          1.0021  -21.5025  -44.4918 C.3       10 UNK         0.1400 
     23 CB          2.2231  -20.5940  -44.6943 C.3       10 UNK        -0.1800 
     24 N           0.0863  -20.9112  -43.5137 N.am      10 UNK        -0.5000 
     25 C          -0.9069  -21.5980  -42.9275 C.2       9 UNK         0.5000 
     26 O          -1.1058  -22.7979  -43.1174 O.2       9 UNK        -0.5000 
     27 CA         -1.8733  -20.8134  -42.0231 C.3       9 UNK         0.1400 
     28 CB         -1.3551  -20.7864  -40.5789 C.3       9 UNK        -0.1800 
     29 N          -2.1164  -19.4516  -42.5063 N.am      9 UNK        -0.5000 
     30 C          -2.7866  -19.1782  -43.6368 C.2       8 UNK         0.5000 
     31 O          -3.2717  -20.0588  -44.3479 O.2       8 UNK        -0.5000 
     32 CA         -2.8934  -17.7121  -44.1038 C.3       8 UNK         0.1400 
     33 CB         -4.3146  -17.3452  -44.5768 C.3       8 UNK        -0.1800 
     34 N          -2.3568  -16.7295  -43.1589 N.am      8 UNK        -0.5000 
     35 C          -2.8630  -16.3199  -41.9873 C.2       7 UNK         0.5000 
     36 O          -3.9453  -16.6902  -41.5309 O.2       7 UNK        -0.5000 
     37 CA         -1.9648  -15.3439  -41.1916 C.3       7 UNK         0.1400 
     38 CB         -2.3703  -15.2206  -39.7076 C.3       7 UNK        -0.1800 
     39 N          -0.5339  -15.6639  -41.3222 N.am      7 UNK        -0.5000 
     40 C           0.0575  -16.8164  -40.9692 C.2       6 UNK         0.5000 
     41 O          -0.5378  -17.7452  -40.4252 O.2       6 UNK        -0.5000 
     42 CA          1.5416  -16.9694  -41.3598 C.3       6 UNK         0.1400 
     43 CB          2.0911  -18.3880  -41.1011 C.3       6 UNK        -0.1800 
     44 N           1.7987  -16.5701  -42.7480 N.am      6 UNK        -0.5000 
     45 C           1.2385  -17.0771  -43.8590 C.2       5 UNK         0.5000 
     46 O           0.3862  -17.9669  -43.8487 O.2       5 UNK        -0.5000 
     47 CA          1.6733  -16.4801  -45.2137 C.3       5 UNK         0.1400 
     48 CB          0.5664  -15.5680  -45.7647 C.3       5 UNK        -0.1800 
     49 N           2.9234  -15.7200  -45.1525 N.am      5 UNK        -0.5000 
     50 C           4.1367  -16.2458  -44.9334 C.2       4 UNK         0.5000 
     51 O           4.3501  -17.4546  -44.8404 O.2       4 UNK        -0.5000 
     52 CA          5.3035  -15.2549  -44.7483 C.3       4 UNK         0.1400 
     53 CB          5.9819  -14.9615  -46.0950 C.3       4 UNK        -0.1800 
     54 N           4.9214  -13.9863  -44.1199 N.am      4 UNK        -0.5000 
     55 C           4.3790  -13.8306  -42.9047 C.2       3 UNK         0.5000 
     56 O           4.1053  -14.7718  -42.1602 O.2       3 UNK        -0.5000 
     57 CA          4.0407  -12.3946  -42.4487 C.3       3 UNK         0.1400 
     58 CB          5.2530  -11.7183  -41.7806 C.3       3 UNK        -0.1800 
     59 N           3.4491  -11.5527  -43.4995 N.am      3 UNK        -0.5000 
     60 C           4.0220  -11.0810  -44.6144 C.2       2 UNK         0.5000 
     61 O           5.2149  -11.2204  -44.8951 O.2       2 UNK        -0.5000 
     62 CA          3.0807  -10.4089  -45.6310 C.3       2 UNK         0.1400 
     63 CB          3.3574   -8.9009  -45.7228 C.3       2 UNK        -0.1800 
     64 N           3.2218  -11.0091  -46.9591 N.am      2 UNK        -0.5000 
     65 C           3.0407  -12.3082  -47.2441 C.2       1 UNK         0.5000 
     66 O           2.6584  -13.1371  -46.4158 O.2       1 UNK        -0.5000 
     67 C          -2.4490  -22.1779  -47.2572 C.2       11 UNK         0.5000 
     68 O          -2.6650  -22.8959  -48.2330 O.2       11 UNK        -0.5000 
     69 N          -3.0004  -22.3792  -46.0524 N.am      12 UNK        -0.5000 
     70 CA         -3.8422  -23.5208  -45.7014 C.3       12 UNK         0.1400 
     71 CB         -4.5177  -23.2686  -44.3458 C.3       12 UNK        -0.1800 
     72 C          -3.0598  -24.8447  -45.6964 C.2       12 UNK         0.5000 
     73 O          -3.5392  -25.8248  -46.2655 O.2       12 UNK        -0.5000 
     74 N          -1.8572  -24.8436  -45.1017 N.am      13 UNK        -0.5000 
     75 CA         -0.9505  -25.9957  -45.0526 C.3       13 UNK         0.1400 
     76 CB          0.2452  -25.6727  -44.1444 C.3       13 UNK        -0.1800 
     77 C          -0.4683  -26.4499  -46.4439 C.2       13 UNK         0.5000 
     78 O          -0.3685  -27.6519  -46.6918 O.2       13 UNK        -0.5000 
     79 N          -0.2171  -25.4829  -47.3362 N.am      14 UNK        -0.5000 
     80 CA          0.1309  -25.7052  -48.7411 C.3       14 UNK         0.1400 
     81 CB          0.7577  -24.4156  -49.2970 C.3       14 UNK        -0.1800 
     82 C          -1.0676  -26.1275  -49.6171 C.2       14 UNK         0.5000 
     83 O          -0.8561  -26.5263  -50.7624 O.2       14 UNK        -0.5000 
     84 N          -2.2941  -25.9877  -49.0885 N.am      15 UNK        -0.5000 
     85 CA         -3.5946  -26.1538  -49.7520 C.3       15 UNK         0.1400 
     86 CB         -3.7866  -27.5894  -50.2800 C.3       15 UNK        -0.1800 
     87 C          -3.8814  -25.0855  -50.8295 C.2       15 UNK         0.5000 
     88 O          -4.8513  -25.2132  -51.5772 O.2       15 UNK        -0.5000 
     89 N          -3.0733  -24.0190  -50.8574 N.am      16 UNK        -0.5000 
     90 CA         -3.2122  -22.8626  -51.7362 C.3       16 UNK         0.1400 
     91 CB         -1.9626  -21.9828  -51.6070 C.3       16 UNK        -0.1800 
     92 C          -4.4775  -22.0509  -51.4240 C.2       16 UNK         0.5000 
     93 O          -5.1456  -21.5936  -52.3494 O.2       16 UNK        -0.5000 
     94 N          -4.8140  -21.9352  -50.1308 N.am      17 UNK        -0.5000 
     95 CA         -6.0387  -21.2857  -49.6578 C.3       17 UNK         0.1400 
     96 CB         -5.9671  -21.0927  -48.1358 C.3       17 UNK        -0.1800 
     97 C          -7.3114  -22.0646  -50.0420 C.2       17 UNK         0.5000 
     98 O          -8.3368  -21.4460  -50.3259 O.2       17 UNK        -0.5000 
     99 N          -7.2156  -23.4019  -50.0639 N.am      18 UNK        -0.5000 
    100 CA        -8.2930  -24.3028  -50.4753 C.3       18 UNK         0.1400 
    101 CB        -8.0029  -25.7204  -49.9571 C.3       18 UNK        -0.1800 
    102 C         -8.4893  -24.3013  -52.0017 C.2       18 UNK         0.5000 
    103 O         -9.6280  -24.2868  -52.4701 O.2       18 UNK        -0.5000 
    104 N         -7.3753  -24.2906  -52.7467 N.am      19 UNK        -0.5000 
    105 CA        -7.3462  -24.2112  -54.2083 C.3       19 UNK         0.1400 
    106 CB        -5.9411  -24.6034  -54.6923 C.3       19 UNK        -0.1800 
    107 C         -7.7238  -22.8218  -54.7607 C.2       19 UNK         0.5000 
    108 O         -8.0944  -22.7255  -55.9312 O.2       19 UNK        -0.5000 
    109 N         -7.5929  -21.7821  -53.9225 N.am      20 UNK        -0.5000 
    110 CA        -7.6783  -20.3534  -54.2448 C.3       20 UNK         0.1400 
    111 CB        -9.0982  -19.9629  -54.7054 C.3       20 UNK        -0.1800 
    112 C         -6.5677  -19.9362  -55.2327 C.2       20 UNK         0.5000 
    113 O         -6.8278  -19.2378  -56.2147 O.2       20 UNK        -0.5000 
    114 N         -5.3493  -20.4117  -54.9551 N.am      21 UNK        -0.5000 
    115 CA        -4.1478  -20.2249  -55.7601 C.3       21 UNK         0.1400 
    116 CB        -3.5298  -21.6092  -56.0181 C.3       21 UNK        -0.1800 
    117 C         -3.1416  -19.3293  -55.0215 C.2       21 UNK         0.5000 
    118 O         -3.2068  -19.2188  -53.7951 O.2       21 UNK        -0.5000 
    119 N         -2.2233  -18.7386  -55.7994 N.am      22 UNK        -0.5000 
    120 CA        -1.0327  -17.9302  -55.4463 C.3       22 UNK         0.1400 
    121 C         -1.1706  -16.7514  -54.4325 C.2       22 UNK         0.5000 
    122 N         -2.1946  -16.6905  -53.5974 N.am      22 UNK        -0.7600 
    123 O         -0.3516  -15.8366  -54.4529 O.2       22 UNK        -0.5000 
    124 C124        0.2515  -18.7833  -55.2157 C.3       23 UNK        -0.0398 
    125 S125        0.0990  -20.1512  -54.0121 S.3       23 UNK        -0.2404 
    126 C126        1.3232  -19.7245  -52.7339 C.3       23 UNK        -0.0205 
    127 H127        2.2861  -10.0310  -51.4476 H         1 UNK         0.0600 
    128 H128        0.8490   -9.5060  -50.5657 H         1 UNK         0.0600 
    129 H129        0.7254  -10.7893  -51.7741 H         1 UNK         0.0600 
    130 H130        3.6073  -11.3213  -50.2299 H         1 UNK         0.3000 
    131 H131        4.4474  -12.7149  -48.7562 H         1 UNK         0.0600 
    132 H132        3.3157  -14.8860  -48.2445 H         1 UNK         0.0800 
    133 H133        1.8399  -14.3011  -48.9559 H         1 UNK         0.0800 
    134 H134        2.3014  -14.7639  -52.6617 H         1 UNK         0.0800 
    135 H135        1.3982  -13.9928  -51.3886 H         1 UNK         0.0800 
    136 H136        2.4646  -17.2479  -52.8003 H         1 UNK         0.1150 
    137 H137       -0.6905  -19.4540  -50.9145 H         1 UNK         0.1150 
    138 H138       -0.0807  -15.3249  -49.9392 H         1 UNK         0.1150 
    139 H139       -2.5106  -17.9867  -49.8331 H         1 UNK         0.0800 
    140 H140       -2.0601  -16.4440  -49.1708 H         1 UNK         0.0800 
    141 H141       -2.8193  -19.8047  -48.6255 H         1 UNK         0.0800 
    142 H142       -3.0271  -19.5054  -46.9230 H         1 UNK         0.0800 
    143 H143       -0.8326  -21.1846  -48.2443 H         1 UNK         0.0600 
    144 H144       -0.7556  -20.0483  -45.6355 H         1 UNK         0.3000 
    145 H145        1.3559  -22.4566  -44.0961 H         1 UNK         0.0600 
    146 H146        2.9780  -21.0934  -45.3026 H         1 UNK         0.0600 
    147 H147        2.6901  -20.3330  -43.7445 H         1 UNK         0.0600 
    148 H148        1.9598  -19.6690  -45.2059 H         1 UNK         0.0600 
    149 H149        0.1573  -19.9091  -43.3647 H         1 UNK         0.3000 
    150 H150       -2.8296  -21.3406  -42.0223 H         1 UNK         0.0600 
    151 H151       -0.3552  -20.3567  -40.5163 H         1 UNK         0.0600 
    152 H152       -1.2995  -21.7957  -40.1693 H         1 UNK         0.0600 
    153 H153       -2.0132  -20.2071  -39.9311 H         1 UNK         0.0600 
    154 H154       -1.7087  -18.6957  -41.9686 H         1 UNK         0.3000 
    155 H155       -2.2437  -17.6454  -44.9764 H         1 UNK         0.0600 
    156 H156       -5.0535  -17.4751  -43.7861 H         1 UNK         0.0600 
    157 H157       -4.6222  -17.9757  -45.4119 H         1 UNK         0.0600 
    158 H158       -4.3626  -16.3115  -44.9188 H         1 UNK         0.0600 
    159 H159       -1.4293  -16.4028  -43.3883 H         1 UNK         0.3000 
    160 H160       -2.1039  -14.3641  -41.6509 H         1 UNK         0.0600 
    161 H161       -2.3246  -16.1800  -39.1916 H         1 UNK         0.0600 
    162 H162       -3.3907  -14.8479  -39.6117 H         1 UNK         0.0600 
    163 H163       -1.7206  -14.5238  -39.1782 H         1 UNK         0.0600 
    164 H164        0.0342  -14.9618  -41.7750 H         1 UNK         0.3000 
    165 H165        2.0998  -16.2779  -40.7272 H         1 UNK         0.0600 
    166 H166        2.0009  -18.6565  -40.0480 H         1 UNK         0.0600 
    167 H167        1.5571  -19.1431  -41.6774 H         1 UNK         0.0600 
    168 H168        3.1469  -18.4534  -41.3639 H         1 UNK         0.0600 
    169 H169        2.5153  -15.8609  -42.8568 H         1 UNK         0.3000 
    170 H170        1.8089  -17.3109  -45.9087 H         1 UNK         0.0600 
    171 H171        0.7897  -15.2526  -46.7839 H         1 UNK         0.0600 
    172 H172        0.4430  -14.6714  -45.1562 H         1 UNK         0.0600 
    173 H173       -0.3952  -16.0808  -45.7918 H         1 UNK         0.0600 
    174 H174        2.8497  -14.7175  -45.3043 H         1 UNK         0.3000 
    175 H175        6.0350  -15.7344  -44.0948 H         1 UNK         0.0600 
    176 H176        6.2956  -15.8840  -46.5854 H         1 UNK         0.0600 
    177 H177        5.3120  -14.4381  -46.7769 H         1 UNK         0.0600 
    178 H178        6.8716  -14.3457  -45.9622 H         1 UNK         0.0600 
    179 H179        5.1110  -13.1395  -44.6468 H         1 UNK         0.3000 
    180 H180        3.2664  -12.4897  -41.6857 H         1 UNK         0.0600 
    181 H181        6.1014  -11.6296  -42.4595 H         1 UNK         0.0600 
    182 H182        5.5898  -12.2950  -40.9183 H         1 UNK         0.0600 
    183 H183        5.0010  -10.7193  -41.4249 H         1 UNK         0.0600 
    184 H184        2.4547  -11.4042  -43.3972 H         1 UNK         0.3000 
    185 H185        2.0463  -10.5517  -45.3117 H         1 UNK         0.0600 
    186 H186        3.2412   -8.4233  -44.7491 H         1 UNK         0.0600 
    187 H187        4.3719   -8.6979  -46.0689 H         1 UNK         0.0600 
    188 H188        2.6643   -8.4129  -46.4084 H         1 UNK         0.0600 
    189 H189        3.5450  -10.3994  -47.6954 H         1 UNK         0.3000 
    190 H190       -2.8461  -21.6894  -45.3230 H         1 UNK         0.3000 
    191 H191       -4.6254  -23.6090  -46.4560 H         1 UNK         0.0600 
    192 H192       -5.1209  -22.3608  -44.3706 H         1 UNK         0.0600 
    193 H193       -5.1799  -24.0934  -44.0802 H         1 UNK         0.0600 
    194 H194       -3.7878  -23.1619  -43.5434 H         1 UNK         0.0600 
    195 H195       -1.5535  -24.0083  -44.6100 H         1 UNK         0.3000 
    196 H196       -1.4991  -26.8278  -44.6066 H         1 UNK         0.0600 
    197 H197        0.9191  -26.5267  -44.0669 H         1 UNK         0.0600 
    198 H198       -0.0819  -25.4244  -43.1346 H         1 UNK         0.0600 
    199 H199        0.8238  -24.8315  -44.5260 H         1 UNK         0.0600 
    200 H200       -0.2420  -24.5158  -47.0253 H         1 UNK         0.3000 
    201 H201        0.8757  -26.5017  -48.7952 H         1 UNK         0.0600 
    202 H202        1.0599  -24.5394  -50.3377 H         1 UNK         0.0600 
    203 H203        1.6476  -24.1355  -48.7331 H         1 UNK         0.0600 
    204 H204        0.0590  -23.5789  -49.2548 H         1 UNK         0.0600 
    205 H205       -2.3512  -25.6658  -48.1302 H         1 UNK         0.3000 
    206 H206       -4.3421  -25.9927  -48.9743 H         1 UNK         0.0600 
    207 H207       -3.5793  -28.3258  -49.5035 H         1 UNK         0.0600 
    208 H208       -4.8136  -27.7484  -50.6109 H         1 UNK         0.0600 
    209 H209       -3.1373  -27.8023  -51.1293 H         1 UNK         0.0600 
    210 H210       -2.3764  -23.9468  -50.1282 H         1 UNK         0.3000 
    211 H211       -3.2833  -23.2186  -52.7657 H         1 UNK         0.0600 
    212 H212       -1.0676  -22.5154  -51.9289 H         1 UNK         0.0600 
    213 H213       -2.0539  -21.0924  -52.2285 H         1 UNK         0.0600 
    214 H214       -1.8052  -21.6497  -50.5813 H         1 UNK         0.0600 
    215 H215       -4.2008  -22.3489  -49.4368 H         1 UNK         0.3000 
    216 H216       -6.0996  -20.2997  -50.1237 H         1 UNK         0.0600 
    217 H217       -5.8951  -22.0453  -47.6124 H         1 UNK         0.0600 
    218 H218       -6.8586  -20.5847  -47.7658 H         1 UNK         0.0600 
    219 H219       -5.1106  -20.4842  -47.8507 H         1 UNK         0.0600 
    220 H220       -6.3264  -23.8250  -49.8476 H         1 UNK         0.3000 
    221 H221       -9.2238  -23.9611  -50.0173 H         1 UNK         0.0600 
    222 H222       -7.0841  -26.1289  -50.3781 H         1 UNK         0.0600 
    223 H223       -7.9081  -25.7316  -48.8712 H         1 UNK         0.0600 
    224 H224       -8.8128  -26.4023  -50.2191 H         1 UNK         0.0600 
    225 H225       -6.4762  -24.3853  -52.2835 H         1 UNK         0.3000 
    226 H226       -8.0618  -24.9329  -54.6076 H         1 UNK         0.0600 
    227 H227       -5.6762  -25.6086  -54.3637 H         1 UNK         0.0600 
    228 H228       -5.8824  -24.5906  -55.7813 H         1 UNK         0.0600 
    229 H229       -5.1823  -23.9172  -54.3145 H         1 UNK         0.0600 
    230 H230       -7.2102  -21.9856  -53.0081 H         1 UNK         0.3000 
    231 H231       -7.4764  -19.8202  -53.3146 H         1 UNK         0.0600 
    232 H232       -9.3531  -20.4061  -55.6681 H         1 UNK         0.0600 
    233 H233       -9.1871  -18.8813  -54.8120 H         1 UNK         0.0600 
    234 H234       -9.8475  -20.2805  -53.9803 H         1 UNK         0.0600 
    235 H235       -5.2126  -20.8876  -54.0655 H         1 UNK         0.3000 
    236 H236       -4.3953  -19.7626  -56.7179 H         1 UNK         0.0600 
    237 H237       -3.2378  -22.0977  -55.0874 H         1 UNK         0.0600 
    238 H238       -4.2328  -22.2645  -56.5328 H         1 UNK         0.0600 
    239 H239       -2.6385  -21.5335  -56.6420 H         1 UNK         0.0600 
    240 H240       -2.3143  -18.8961  -56.7925 H         1 UNK         0.3000 
    241 H241       -0.8438  -17.3973  -56.3795 H         1 UNK         0.0600 
    242 H242       -2.2787  -15.9229  -52.9527 H         1 UNK         0.3800 
    243 H243       -2.7973  -17.5073  -53.5225 H         1 UNK         0.3800 
    244 H244        0.5360  -19.2420  -56.1632 H         1 UNK         0.0800 
    245 H245        1.0977  -18.1487  -54.9482 H         1 UNK         0.0800 
    246 H246        1.4182  -20.5671  -52.0476 H         1 UNK         0.0800 
    247 H247        2.3022  -19.5983  -53.1986 H         1 UNK         0.0800 
@<TRIPOS>BOND
     1    1    2 1    
     2    1  127 1    
     3    1  128 1    
     4    1  129 1    
     5    2    3 2    
     6    2    4 am   BACKBONE|DICT|INTERRES
     7    4    5 1    
     8    4  130 1    
     9    5    6 1    
    10    5   65 1    
    11    5  131 1    
    12    6    7 1    
    13    6  132 1    
    14    6  133 1    
    15    7    8 1    
    16    8    9 1    
    17    8  134 1    
    18    8  135 1    
    19    9   10 ar   
    20    9   14 ar   
    21   10   11 ar   
    22   10  136 1    
    23   11   12 ar   
    24   11  126 1    
    25   12   13 ar   
    26   12  137 1    
    27   13   14 ar   
    28   13   15 1    
    29   14  138 1    
    30   15   16 1    
    31   15  139 1    
    32   15  140 1    
    33   16   17 1    
    34   17   18 1    
    35   17  141 1    
    36   17  142 1    
    37   18   19 1    
    38   18   67 1    
    39   18  143 1    
    40   19   20 am   BACKBONE|DICT|INTERRES
    41   19  144 1    
    42   20   21 2    
    43   20   22 1    
    44   22   23 1    
    45   22   24 1    
    46   22  145 1    
    47   23  146 1    
    48   23  147 1    
    49   23  148 1    
    50   24   25 am   BACKBONE|DICT|INTERRES
    51   24  149 1    
    52   25   26 2    
    53   25   27 1    
    54   27   28 1    
    55   27   29 1    
    56   27  150 1    
    57   28  151 1    
    58   28  152 1    
    59   28  153 1    
    60   29   30 am   BACKBONE|DICT|INTERRES
    61   29  154 1    
    62   30   31 2    
    63   30   32 1    
    64   32   33 1    
    65   32   34 1    
    66   32  155 1    
    67   33  156 1    
    68   33  157 1    
    69   33  158 1    
    70   34   35 am   BACKBONE|DICT|INTERRES
    71   34  159 1    
    72   35   36 2    
    73   35   37 1    
    74   37   38 1    
    75   37   39 1    
    76   37  160 1    
    77   38  161 1    
    78   38  162 1    
    79   38  163 1    
    80   39   40 am   BACKBONE|DICT|INTERRES
    81   39  164 1    
    82   40   41 2    
    83   40   42 1    
    84   42   43 1    
    85   42   44 1    
    86   42  165 1    
    87   43  166 1    
    88   43  167 1    
    89   43  168 1    
    90   44   45 am   BACKBONE|DICT|INTERRES
    91   44  169 1    
    92   45   46 2    
    93   45   47 1    
    94   47   48 1    
    95   47   49 1    
    96   47  170 1    
    97   48  171 1    
    98   48  172 1    
    99   48  173 1    
   100   49   50 am   BACKBONE|DICT|INTERRES
   101   49  174 1    
   102   50   51 2    
   103   50   52 1    
   104   52   53 1    
   105   52   54 1    
   106   52  175 1    
   107   53  176 1    
   108   53  177 1    
   109   53  178 1    
   110   54   55 am   BACKBONE|DICT|INTERRES
   111   54  179 1    
   112   55   56 2    
   113   55   57 1    
   114   57   58 1    
   115   57   59 1    
   116   57  180 1    
   117   58  181 1    
   118   58  182 1    
   119   58  183 1    
   120   59   60 am   BACKBONE|DICT|INTERRES
   121   59  184 1    
   122   60   61 2    
   123   60   62 1    
   124   62   63 1    
   125   62   64 1    
   126   62  185 1    
   127   63  186 1    
   128   63  187 1    
   129   63  188 1    
   130   64   65 am   BACKBONE|DICT|INTERRES
   131   64  189 1    
   132   65   66 2    
   133   67   68 2    
   134   67   69 am   BACKBONE|DICT|INTERRES
   135   69   70 1    
   136   69  190 1    
   137   70   71 1    
   138   70   72 1    
   139   70  191 1    
   140   71  192 1    
   141   71  193 1    
   142   71  194 1    
   143   72   73 2    
   144   72   74 am   BACKBONE|DICT|INTERRES
   145   74   75 1    
   146   74  195 1    
   147   75   76 1    
   148   75   77 1    
   149   75  196 1    
   150   76  197 1    
   151   76  198 1    
   152   76  199 1    
   153   77   78 2    
   154   77   79 am   BACKBONE|DICT|INTERRES
   155   79   80 1    
   156   79  200 1    
   157   80   81 1    
   158   80   82 1    
   159   80  201 1    
   160   81  202 1    
   161   81  203 1    
   162   81  204 1    
   163   82   83 2    
   164   82   84 am   BACKBONE|DICT|INTERRES
   165   84   85 1    
   166   84  205 1    
   167   85   86 1    
   168   85   87 1    
   169   85  206 1    
   170   86  207 1    
   171   86  208 1    
   172   86  209 1    
   173   87   88 2    
   174   87   89 am   BACKBONE|DICT|INTERRES
   175   89   90 1    
   176   89  210 1    
   177   90   91 1    
   178   90   92 1    
   179   90  211 1    
   180   91  212 1    
   181   91  213 1    
   182   91  214 1    
   183   92   93 2    
   184   92   94 am   BACKBONE|DICT|INTERRES
   185   94   95 1    
   186   94  215 1    
   187   95   96 1    
   188   95   97 1    
   189   95  216 1    
   190   96  217 1    
   191   96  218 1    
   192   96  219 1    
   193   97   98 2    
   194   97   99 am   BACKBONE|DICT|INTERRES
   195   99  100 1    
   196   99  220 1    
   197  100  101 1    
   198  100  102 1    
   199  100  221 1    
   200  101  222 1    
   201  101  223 1    
   202  101  224 1    
   203  102  103 2    
   204  102  104 am   BACKBONE|DICT|INTERRES
   205  104  105 1    
   206  104  225 1    
   207  105  106 1    
   208  105  107 1    
   209  105  226 1    
   210  106  227 1    
   211  106  228 1    
   212  106  229 1    
   213  107  108 2    
   214  107  109 am   BACKBONE|DICT|INTERRES
   215  109  110 1    
   216  109  230 1    
   217  110  111 1    
   218  110  112 1    
   219  110  231 1    
   220  111  232 1    
   221  111  233 1    
   222  111  234 1    
   223  112  113 2    
   224  112  114 am   BACKBONE|DICT|INTERRES
   225  114  115 1    
   226  114  235 1    
   227  115  116 1    
   228  115  117 1    
   229  115  236 1    
   230  116  237 1    
   231  116  238 1    
   232  116  239 1    
   233  117  118 2    
   234  117  119 am   BACKBONE|DICT|INTERRES
   235  119  120 1    
   236  119  240 1    
   237  120  121 1    
   238  120  124 1    
   239  120  241 1    
   240  121  122 am   BACKBONE|DICT|INTERRES
   241  121  123 2    
   242  122  242 1    
   243  122  243 1    
   244  124  125 1    
   245  124  244 1    
   246  124  245 1    
   247  125  126 1    
   248  126  246 1    
   249  126  247 1    
@<TRIPOS>SUBSTRUCTURE
     1 UNK         1 GROUP             0       ****    0 ROOT    
