@<TRIPOS>MOLECULE
3R540
247   249    1
SMALL
USER_CHARGES


@<TRIPOS>ATOM
      1 CA          1.0725  -12.3392  -46.3223 C.3       0 UNK        -0.1800 
      2 C           2.5193  -12.3365  -46.7903 C.2       0 UNK         0.5000 
      3 O           3.0754  -11.2719  -47.0599 O.2       0 UNK        -0.5000 
      4 N           3.1281  -13.5255  -46.8893 N.am      1 UNK        -0.5000 
      5 CA          4.4636  -13.7679  -47.4586 C.3       1 UNK         0.1400 
      6 C6          4.7880  -15.2788  -47.6107 C.3       23 UNK        -0.0398 
      7 S7          3.3685  -16.3068  -48.1130 S.3       23 UNK        -0.2404 
      8 C8          3.2258  -15.9062  -49.8779 C.3       23 UNK        -0.0205 
      9 C9          1.9477  -16.5042  -50.4381 C.ar      23 UNK        -0.0193 
     10 C10         0.8284  -15.7029  -50.6706 C.ar      23 UNK        -0.1150 
     11 C11        -0.3625  -16.2572  -51.1488 C.ar      23 UNK        -0.0193 
     12 C12        -0.4235  -17.6411  -51.3702 C.ar      23 UNK        -0.1150 
     13 C13         0.6892  -18.4587  -51.1432 C.ar      23 UNK        -0.0193 
     14 C14         1.8790  -17.8725  -50.6977 C.ar      23 UNK        -0.1150 
     15 C15         0.5761  -19.9640  -51.3968 C.3       23 UNK        -0.0205 
     16 S16         1.7230  -21.0017  -50.4191 S.3       23 UNK        -0.2404 
     17 C17         1.1900  -20.6040  -48.7180 C.3       23 UNK        -0.0398 
     18 CA          0.5637  -21.7954  -47.9590 C.3       11 UNK         0.1400 
     19 N           0.3113  -21.4521  -46.5574 N.am      11 UNK        -0.5000 
     20 C          -0.0866  -22.3167  -45.6140 C.2       10 UNK         0.5000 
     21 O          -0.2123  -23.5256  -45.8027 O.2       10 UNK        -0.5000 
     22 CA         -0.4574  -21.7247  -44.2433 C.3       10 UNK         0.1400 
     23 CB          0.7975  -21.5132  -43.3839 C.3       10 UNK        -0.1800 
     24 N          -1.2041  -20.4703  -44.3597 N.am      10 UNK        -0.5000 
     25 C          -2.4241  -20.3657  -44.9080 C.2       9 UNK         0.5000 
     26 O          -3.0684  -21.3324  -45.3125 O.2       9 UNK        -0.5000 
     27 CA         -3.0055  -18.9486  -45.0732 C.3       9 UNK         0.1400 
     28 CB         -3.6377  -18.4605  -43.7624 C.3       9 UNK        -0.1800 
     29 N          -2.0080  -17.9803  -45.5282 N.am      9 UNK        -0.5000 
     30 C          -1.3926  -18.0268  -46.7183 C.2       8 UNK         0.5000 
     31 O          -1.6398  -18.8665  -47.5830 O.2       8 UNK        -0.5000 
     32 CA         -0.2710  -17.0000  -46.9560 C.3       8 UNK         0.1400 
     33 CB         -0.8319  -15.6552  -47.4387 C.3       8 UNK        -0.1800 
     34 N           0.5339  -16.7875  -45.7537 N.am      8 UNK        -0.5000 
     35 C           1.3800  -17.6941  -45.2459 C.2       7 UNK         0.5000 
     36 O           1.5830  -18.7999  -45.7494 O.2       7 UNK        -0.5000 
     37 CA          2.0769  -17.3105  -43.9273 C.3       7 UNK         0.1400 
     38 CB          3.2678  -16.3753  -44.1873 C.3       7 UNK        -0.1800 
     39 N           1.1590  -16.6759  -42.9795 N.am      7 UNK        -0.5000 
     40 C           0.1442  -17.3164  -42.3789 C.2       6 UNK         0.5000 
     41 O          -0.0994  -18.5097  -42.5457 O.2       6 UNK        -0.5000 
     42 CA         -0.7839  -16.4857  -41.4724 C.3       6 UNK         0.1400 
     43 CB         -0.2589  -16.4825  -40.0292 C.3       6 UNK        -0.1800 
     44 N          -0.9608  -15.1048  -41.9189 N.am      6 UNK        -0.5000 
     45 C          -1.4145  -14.7202  -43.1202 C.2       5 UNK         0.5000 
     46 O          -1.7856  -15.5035  -43.9944 O.2       5 UNK        -0.5000 
     47 CA         -1.4085  -13.2073  -43.4106 C.3       5 UNK         0.1400 
     48 CB         -2.8161  -12.6225  -43.2262 C.3       5 UNK        -0.1800 
     49 N          -0.4598  -12.4441  -42.5905 N.am      5 UNK        -0.5000 
     50 C           0.8712  -12.6002  -42.5949 C.2       4 UNK         0.5000 
     51 O           1.4644  -13.4436  -43.2732 O.2       4 UNK        -0.5000 
     52 CA          1.6708  -11.6803  -41.6572 C.3       4 UNK         0.1400 
     53 CB          2.3702  -12.5021  -40.5634 C.3       4 UNK        -0.1800 
     54 N           2.6732  -10.9259  -42.4015 N.am      4 UNK        -0.5000 
     55 C           2.4179   -9.9580  -43.2894 C.2       3 UNK         0.5000 
     56 O           1.2887   -9.5157  -43.5037 O.2       3 UNK        -0.5000 
     57 CA          3.6088   -9.4043  -44.0973 C.3       3 UNK         0.1400 
     58 CB          4.2670   -8.2081  -43.3837 C.3       3 UNK        -0.1800 
     59 N           4.5949  -10.4224  -44.4880 N.am      3 UNK        -0.5000 
     60 C           5.4601  -11.1079  -43.7245 C.2       2 UNK         0.5000 
     61 O           5.5723  -10.9493  -42.5083 O.2       2 UNK        -0.5000 
     62 CA          6.2729  -12.2018  -44.4401 C.3       2 UNK         0.1400 
     63 CB          6.9034  -13.2147  -43.4667 C.3       2 UNK        -0.1800 
     64 N           5.3970  -12.9156  -45.3655 N.am      2 UNK        -0.5000 
     65 C           5.5972  -13.0688  -46.6791 C.2       1 UNK         0.5000 
     66 O           6.6026  -12.6814  -47.2753 O.2       1 UNK        -0.5000 
     67 C          -0.7097  -22.3353  -48.6472 C.2       11 UNK         0.5000 
     68 O          -0.6585  -23.3962  -49.2703 O.2       11 UNK        -0.5000 
     69 N          -1.8368  -21.6310  -48.4737 N.am      12 UNK        -0.5000 
     70 CA         -3.1524  -22.0345  -48.9704 C.3       12 UNK         0.1400 
     71 CB         -4.1713  -20.9334  -48.6572 C.3       12 UNK        -0.1800 
     72 C          -3.6239  -23.3835  -48.3986 C.2       12 UNK         0.5000 
     73 O          -4.1334  -24.2137  -49.1516 O.2       12 UNK        -0.5000 
     74 N          -3.4150  -23.5892  -47.0903 N.am      13 UNK        -0.5000 
     75 CA         -3.7084  -24.8348  -46.3829 C.3       13 UNK         0.1400 
     76 CB         -3.5621  -24.6202  -44.8693 C.3       13 UNK        -0.1800 
     77 C          -2.8349  -26.0093  -46.8583 C.2       13 UNK         0.5000 
     78 O          -3.3621  -27.1008  -47.0713 O.2       13 UNK        -0.5000 
     79 N          -1.5325  -25.7640  -47.0632 N.am      14 UNK        -0.5000 
     80 CA         -0.5772  -26.7338  -47.6091 C.3       14 UNK         0.1400 
     81 CB          0.8477  -26.1689  -47.5079 C.3       14 UNK        -0.1800 
     82 C          -0.9021  -27.1432  -49.0588 C.2       14 UNK         0.5000 
     83 O          -0.7352  -28.3097  -49.4155 O.2       14 UNK        -0.5000 
     84 N          -1.4076  -26.1879  -49.8496 N.am      15 UNK        -0.5000 
     85 CA         -1.9280  -26.3941  -51.2022 C.3       15 UNK         0.1400 
     86 CB         -1.8866  -25.0519  -51.9498 C.3       15 UNK        -0.1800 
     87 C          -3.3535  -26.9891  -51.2304 C.2       15 UNK         0.5000 
     88 O          -3.8865  -27.2102  -52.3188 O.2       15 UNK        -0.5000 
     89 N          -3.9662  -27.2025  -50.0540 N.am      16 UNK        -0.5000 
     90 CA         -5.3214  -27.7199  -49.8220 C.3       16 UNK         0.1400 
     91 CB         -5.3996  -29.2067  -50.2249 C.3       16 UNK        -0.1800 
     92 C          -6.4307  -26.8687  -50.4787 C.2       16 UNK         0.5000 
     93 O          -7.4948  -27.3948  -50.8090 O.2       16 UNK        -0.5000 
     94 N          -6.1426  -25.5744  -50.6848 N.am      17 UNK        -0.5000 
     95 CA         -6.9305  -24.5783  -51.4158 C.3       17 UNK         0.1400 
     96 CB         -8.2131  -24.2269  -50.6351 C.3       17 UNK        -0.1800 
     97 C          -7.2130  -24.9431  -52.8935 C.2       17 UNK         0.5000 
     98 O          -8.1239  -24.3687  -53.4920 O.2       17 UNK        -0.5000 
     99 N          -6.4327  -25.8703  -53.4727 N.am      18 UNK        -0.5000 
    100 CA        -6.5597  -26.3009  -54.8690 C.3       18 UNK         0.1400 
    101 CB        -5.8243  -27.6362  -55.0572 C.3       18 UNK        -0.1800 
    102 C         -6.0297  -25.2454  -55.8573 C.2       18 UNK         0.5000 
    103 O         -6.5237  -25.1514  -56.9816 O.2       18 UNK        -0.5000 
    104 N         -5.0516  -24.4589  -55.4028 N.am      19 UNK        -0.5000 
    105 CA        -4.4796  -23.2972  -56.0643 C.3       19 UNK         0.1400 
    106 CB        -3.3892  -23.7364  -57.0562 C.3       19 UNK        -0.1800 
    107 C         -3.9040  -22.3987  -54.9627 C.2       19 UNK         0.5000 
    108 O         -3.5529  -22.9083  -53.8950 O.2       19 UNK        -0.5000 
    109 N         -3.8208  -21.0891  -55.2381 N.am      20 UNK        -0.5000 
    110 CA        -3.2936  -20.0443  -54.3483 C.3       20 UNK         0.1400 
    111 CB        -1.7626  -20.1793  -54.2203 C.3       20 UNK        -0.1800 
    112 C         -4.0122  -20.0039  -52.9807 C.2       20 UNK         0.5000 
    113 O         -3.3653  -19.9368  -51.9339 O.2       20 UNK        -0.5000 
    114 N         -5.3510  -20.0703  -53.0227 N.am      21 UNK        -0.5000 
    115 CA        -6.2581  -20.1479  -51.8736 C.3       21 UNK         0.1400 
    116 CB        -7.6056  -20.7156  -52.3541 C.3       21 UNK        -0.1800 
    117 C         -6.4102  -18.8051  -51.1208 C.2       21 UNK         0.5000 
    118 O         -7.5255  -18.3147  -50.9338 O.2       21 UNK        -0.5000 
    119 N         -5.2749  -18.2230  -50.7316 N.am      22 UNK        -0.5000 
    120 CA        -5.1449  -16.9658  -49.9869 C.3       22 UNK         0.1400 
    121 C         -5.6575  -17.0549  -48.5213 C.2       22 UNK         0.5000 
    122 N         -6.0740  -15.9369  -47.9418 N.am      22 UNK        -0.7600 
    123 O         -5.6540  -18.1087  -47.8910 O.2       22 UNK        -0.5000 
    124 C124       -3.6829  -16.4588  -50.0313 C.3       23 UNK        -0.0398 
    125 S125       -3.1512  -16.0850  -51.7361 S.3       23 UNK        -0.2404 
    126 C126       -1.5265  -15.3075  -51.4429 C.3       23 UNK        -0.0205 
    127 H127        0.4113  -12.0686  -47.1452 H         1 UNK         0.0600 
    128 H128        0.9334  -11.6150  -45.5202 H         1 UNK         0.0600 
    129 H129        0.7742  -13.3195  -45.9516 H         1 UNK         0.0600 
    130 H130        2.6078  -14.3640  -46.6752 H         1 UNK         0.3000 
    131 H131        4.4541  -13.3293  -48.4584 H         1 UNK         0.0600 
    132 H132        5.6001  -15.4215  -48.3257 H         1 UNK         0.0800 
    133 H133        5.1475  -15.6924  -46.6669 H         1 UNK         0.0800 
    134 H134        4.0906  -16.2967  -50.4162 H         1 UNK         0.0800 
    135 H135        3.2304  -14.8240  -50.0140 H         1 UNK         0.0800 
    136 H136        0.8853  -14.6402  -50.4803 H         1 UNK         0.1150 
    137 H137       -1.3353  -18.0952  -51.7277 H         1 UNK         0.1150 
    138 H138        2.7560  -18.4778  -50.5206 H         1 UNK         0.1150 
    139 H139       -0.4445  -20.2977  -51.1981 H         1 UNK         0.0800 
    140 H140        0.7627  -20.1490  -52.4549 H         1 UNK         0.0800 
    141 H141        0.5014  -19.7600  -48.7332 H         1 UNK         0.0800 
    142 H142        2.0707  -20.2506  -48.1797 H         1 UNK         0.0800 
    143 H143        1.2954  -22.6062  -47.9569 H         1 UNK         0.0600 
    144 H144        0.4321  -20.4787  -46.3003 H         1 UNK         0.3000 
    145 H145       -1.0970  -22.4475  -43.7329 H         1 UNK         0.0600 
    146 H146        0.5338  -21.1958  -42.3751 H         1 UNK         0.0600 
    147 H147        1.3700  -22.4372  -43.2936 H         1 UNK         0.0600 
    148 H148        1.4572  -20.7575  -43.8109 H         1 UNK         0.0600 
    149 H149       -0.7591  -19.6413  -43.9773 H         1 UNK         0.3000 
    150 H150       -3.7903  -18.9952  -45.8312 H         1 UNK         0.0600 
    151 H151       -4.4379  -19.1298  -43.4445 H         1 UNK         0.0600 
    152 H152       -4.0697  -17.4662  -43.8779 H         1 UNK         0.0600 
    153 H153       -2.9067  -18.4179  -42.9558 H         1 UNK         0.0600 
    154 H154       -1.7847  -17.2184  -44.8944 H         1 UNK         0.3000 
    155 H155        0.3795  -17.3931  -47.7407 H         1 UNK         0.0600 
    156 H156       -1.4766  -15.1889  -46.6933 H         1 UNK         0.0600 
    157 H157       -1.4187  -15.7872  -48.3458 H         1 UNK         0.0600 
    158 H158       -0.0283  -14.9589  -47.6774 H         1 UNK         0.0600 
    159 H159        0.3632  -15.9398  -45.2335 H         1 UNK         0.3000 
    160 H160        2.4577  -18.2274  -43.4723 H         1 UNK         0.0600 
    161 H161        2.9519  -15.4316  -44.6322 H         1 UNK         0.0600 
    162 H162        3.9828  -16.8402  -44.8665 H         1 UNK         0.0600 
    163 H163        3.7991  -16.1465  -43.2633 H         1 UNK         0.0600 
    164 H164        1.2772  -15.6827  -42.8219 H         1 UNK         0.3000 
    165 H165       -1.7660  -16.9608  -41.4775 H         1 UNK         0.0600 
    166 H166       -0.9518  -15.9752  -39.3576 H         1 UNK         0.0600 
    167 H167       -0.1345  -17.5003  -39.6567 H         1 UNK         0.0600 
    168 H168        0.7087  -15.9845  -39.9537 H         1 UNK         0.0600 
    169 H169       -0.6825  -14.3839  -41.2705 H         1 UNK         0.3000 
    170 H170       -1.1238  -13.0811  -44.4562 H         1 UNK         0.0600 
    171 H171       -3.5434  -13.1518  -43.8436 H         1 UNK         0.0600 
    172 H172       -3.1499  -12.6954  -42.1903 H         1 UNK         0.0600 
    173 H173       -2.8487  -11.5726  -43.5177 H         1 UNK         0.0600 
    174 H174       -0.8602  -11.7236  -42.0068 H         1 UNK         0.3000 
    175 H175        0.9929  -10.9718  -41.1766 H         1 UNK         0.0600 
    176 H176        3.0852  -13.2099  -40.9856 H         1 UNK         0.0600 
    177 H177        2.9097  -11.8563  -39.8702 H         1 UNK         0.0600 
    178 H178        1.6473  -13.0735  -39.9799 H         1 UNK         0.0600 
    179 H179        3.6417  -11.2010  -42.2788 H         1 UNK         0.3000 
    180 H180        3.1949   -9.0329  -45.0363 H         1 UNK         0.0600 
    181 H181        4.6651   -8.4808  -42.4062 H         1 UNK         0.0600 
    182 H182        3.5433   -7.4078  -43.2249 H         1 UNK         0.0600 
    183 H183        5.0831   -7.7951  -43.9766 H         1 UNK         0.0600 
    184 H184        4.5368  -10.6898  -45.4639 H         1 UNK         0.3000 
    185 H185        7.0758  -11.6948  -44.9789 H         1 UNK         0.0600 
    186 H186        7.5928  -12.7228  -42.7793 H         1 UNK         0.0600 
    187 H187        6.1457  -13.7231  -42.8690 H         1 UNK         0.0600 
    188 H188        7.4704  -13.9748  -44.0044 H         1 UNK         0.0600 
    189 H189        4.5206  -13.2412  -44.9809 H         1 UNK         0.3000 
    190 H190       -1.7921  -20.7421  -47.9823 H         1 UNK         0.3000 
    191 H191       -3.0811  -22.1372  -50.0553 H         1 UNK         0.0600 
    192 H192       -4.2498  -20.7431  -47.5878 H         1 UNK         0.0600 
    193 H193       -5.1668  -21.2029  -49.0081 H         1 UNK         0.0600 
    194 H194       -3.8888  -19.9969  -49.1361 H         1 UNK         0.0600 
    195 H195       -3.0496  -22.8235  -46.5304 H         1 UNK         0.3000 
    196 H196       -4.7494  -25.0932  -46.5876 H         1 UNK         0.0600 
    197 H197       -3.8061  -25.5305  -44.3204 H         1 UNK         0.0600 
    198 H198       -4.2332  -23.8372  -44.5160 H         1 UNK         0.0600 
    199 H199       -2.5455  -24.3358  -44.5982 H         1 UNK         0.0600 
    200 H200       -1.1595  -24.8508  -46.8161 H         1 UNK         0.3000 
    201 H201       -0.6291  -27.6338  -46.9930 H         1 UNK         0.0600 
    202 H202        1.1133  -25.9542  -46.4727 H         1 UNK         0.0600 
    203 H203        0.9574  -25.2467  -48.0789 H         1 UNK         0.0600 
    204 H204        1.5791  -26.8817  -47.8904 H         1 UNK         0.0600 
    205 H205       -1.4428  -25.2366  -49.4948 H         1 UNK         0.3000 
    206 H206       -1.2746  -27.0944  -51.7261 H         1 UNK         0.0600 
    207 H207       -0.8802  -24.6331  -51.9577 H         1 UNK         0.0600 
    208 H208       -2.1953  -25.1706  -52.9890 H         1 UNK         0.0600 
    209 H209       -2.5494  -24.3158  -51.4933 H         1 UNK         0.0600 
    210 H210       -3.4582  -26.9624  -49.2116 H         1 UNK         0.3000 
    211 H211       -5.4923  -27.6578  -48.7468 H         1 UNK         0.0600 
    212 H212       -5.3023  -29.3387  -51.3030 H         1 UNK         0.0600 
    213 H213       -6.3521  -29.6456  -49.9259 H         1 UNK         0.0600 
    214 H214       -4.6122  -29.7865  -49.7433 H         1 UNK         0.0600 
    215 H215       -5.2628  -25.2299  -50.3061 H         1 UNK         0.3000 
    216 H216       -6.3112  -23.6807  -51.4483 H         1 UNK         0.0600 
    217 H217       -8.7397  -23.3907  -51.0960 H         1 UNK         0.0600 
    218 H218       -7.9818  -23.9359  -49.6104 H         1 UNK         0.0600 
    219 H219       -8.9062  -25.0676  -50.5977 H         1 UNK         0.0600 
    220 H220       -5.6928  -26.3039  -52.9304 H         1 UNK         0.3000 
    221 H221       -7.6176  -26.4623  -55.0863 H         1 UNK         0.0600 
    222 H222       -4.7517  -27.5323  -54.8887 H         1 UNK         0.0600 
    223 H223       -6.1995  -28.3944  -54.3695 H         1 UNK         0.0600 
    224 H224       -5.9613  -28.0169  -56.0700 H         1 UNK         0.0600 
    225 H225       -4.7208  -24.5832  -54.4534 H         1 UNK         0.3000 
    226 H226       -5.2673  -22.7541  -56.5906 H         1 UNK         0.0600 
    227 H227       -3.7984  -24.3796  -57.8354 H         1 UNK         0.0600 
    228 H228       -2.9390  -22.8744  -57.5497 H         1 UNK         0.0600 
    229 H229       -2.5898  -24.2843  -56.5555 H         1 UNK         0.0600 
    230 H230       -4.1423  -20.7680  -56.1410 H         1 UNK         0.3000 
    231 H231       -3.5003  -19.0883  -54.8316 H         1 UNK         0.0600 
    232 H232       -1.2872  -20.2346  -55.1995 H         1 UNK         0.0600 
    233 H233       -1.4800  -21.0711  -53.6595 H         1 UNK         0.0600 
    234 H234       -1.3392  -19.3172  -53.7068 H         1 UNK         0.0600 
    235 H235       -5.7906  -20.0990  -53.9307 H         1 UNK         0.3000 
    236 H236       -5.8389  -20.8659  -51.1683 H         1 UNK         0.0600 
    237 H237       -8.2897  -20.8628  -51.5175 H         1 UNK         0.0600 
    238 H238       -8.0931  -20.0475  -53.0651 H         1 UNK         0.0600 
    239 H239       -7.4765  -21.6828  -52.8394 H         1 UNK         0.0600 
    240 H240       -4.4075  -18.7024  -50.9557 H         1 UNK         0.3000 
    241 H241       -5.7728  -16.2319  -50.4963 H         1 UNK         0.0600 
    242 H242       -6.4007  -15.9772  -46.9891 H         1 UNK         0.3800 
    243 H243       -6.0925  -15.0566  -48.4329 H         1 UNK         0.3800 
    244 H244       -3.5764  -15.5493  -49.4379 H         1 UNK         0.0800 
    245 H245       -3.0058  -17.1990  -49.6001 H         1 UNK         0.0800 
    246 H246       -1.6237  -14.5819  -50.6340 H         1 UNK         0.0800 
    247 H247       -1.2688  -14.7345  -52.3344 H         1 UNK         0.0800 
@<TRIPOS>BOND
     1    1    2 1    
     2    1  127 1    
     3    1  128 1    
     4    1  129 1    
     5    2    3 2    
     6    2    4 am   BACKBONE|DICT|INTERRES
     7    4    5 1    
     8    4  130 1    
     9    5    6 1    
    10    5   65 1    
    11    5  131 1    
    12    6    7 1    
    13    6  132 1    
    14    6  133 1    
    15    7    8 1    
    16    8    9 1    
    17    8  134 1    
    18    8  135 1    
    19    9   10 ar   
    20    9   14 ar   
    21   10   11 ar   
    22   10  136 1    
    23   11   12 ar   
    24   11  126 1    
    25   12   13 ar   
    26   12  137 1    
    27   13   14 ar   
    28   13   15 1    
    29   14  138 1    
    30   15   16 1    
    31   15  139 1    
    32   15  140 1    
    33   16   17 1    
    34   17   18 1    
    35   17  141 1    
    36   17  142 1    
    37   18   19 1    
    38   18   67 1    
    39   18  143 1    
    40   19   20 am   BACKBONE|DICT|INTERRES
    41   19  144 1    
    42   20   21 2    
    43   20   22 1    
    44   22   23 1    
    45   22   24 1    
    46   22  145 1    
    47   23  146 1    
    48   23  147 1    
    49   23  148 1    
    50   24   25 am   BACKBONE|DICT|INTERRES
    51   24  149 1    
    52   25   26 2    
    53   25   27 1    
    54   27   28 1    
    55   27   29 1    
    56   27  150 1    
    57   28  151 1    
    58   28  152 1    
    59   28  153 1    
    60   29   30 am   BACKBONE|DICT|INTERRES
    61   29  154 1    
    62   30   31 2    
    63   30   32 1    
    64   32   33 1    
    65   32   34 1    
    66   32  155 1    
    67   33  156 1    
    68   33  157 1    
    69   33  158 1    
    70   34   35 am   BACKBONE|DICT|INTERRES
    71   34  159 1    
    72   35   36 2    
    73   35   37 1    
    74   37   38 1    
    75   37   39 1    
    76   37  160 1    
    77   38  161 1    
    78   38  162 1    
    79   38  163 1    
    80   39   40 am   BACKBONE|DICT|INTERRES
    81   39  164 1    
    82   40   41 2    
    83   40   42 1    
    84   42   43 1    
    85   42   44 1    
    86   42  165 1    
    87   43  166 1    
    88   43  167 1    
    89   43  168 1    
    90   44   45 am   BACKBONE|DICT|INTERRES
    91   44  169 1    
    92   45   46 2    
    93   45   47 1    
    94   47   48 1    
    95   47   49 1    
    96   47  170 1    
    97   48  171 1    
    98   48  172 1    
    99   48  173 1    
   100   49   50 am   BACKBONE|DICT|INTERRES
   101   49  174 1    
   102   50   51 2    
   103   50   52 1    
   104   52   53 1    
   105   52   54 1    
   106   52  175 1    
   107   53  176 1    
   108   53  177 1    
   109   53  178 1    
   110   54   55 am   BACKBONE|DICT|INTERRES
   111   54  179 1    
   112   55   56 2    
   113   55   57 1    
   114   57   58 1    
   115   57   59 1    
   116   57  180 1    
   117   58  181 1    
   118   58  182 1    
   119   58  183 1    
   120   59   60 am   BACKBONE|DICT|INTERRES
   121   59  184 1    
   122   60   61 2    
   123   60   62 1    
   124   62   63 1    
   125   62   64 1    
   126   62  185 1    
   127   63  186 1    
   128   63  187 1    
   129   63  188 1    
   130   64   65 am   BACKBONE|DICT|INTERRES
   131   64  189 1    
   132   65   66 2    
   133   67   68 2    
   134   67   69 am   BACKBONE|DICT|INTERRES
   135   69   70 1    
   136   69  190 1    
   137   70   71 1    
   138   70   72 1    
   139   70  191 1    
   140   71  192 1    
   141   71  193 1    
   142   71  194 1    
   143   72   73 2    
   144   72   74 am   BACKBONE|DICT|INTERRES
   145   74   75 1    
   146   74  195 1    
   147   75   76 1    
   148   75   77 1    
   149   75  196 1    
   150   76  197 1    
   151   76  198 1    
   152   76  199 1    
   153   77   78 2    
   154   77   79 am   BACKBONE|DICT|INTERRES
   155   79   80 1    
   156   79  200 1    
   157   80   81 1    
   158   80   82 1    
   159   80  201 1    
   160   81  202 1    
   161   81  203 1    
   162   81  204 1    
   163   82   83 2    
   164   82   84 am   BACKBONE|DICT|INTERRES
   165   84   85 1    
   166   84  205 1    
   167   85   86 1    
   168   85   87 1    
   169   85  206 1    
   170   86  207 1    
   171   86  208 1    
   172   86  209 1    
   173   87   88 2    
   174   87   89 am   BACKBONE|DICT|INTERRES
   175   89   90 1    
   176   89  210 1    
   177   90   91 1    
   178   90   92 1    
   179   90  211 1    
   180   91  212 1    
   181   91  213 1    
   182   91  214 1    
   183   92   93 2    
   184   92   94 am   BACKBONE|DICT|INTERRES
   185   94   95 1    
   186   94  215 1    
   187   95   96 1    
   188   95   97 1    
   189   95  216 1    
   190   96  217 1    
   191   96  218 1    
   192   96  219 1    
   193   97   98 2    
   194   97   99 am   BACKBONE|DICT|INTERRES
   195   99  100 1    
   196   99  220 1    
   197  100  101 1    
   198  100  102 1    
   199  100  221 1    
   200  101  222 1    
   201  101  223 1    
   202  101  224 1    
   203  102  103 2    
   204  102  104 am   BACKBONE|DICT|INTERRES
   205  104  105 1    
   206  104  225 1    
   207  105  106 1    
   208  105  107 1    
   209  105  226 1    
   210  106  227 1    
   211  106  228 1    
   212  106  229 1    
   213  107  108 2    
   214  107  109 am   BACKBONE|DICT|INTERRES
   215  109  110 1    
   216  109  230 1    
   217  110  111 1    
   218  110  112 1    
   219  110  231 1    
   220  111  232 1    
   221  111  233 1    
   222  111  234 1    
   223  112  113 2    
   224  112  114 am   BACKBONE|DICT|INTERRES
   225  114  115 1    
   226  114  235 1    
   227  115  116 1    
   228  115  117 1    
   229  115  236 1    
   230  116  237 1    
   231  116  238 1    
   232  116  239 1    
   233  117  118 2    
   234  117  119 am   BACKBONE|DICT|INTERRES
   235  119  120 1    
   236  119  240 1    
   237  120  121 1    
   238  120  124 1    
   239  120  241 1    
   240  121  122 am   BACKBONE|DICT|INTERRES
   241  121  123 2    
   242  122  242 1    
   243  122  243 1    
   244  124  125 1    
   245  124  244 1    
   246  124  245 1    
   247  125  126 1    
   248  126  246 1    
   249  126  247 1    
@<TRIPOS>SUBSTRUCTURE
     1 UNK         1 GROUP             0       ****    0 ROOT    
