@<TRIPOS>MOLECULE
3R540
247   249    1
SMALL
USER_CHARGES


@<TRIPOS>ATOM
      1 CA         -2.3643   -7.4913  -43.1115 C.3       0 UNK        -0.1800 
      2 C          -2.3296   -7.7750  -44.6065 C.2       0 UNK         0.5000 
      3 O          -2.4824   -6.8541  -45.4090 O.2       0 UNK        -0.5000 
      4 N          -2.1283   -9.0444  -44.9826 N.am      1 UNK        -0.5000 
      5 CA         -2.0409   -9.5095  -46.3737 C.3       1 UNK         0.1400 
      6 C6         -2.3064  -11.0304  -46.4875 C.3       23 UNK        -0.0398 
      7 S7         -1.1834  -12.0583  -45.4757 S.3       23 UNK        -0.2404 
      8 C8         -0.1385  -12.7896  -46.7710 C.3       23 UNK        -0.0205 
      9 C9         -0.8635  -13.8656  -47.5667 C.ar      23 UNK        -0.0193 
     10 C10        -1.0286  -13.7277  -48.9471 C.ar      23 UNK        -0.1150 
     11 C11        -1.6804  -14.7179  -49.6879 C.ar      23 UNK        -0.0193 
     12 C12        -2.1811  -15.8499  -49.0370 C.ar      23 UNK        -0.1150 
     13 C13        -2.0182  -16.0013  -47.6571 C.ar      23 UNK        -0.0193 
     14 C14        -1.3521  -15.0103  -46.9302 C.ar      23 UNK        -0.1150 
     15 C15        -2.5771  -17.2202  -46.9409 C.3       23 UNK        -0.0205 
     16 S16        -1.3777  -18.5884  -46.9091 S.3       23 UNK        -0.2404 
     17 C17        -2.0218  -19.5872  -45.5262 C.3       23 UNK        -0.0398 
     18 CA         -2.3649  -21.0271  -45.9659 C.3       11 UNK         0.1400 
     19 N          -1.1778  -21.8025  -46.3397 N.am      11 UNK        -0.5000 
     20 C          -1.2068  -22.9766  -46.9842 C.2       10 UNK         0.5000 
     21 O          -2.2431  -23.5226  -47.3596 O.2       10 UNK        -0.5000 
     22 CA          0.1415  -23.6825  -47.2066 C.3       10 UNK         0.1400 
     23 CB          0.8773  -23.0793  -48.4108 C.3       10 UNK        -0.1800 
     24 N           0.9984  -23.6268  -46.0220 N.am      10 UNK        -0.5000 
     25 C           0.7199  -24.2443  -44.8646 C.2       9 UNK         0.5000 
     26 O          -0.2615  -24.9662  -44.6975 O.2       9 UNK        -0.5000 
     27 CA          1.6694  -23.9781  -43.6815 C.3       9 UNK         0.1400 
     28 CB          2.8104  -25.0060  -43.6669 C.3       9 UNK        -0.1800 
     29 N           2.2355  -22.6262  -43.6672 N.am      9 UNK        -0.5000 
     30 C           1.5243  -21.4927  -43.6025 C.2       8 UNK         0.5000 
     31 O           0.2902  -21.4570  -43.5940 O.2       8 UNK        -0.5000 
     32 CA          2.3424  -20.1886  -43.6071 C.3       8 UNK         0.1400 
     33 CB          2.8179  -19.8658  -45.0317 C.3       8 UNK        -0.1800 
     34 N           1.5792  -19.0544  -43.0853 N.am      8 UNK        -0.5000 
     35 C           1.2556  -18.8911  -41.7940 C.2       7 UNK         0.5000 
     36 O           1.6380  -19.6530  -40.9032 O.2       7 UNK        -0.5000 
     37 CA          0.3462  -17.6929  -41.4351 C.3       7 UNK         0.1400 
     38 CB          0.5281  -17.2148  -39.9788 C.3       7 UNK        -0.1800 
     39 N           0.4416  -16.5667  -42.3709 N.am      7 UNK        -0.5000 
     40 C           1.5165  -15.8073  -42.6282 C.2       6 UNK         0.5000 
     41 O           2.6081  -15.9274  -42.0682 O.2       6 UNK        -0.5000 
     42 CA          1.3360  -14.7513  -43.7374 C.3       6 UNK         0.1400 
     43 CB          1.8150  -13.3672  -43.2701 C.3       6 UNK        -0.1800 
     44 N           2.0309  -15.1101  -44.9763 N.am      6 UNK        -0.5000 
     45 C           1.8849  -16.2592  -45.6560 C.2       5 UNK         0.5000 
     46 O           1.1193  -17.1546  -45.3021 O.2       5 UNK        -0.5000 
     47 CA          2.7140  -16.4581  -46.9453 C.3       5 UNK         0.1400 
     48 CB          1.8067  -16.4925  -48.1854 C.3       5 UNK        -0.1800 
     49 N           3.7414  -15.4400  -47.1573 N.am      5 UNK        -0.5000 
     50 C           4.8676  -15.3007  -46.4459 C.2       4 UNK         0.5000 
     51 O           5.2184  -16.0854  -45.5648 O.2       4 UNK        -0.5000 
     52 CA          5.7388  -14.0638  -46.7558 C.3       4 UNK         0.1400 
     53 CB          7.0122  -14.4786  -47.5094 C.3       4 UNK        -0.1800 
     54 N           5.0563  -13.0136  -47.5245 N.am      4 UNK        -0.5000 
     55 C           3.9989  -12.3062  -47.1052 C.2       3 UNK         0.5000 
     56 O           3.4416  -12.4844  -46.0190 O.2       3 UNK        -0.5000 
     57 CA          3.4470  -11.2642  -48.0863 C.3       3 UNK         0.1400 
     58 CB          2.6575  -11.9377  -49.2248 C.3       3 UNK        -0.1800 
     59 N           2.5930  -10.3326  -47.3539 N.am      3 UNK        -0.5000 
     60 C           2.3950   -9.0530  -47.6878 C.2       2 UNK         0.5000 
     61 O           2.8301   -8.5472  -48.7248 O.2       2 UNK        -0.5000 
     62 CA          1.5996   -8.1984  -46.6776 C.3       2 UNK         0.1400 
     63 CB          1.3968   -6.7423  -47.1478 C.3       2 UNK        -0.1800 
     64 N           0.3140   -8.7846  -46.2831 N.am      2 UNK        -0.5000 
     65 C          -0.7273   -9.0875  -47.0759 C.2       1 UNK         0.5000 
     66 O          -0.7019   -9.0191  -48.3052 O.2       1 UNK        -0.5000 
     67 C          -3.1844  -21.7500  -44.8810 C.2       11 UNK         0.5000 
     68 O          -4.4102  -21.7991  -44.9877 O.2       11 UNK        -0.5000 
     69 N          -2.4984  -22.3509  -43.8969 N.am      12 UNK        -0.5000 
     70 CA         -3.0993  -23.1933  -42.8571 C.3       12 UNK         0.1400 
     71 CB         -2.0266  -23.5751  -41.8270 C.3       12 UNK        -0.1800 
     72 C          -3.7895  -24.4519  -43.4245 C.2       12 UNK         0.5000 
     73 O          -4.8020  -24.8906  -42.8792 O.2       12 UNK        -0.5000 
     74 N          -3.2622  -24.9696  -44.5414 N.am      13 UNK        -0.5000 
     75 CA         -3.8260  -26.0580  -45.3390 C.3       13 UNK         0.1400 
     76 CB         -2.6734  -26.8145  -46.0234 C.3       13 UNK        -0.1800 
     77 C          -4.8780  -25.5822  -46.3666 C.2       13 UNK         0.5000 
     78 O          -5.1826  -26.3329  -47.2929 O.2       13 UNK        -0.5000 
     79 N          -5.4114  -24.3604  -46.2097 N.am      14 UNK        -0.5000 
     80 CA         -6.4390  -23.7257  -47.0435 C.3       14 UNK         0.1400 
     81 CB         -7.7747  -24.4947  -46.9567 C.3       14 UNK        -0.1800 
     82 C          -5.9615  -23.5057  -48.4916 C.2       14 UNK         0.5000 
     83 O          -6.6080  -23.9561  -49.4387 O.2       14 UNK        -0.5000 
     84 N          -4.8055  -22.8406  -48.6222 N.am      15 UNK        -0.5000 
     85 CA         -4.0777  -22.5606  -49.8657 C.3       15 UNK         0.1400 
     86 CB         -4.8738  -21.5990  -50.7707 C.3       15 UNK        -0.1800 
     87 C          -3.6481  -23.8567  -50.5814 C.2       15 UNK         0.5000 
     88 O          -3.8121  -23.9781  -51.7978 O.2       15 UNK        -0.5000 
     89 N          -3.1244  -24.7965  -49.7807 N.am      16 UNK        -0.5000 
     90 CA         -2.7172  -26.1593  -50.1288 C.3       16 UNK         0.1400 
     91 CB         -1.4515  -26.1388  -51.0079 C.3       16 UNK        -0.1800 
     92 C          -3.8760  -26.9749  -50.7376 C.2       16 UNK         0.5000 
     93 O          -3.7582  -27.4866  -51.8508 O.2       16 UNK        -0.5000 
     94 N          -4.9839  -27.0580  -49.9876 N.am      17 UNK        -0.5000 
     95 CA         -6.2448  -27.7223  -50.3287 C.3       17 UNK         0.1400 
     96 CB         -6.0541  -29.2511  -50.4172 C.3       17 UNK        -0.1800 
     97 C          -6.9105  -27.1134  -51.5793 C.2       17 UNK         0.5000 
     98 O          -7.2960  -27.8402  -52.4973 O.2       17 UNK        -0.5000 
     99 N          -7.0231  -25.7771  -51.5813 N.am      18 UNK        -0.5000 
    100 CA        -7.6092  -24.9332  -52.6262 C.3       18 UNK         0.1400 
    101 CB        -9.1258  -25.1887  -52.7514 C.3       18 UNK        -0.1800 
    102 C         -6.8688  -25.0094  -53.9790 C.2       18 UNK         0.5000 
    103 O         -7.4867  -24.8303  -55.0301 O.2       18 UNK        -0.5000 
    104 N         -5.5496  -25.2406  -53.9337 N.am      19 UNK        -0.5000 
    105 CA        -4.6640  -25.2337  -55.1008 C.3       19 UNK         0.1400 
    106 CB        -3.4236  -26.0846  -54.7942 C.3       19 UNK        -0.1800 
    107 C         -4.2466  -23.8113  -55.5234 C.2       19 UNK         0.5000 
    108 O         -3.6745  -23.6537  -56.6026 O.2       19 UNK        -0.5000 
    109 N         -4.5316  -22.8157  -54.6688 N.am      20 UNK        -0.5000 
    110 CA        -4.1869  -21.3979  -54.8006 C.3       20 UNK         0.1400 
    111 CB        -4.8436  -20.7656  -56.0460 C.3       20 UNK        -0.1800 
    112 C         -2.6630  -21.1859  -54.7310 C.2       20 UNK         0.5000 
    113 O         -2.0794  -20.5429  -55.6050 O.2       20 UNK        -0.5000 
    114 N         -2.0518  -21.7411  -53.6731 N.am      21 UNK        -0.5000 
    115 CA        -0.6086  -21.7539  -53.3984 C.3       21 UNK         0.1400 
    116 CB        -0.3763  -22.4586  -52.0538 C.3       21 UNK        -0.1800 
    117 C          0.0918  -20.3771  -53.4015 C.2       21 UNK         0.5000 
    118 O          1.2918  -20.3143  -53.6715 O.2       21 UNK        -0.5000 
    119 N         -0.6622  -19.3067  -53.1199 N.am      22 UNK        -0.5000 
    120 CA        -0.2213  -17.9083  -53.2526 C.3       22 UNK         0.1400 
    121 C         -0.0204  -17.4389  -54.7305 C.2       22 UNK         0.5000 
    122 N         -0.5564  -18.1246  -55.7339 N.am      22 UNK        -0.7600 
    123 O          0.6594  -16.4477  -54.9806 O.2       22 UNK        -0.5000 
    124 C124       -1.1706  -16.9712  -52.4597 C.3       23 UNK        -0.0398 
    125 S125       -0.4663  -15.3274  -52.0933 S.3       23 UNK        -0.2404 
    126 C126       -1.8422  -14.5523  -51.1899 C.3       23 UNK        -0.0205 
    127 H127       -2.2167   -8.3973  -42.5232 H         1 UNK         0.0600 
    128 H128       -3.3255   -7.0587  -42.8340 H         1 UNK         0.0600 
    129 H129       -1.5804   -6.7819  -42.8461 H         1 UNK         0.0600 
    130 H130       -2.0135   -9.7623  -44.2803 H         1 UNK         0.3000 
    131 H131       -2.8426   -9.0135  -46.9255 H         1 UNK         0.0600 
    132 H132       -3.3245  -11.2411  -46.1580 H         1 UNK         0.0800 
    133 H133       -2.2738  -11.3472  -47.5313 H         1 UNK         0.0800 
    134 H134        0.7510  -13.2197  -46.3168 H         1 UNK         0.0800 
    135 H135        0.2107  -11.9904  -47.4245 H         1 UNK         0.0800 
    136 H136       -0.6436  -12.8515  -49.4500 H         1 UNK         0.1150 
    137 H137       -2.6945  -16.6144  -49.6023 H         1 UNK         0.1150 
    138 H138       -1.2191  -15.1270  -45.8643 H         1 UNK         0.1150 
    139 H139       -2.8464  -16.9397  -45.9215 H         1 UNK         0.0800 
    140 H140       -3.4969  -17.5556  -47.4223 H         1 UNK         0.0800 
    141 H141       -2.9049  -19.0974  -45.1125 H         1 UNK         0.0800 
    142 H142       -1.2781  -19.5889  -44.7278 H         1 UNK         0.0800 
    143 H143       -3.0045  -20.9595  -46.8488 H         1 UNK         0.0600 
    144 H144       -0.2914  -21.4403  -46.0214 H         1 UNK         0.3000 
    145 H145       -0.0654  -24.7320  -47.4272 H         1 UNK         0.0600 
    146 H146        1.1195  -22.0272  -48.2549 H         1 UNK         0.0600 
    147 H147        1.8063  -23.6124  -48.6134 H         1 UNK         0.0600 
    148 H148        0.2636  -23.1473  -49.3091 H         1 UNK         0.0600 
    149 H149        1.8279  -23.0550  -46.0776 H         1 UNK         0.3000 
    150 H150        1.0918  -24.1001  -42.7636 H         1 UNK         0.0600 
    151 H151        2.4185  -26.0240  -43.6543 H         1 UNK         0.0600 
    152 H152        3.4355  -24.8898  -42.7814 H         1 UNK         0.0600 
    153 H153        3.4498  -24.9112  -44.5455 H         1 UNK         0.0600 
    154 H154        3.2435  -22.5671  -43.6846 H         1 UNK         0.3000 
    155 H155        3.2201  -20.3314  -42.9732 H         1 UNK         0.0600 
    156 H156        3.4180  -20.6773  -45.4448 H         1 UNK         0.0600 
    157 H157        3.4417  -18.9721  -45.0381 H         1 UNK         0.0600 
    158 H158        1.9791  -19.6999  -45.7093 H         1 UNK         0.0600 
    159 H159        1.2381  -18.3865  -43.7709 H         1 UNK         0.3000 
    160 H160       -0.6744  -18.0670  -41.5265 H         1 UNK         0.0600 
    161 H161       -0.1344  -16.3796  -39.7518 H         1 UNK         0.0600 
    162 H162        1.5516  -16.8950  -39.7816 H         1 UNK         0.0600 
    163 H163        0.2943  -18.0120  -39.2723 H         1 UNK         0.0600 
    164 H164       -0.3847  -16.4095  -42.9305 H         1 UNK         0.3000 
    165 H165        0.2729  -14.6698  -43.9710 H         1 UNK         0.0600 
    166 H166        2.8940  -13.3471  -43.1116 H         1 UNK         0.0600 
    167 H167        1.5712  -12.5961  -44.0004 H         1 UNK         0.0600 
    168 H168        1.3376  -13.0842  -42.3313 H         1 UNK         0.0600 
    169 H169        2.6826  -14.4214  -45.3310 H         1 UNK         0.3000 
    170 H170        3.2084  -17.4273  -46.8636 H         1 UNK         0.0600 
    171 H171        1.3247  -15.5308  -48.3587 H         1 UNK         0.0600 
    172 H172        2.3716  -16.7488  -49.0817 H         1 UNK         0.0600 
    173 H173        1.0189  -17.2383  -48.0783 H         1 UNK         0.0600 
    174 H174        3.5465  -14.7483  -47.8649 H         1 UNK         0.3000 
    175 H175        6.0340  -13.6334  -45.7966 H         1 UNK         0.0600 
    176 H176        6.7804  -14.8974  -48.4895 H         1 UNK         0.0600 
    177 H177        7.6798  -13.6292  -47.6551 H         1 UNK         0.0600 
    178 H178        7.5688  -15.2341  -46.9531 H         1 UNK         0.0600 
    179 H179        5.4425  -12.8138  -48.4363 H         1 UNK         0.3000 
    180 H180        4.2943  -10.7180  -48.5067 H         1 UNK         0.0600 
    181 H181        1.9039  -12.6278  -48.8478 H         1 UNK         0.0600 
    182 H182        3.3221  -12.5111  -49.8717 H         1 UNK         0.0600 
    183 H183        2.1546  -11.2020  -49.8526 H         1 UNK         0.0600 
    184 H184        2.2592  -10.6821  -46.4643 H         1 UNK         0.3000 
    185 H185        2.2075   -8.1623  -45.7725 H         1 UNK         0.0600 
    186 H186        0.8175   -6.6910  -48.0703 H         1 UNK         0.0600 
    187 H187        0.8750   -6.1539  -46.3929 H         1 UNK         0.0600 
    188 H188        2.3539   -6.2538  -47.3344 H         1 UNK         0.0600 
    189 H189        0.1781   -8.9027  -45.2892 H         1 UNK         0.3000 
    190 H190       -1.4907  -22.2228  -43.8584 H         1 UNK         0.3000 
    191 H191       -3.8616  -22.5981  -42.3502 H         1 UNK         0.0600 
    192 H192       -1.2580  -24.2108  -42.2651 H         1 UNK         0.0600 
    193 H193       -1.5380  -22.6911  -41.4164 H         1 UNK         0.0600 
    194 H194       -2.4664  -24.1229  -40.9928 H         1 UNK         0.0600 
    195 H195       -2.3950  -24.5754  -44.8859 H         1 UNK         0.3000 
    196 H196       -4.3329  -26.7581  -44.6723 H         1 UNK         0.0600 
    197 H197       -1.9563  -27.1831  -45.2897 H         1 UNK         0.0600 
    198 H198       -2.1339  -26.1765  -46.7231 H         1 UNK         0.0600 
    199 H199       -3.0378  -27.6800  -46.5781 H         1 UNK         0.0600 
    200 H200       -5.0595  -23.7837  -45.4551 H         1 UNK         0.3000 
    201 H201       -6.6066  -22.7336  -46.6219 H         1 UNK         0.0600 
    202 H202       -8.5652  -23.9597  -47.4842 H         1 UNK         0.0600 
    203 H203       -8.0958  -24.6102  -45.9216 H         1 UNK         0.0600 
    204 H204       -7.7055  -25.4888  -47.3993 H         1 UNK         0.0600 
    205 H205       -4.3038  -22.6164  -47.7735 H         1 UNK         0.3000 
    206 H206       -3.1576  -22.0508  -49.5761 H         1 UNK         0.0600 
    207 H207       -5.7635  -22.0719  -51.1877 H         1 UNK         0.0600 
    208 H208       -4.2599  -21.2573  -51.6029 H         1 UNK         0.0600 
    209 H209       -5.1916  -20.7133  -50.2207 H         1 UNK         0.0600 
    210 H210       -3.0121  -24.5426  -48.8033 H         1 UNK         0.3000 
    211 H211       -2.4553  -26.6521  -49.1917 H         1 UNK         0.0600 
    212 H212       -0.6448  -25.5890  -50.5231 H         1 UNK         0.0600 
    213 H213       -1.0900  -27.1507  -51.1937 H         1 UNK         0.0600 
    214 H214       -1.6382  -25.6769  -51.9762 H         1 UNK         0.0600 
    215 H215       -4.9785  -26.6211  -49.0669 H         1 UNK         0.3000 
    216 H216       -6.9233  -27.5257  -49.4972 H         1 UNK         0.0600 
    217 H217       -7.0114  -29.7554  -50.5532 H         1 UNK         0.0600 
    218 H218       -5.4145  -29.5345  -51.2536 H         1 UNK         0.0600 
    219 H219       -5.6073  -29.6449  -49.5044 H         1 UNK         0.0600 
    220 H220       -6.6947  -25.2641  -50.7649 H         1 UNK         0.3000 
    221 H221       -7.4819  -23.9070  -52.2787 H         1 UNK         0.0600 
    222 H222       -9.3384  -26.1780  -53.1574 H         1 UNK         0.0600 
    223 H223       -9.6193  -25.1095  -51.7827 H         1 UNK         0.0600 
    224 H224       -9.5933  -24.4576  -53.4118 H         1 UNK         0.0600 
    225 H225       -5.1005  -25.3489  -53.0318 H         1 UNK         0.3000 
    226 H226       -5.1846  -25.6881  -55.9462 H         1 UNK         0.0600 
    227 H227       -3.7003  -27.1108  -54.5526 H         1 UNK         0.0600 
    228 H228       -2.7502  -26.1242  -55.6512 H         1 UNK         0.0600 
    229 H229       -2.8617  -25.6793  -53.9531 H         1 UNK         0.0600 
    230 H230       -4.9461  -23.0884  -53.7882 H         1 UNK         0.3000 
    231 H231       -4.6088  -20.8955  -53.9298 H         1 UNK         0.0600 
    232 H232       -4.6901  -19.6860  -56.0580 H         1 UNK         0.0600 
    233 H233       -5.9194  -20.9407  -56.0556 H         1 UNK         0.0600 
    234 H234       -4.4312  -21.1603  -56.9748 H         1 UNK         0.0600 
    235 H235       -2.6192  -22.2962  -53.0470 H         1 UNK         0.3000 
    236 H236       -0.1403  -22.3513  -54.1830 H         1 UNK         0.0600 
    237 H237       -0.7605  -23.4771  -52.0730 H         1 UNK         0.0600 
    238 H238        0.6875  -22.5196  -51.8199 H         1 UNK         0.0600 
    239 H239       -0.8646  -21.9297  -51.2344 H         1 UNK         0.0600 
    240 H240       -1.6390  -19.4536  -52.9178 H         1 UNK         0.3000 
    241 H241        0.7618  -17.8479  -52.7813 H         1 UNK         0.0600 
    242 H242       -0.4029  -17.8092  -56.6782 H         1 UNK         0.3800 
    243 H243       -1.0951  -18.9735  -55.5768 H         1 UNK         0.3800 
    244 H244       -2.1166  -16.8483  -52.9899 H         1 UNK         0.0800 
    245 H245       -1.4161  -17.4296  -51.5009 H         1 UNK         0.0800 
    246 H246       -2.7973  -14.9649  -51.5184 H         1 UNK         0.0800 
    247 H247       -1.8710  -13.4915  -51.4434 H         1 UNK         0.0800 
@<TRIPOS>BOND
     1    1    2 1    
     2    1  127 1    
     3    1  128 1    
     4    1  129 1    
     5    2    3 2    
     6    2    4 am   BACKBONE|DICT|INTERRES
     7    4    5 1    
     8    4  130 1    
     9    5    6 1    
    10    5   65 1    
    11    5  131 1    
    12    6    7 1    
    13    6  132 1    
    14    6  133 1    
    15    7    8 1    
    16    8    9 1    
    17    8  134 1    
    18    8  135 1    
    19    9   10 ar   
    20    9   14 ar   
    21   10   11 ar   
    22   10  136 1    
    23   11   12 ar   
    24   11  126 1    
    25   12   13 ar   
    26   12  137 1    
    27   13   14 ar   
    28   13   15 1    
    29   14  138 1    
    30   15   16 1    
    31   15  139 1    
    32   15  140 1    
    33   16   17 1    
    34   17   18 1    
    35   17  141 1    
    36   17  142 1    
    37   18   19 1    
    38   18   67 1    
    39   18  143 1    
    40   19   20 am   BACKBONE|DICT|INTERRES
    41   19  144 1    
    42   20   21 2    
    43   20   22 1    
    44   22   23 1    
    45   22   24 1    
    46   22  145 1    
    47   23  146 1    
    48   23  147 1    
    49   23  148 1    
    50   24   25 am   BACKBONE|DICT|INTERRES
    51   24  149 1    
    52   25   26 2    
    53   25   27 1    
    54   27   28 1    
    55   27   29 1    
    56   27  150 1    
    57   28  151 1    
    58   28  152 1    
    59   28  153 1    
    60   29   30 am   BACKBONE|DICT|INTERRES
    61   29  154 1    
    62   30   31 2    
    63   30   32 1    
    64   32   33 1    
    65   32   34 1    
    66   32  155 1    
    67   33  156 1    
    68   33  157 1    
    69   33  158 1    
    70   34   35 am   BACKBONE|DICT|INTERRES
    71   34  159 1    
    72   35   36 2    
    73   35   37 1    
    74   37   38 1    
    75   37   39 1    
    76   37  160 1    
    77   38  161 1    
    78   38  162 1    
    79   38  163 1    
    80   39   40 am   BACKBONE|DICT|INTERRES
    81   39  164 1    
    82   40   41 2    
    83   40   42 1    
    84   42   43 1    
    85   42   44 1    
    86   42  165 1    
    87   43  166 1    
    88   43  167 1    
    89   43  168 1    
    90   44   45 am   BACKBONE|DICT|INTERRES
    91   44  169 1    
    92   45   46 2    
    93   45   47 1    
    94   47   48 1    
    95   47   49 1    
    96   47  170 1    
    97   48  171 1    
    98   48  172 1    
    99   48  173 1    
   100   49   50 am   BACKBONE|DICT|INTERRES
   101   49  174 1    
   102   50   51 2    
   103   50   52 1    
   104   52   53 1    
   105   52   54 1    
   106   52  175 1    
   107   53  176 1    
   108   53  177 1    
   109   53  178 1    
   110   54   55 am   BACKBONE|DICT|INTERRES
   111   54  179 1    
   112   55   56 2    
   113   55   57 1    
   114   57   58 1    
   115   57   59 1    
   116   57  180 1    
   117   58  181 1    
   118   58  182 1    
   119   58  183 1    
   120   59   60 am   BACKBONE|DICT|INTERRES
   121   59  184 1    
   122   60   61 2    
   123   60   62 1    
   124   62   63 1    
   125   62   64 1    
   126   62  185 1    
   127   63  186 1    
   128   63  187 1    
   129   63  188 1    
   130   64   65 am   BACKBONE|DICT|INTERRES
   131   64  189 1    
   132   65   66 2    
   133   67   68 2    
   134   67   69 am   BACKBONE|DICT|INTERRES
   135   69   70 1    
   136   69  190 1    
   137   70   71 1    
   138   70   72 1    
   139   70  191 1    
   140   71  192 1    
   141   71  193 1    
   142   71  194 1    
   143   72   73 2    
   144   72   74 am   BACKBONE|DICT|INTERRES
   145   74   75 1    
   146   74  195 1    
   147   75   76 1    
   148   75   77 1    
   149   75  196 1    
   150   76  197 1    
   151   76  198 1    
   152   76  199 1    
   153   77   78 2    
   154   77   79 am   BACKBONE|DICT|INTERRES
   155   79   80 1    
   156   79  200 1    
   157   80   81 1    
   158   80   82 1    
   159   80  201 1    
   160   81  202 1    
   161   81  203 1    
   162   81  204 1    
   163   82   83 2    
   164   82   84 am   BACKBONE|DICT|INTERRES
   165   84   85 1    
   166   84  205 1    
   167   85   86 1    
   168   85   87 1    
   169   85  206 1    
   170   86  207 1    
   171   86  208 1    
   172   86  209 1    
   173   87   88 2    
   174   87   89 am   BACKBONE|DICT|INTERRES
   175   89   90 1    
   176   89  210 1    
   177   90   91 1    
   178   90   92 1    
   179   90  211 1    
   180   91  212 1    
   181   91  213 1    
   182   91  214 1    
   183   92   93 2    
   184   92   94 am   BACKBONE|DICT|INTERRES
   185   94   95 1    
   186   94  215 1    
   187   95   96 1    
   188   95   97 1    
   189   95  216 1    
   190   96  217 1    
   191   96  218 1    
   192   96  219 1    
   193   97   98 2    
   194   97   99 am   BACKBONE|DICT|INTERRES
   195   99  100 1    
   196   99  220 1    
   197  100  101 1    
   198  100  102 1    
   199  100  221 1    
   200  101  222 1    
   201  101  223 1    
   202  101  224 1    
   203  102  103 2    
   204  102  104 am   BACKBONE|DICT|INTERRES
   205  104  105 1    
   206  104  225 1    
   207  105  106 1    
   208  105  107 1    
   209  105  226 1    
   210  106  227 1    
   211  106  228 1    
   212  106  229 1    
   213  107  108 2    
   214  107  109 am   BACKBONE|DICT|INTERRES
   215  109  110 1    
   216  109  230 1    
   217  110  111 1    
   218  110  112 1    
   219  110  231 1    
   220  111  232 1    
   221  111  233 1    
   222  111  234 1    
   223  112  113 2    
   224  112  114 am   BACKBONE|DICT|INTERRES
   225  114  115 1    
   226  114  235 1    
   227  115  116 1    
   228  115  117 1    
   229  115  236 1    
   230  116  237 1    
   231  116  238 1    
   232  116  239 1    
   233  117  118 2    
   234  117  119 am   BACKBONE|DICT|INTERRES
   235  119  120 1    
   236  119  240 1    
   237  120  121 1    
   238  120  124 1    
   239  120  241 1    
   240  121  122 am   BACKBONE|DICT|INTERRES
   241  121  123 2    
   242  122  242 1    
   243  122  243 1    
   244  124  125 1    
   245  124  244 1    
   246  124  245 1    
   247  125  126 1    
   248  126  246 1    
   249  126  247 1    
@<TRIPOS>SUBSTRUCTURE
     1 UNK         1 GROUP             0       ****    0 ROOT    
