@<TRIPOS>MOLECULE
3R540
247   249    1
SMALL
USER_CHARGES


@<TRIPOS>ATOM
      1 CA          4.2182   -8.2700  -48.2835 C.3       0 UNK        -0.1800 
      2 C           3.8905   -9.6230  -47.6693 C.2       0 UNK         0.5000 
      3 O           3.2279   -9.6790  -46.6342 O.2       0 UNK        -0.5000 
      4 N           4.3415  -10.7119  -48.3091 N.am      1 UNK        -0.5000 
      5 CA          4.1430  -12.1048  -47.8810 C.3       1 UNK         0.1400 
      6 C6          4.8986  -13.0828  -48.8161 C.3       23 UNK        -0.0398 
      7 S7          5.1658  -14.7436  -48.1031 S.3       23 UNK        -0.2404 
      8 C8          5.5925  -15.7149  -49.5871 C.3       23 UNK        -0.0205 
      9 C9          4.4009  -16.4559  -50.1864 C.ar      23 UNK        -0.0193 
     10 C10         3.4352  -15.7685  -50.9287 C.ar      23 UNK        -0.1150 
     11 C11         2.3702  -16.4527  -51.5207 C.ar      23 UNK        -0.0193 
     12 C12         2.2823  -17.8395  -51.3870 C.ar      23 UNK        -0.1150 
     13 C13         3.2414  -18.5425  -50.6554 C.ar      23 UNK        -0.0193 
     14 C14         4.2914  -17.8450  -50.0473 C.ar      23 UNK        -0.1150 
     15 C15         3.1618  -20.0590  -50.5613 C.3       23 UNK        -0.0205 
     16 S16         2.3803  -20.6135  -49.0179 S.3       23 UNK        -0.2404 
     17 C17         0.6442  -20.0982  -49.2405 C.3       23 UNK        -0.0398 
     18 CA         -0.3497  -21.0725  -48.5577 C.3       11 UNK         0.1400 
     19 N          -0.0519  -21.2444  -47.1278 N.am      11 UNK        -0.5000 
     20 C          -0.3679  -22.2844  -46.3444 C.2       10 UNK         0.5000 
     21 O          -1.0900  -23.2127  -46.7161 O.2       10 UNK        -0.5000 
     22 CA          0.1420  -22.2472  -44.8885 C.3       10 UNK         0.1400 
     23 CB          0.3689  -23.6473  -44.2897 C.3       10 UNK        -0.1800 
     24 N           1.3157  -21.3935  -44.6978 N.am      10 UNK        -0.5000 
     25 C           2.5636  -21.5566  -45.1644 C.2       9 UNK         0.5000 
     26 O           2.9314  -22.5254  -45.8286 O.2       9 UNK        -0.5000 
     27 CA          3.5778  -20.4476  -44.8088 C.3       9 UNK         0.1400 
     28 CB          4.0448  -19.6799  -46.0555 C.3       9 UNK        -0.1800 
     29 N           3.0119  -19.4900  -43.8553 N.am      9 UNK        -0.5000 
     30 C           3.2083  -19.5306  -42.5320 C.2       8 UNK         0.5000 
     31 O           3.9799  -20.3089  -41.9706 O.2       8 UNK        -0.5000 
     32 CA          2.3668  -18.5548  -41.6943 C.3       8 UNK         0.1400 
     33 CB          2.9642  -17.1408  -41.7426 C.3       8 UNK        -0.1800 
     34 N           0.9629  -18.5174  -42.1179 N.am      8 UNK        -0.5000 
     35 C           0.0870  -19.5087  -41.8905 C.2       7 UNK         0.5000 
     36 O           0.3958  -20.5758  -41.3611 O.2       7 UNK        -0.5000 
     37 CA         -1.3725  -19.2946  -42.3211 C.3       7 UNK         0.1400 
     38 CB         -2.1465  -18.5377  -41.2311 C.3       7 UNK        -0.1800 
     39 N          -1.4778  -18.5567  -43.5778 N.am      7 UNK        -0.5000 
     40 C          -2.1002  -19.0038  -44.6771 C.2       6 UNK         0.5000 
     41 O          -2.6072  -20.1221  -44.7879 O.2       6 UNK        -0.5000 
     42 CA         -2.1738  -18.0323  -45.8690 C.3       6 UNK         0.1400 
     43 CB         -3.4058  -17.1273  -45.7067 C.3       6 UNK        -0.1800 
     44 N          -0.9937  -17.1889  -46.0583 N.am      6 UNK        -0.5000 
     45 C           0.2834  -17.5896  -46.0915 C.2       5 UNK         0.5000 
     46 O           0.6497  -18.7579  -45.9783 O.2       5 UNK        -0.5000 
     47 CA          1.3466  -16.4891  -46.2074 C.3       5 UNK         0.1400 
     48 CB          1.5855  -16.1637  -47.6881 C.3       5 UNK        -0.1800 
     49 N           1.0637  -15.2540  -45.4620 N.am      5 UNK        -0.5000 
     50 C           0.6660  -15.1567  -44.1818 C.2       4 UNK         0.5000 
     51 O           0.3530  -16.1270  -43.4876 O.2       4 UNK        -0.5000 
     52 CA          0.6131  -13.7585  -43.5428 C.3       4 UNK         0.1400 
     53 CB          1.8931  -13.4911  -42.7356 C.3       4 UNK        -0.1800 
     54 N           0.4285  -12.6706  -44.5068 N.am      4 UNK        -0.5000 
     55 C          -0.4199  -11.6451  -44.3312 C.2       3 UNK         0.5000 
     56 O          -1.1886  -11.5538  -43.3729 O.2       3 UNK        -0.5000 
     57 CA         -0.4079  -10.5088  -45.3760 C.3       3 UNK         0.1400 
     58 CB          0.3657   -9.2959  -44.8368 C.3       3 UNK        -0.1800 
     59 N           0.1701  -10.9096  -46.6572 N.am      3 UNK        -0.5000 
     60 C          -0.4413  -11.7134  -47.5382 C.2       2 UNK         0.5000 
     61 O          -1.6073  -12.0856  -47.4080 O.2       2 UNK        -0.5000 
     62 CA          0.3719  -12.1944  -48.7597 C.3       2 UNK         0.1400 
     63 CB         -0.1501  -11.5314  -50.0441 C.3       2 UNK        -0.1800 
     64 N           1.8212  -11.9765  -48.6806 N.am      2 UNK        -0.5000 
     65 C           2.6482  -12.4728  -47.7486 C.2       1 UNK         0.5000 
     66 O           2.2629  -13.1242  -46.7778 O.2       1 UNK        -0.5000 
     67 C          -1.8223  -20.6726  -48.8145 C.2       11 UNK         0.5000 
     68 O          -2.1082  -19.8681  -49.7027 O.2       11 UNK        -0.5000 
     69 N          -2.7243  -21.2541  -48.0238 N.am      12 UNK        -0.5000 
     70 CA         -4.1753  -21.2060  -48.1184 C.3       12 UNK         0.1400 
     71 CB         -4.7431  -19.8300  -47.7305 C.3       12 UNK        -0.1800 
     72 C          -4.7242  -22.3113  -47.2103 C.2       12 UNK         0.5000 
     73 O          -5.5448  -23.1062  -47.6628 O.2       12 UNK        -0.5000 
     74 N          -4.2224  -22.3675  -45.9654 N.am      13 UNK        -0.5000 
     75 CA         -4.6097  -23.3369  -44.9392 C.3       13 UNK         0.1400 
     76 CB         -3.9379  -22.9624  -43.6078 C.3       13 UNK        -0.1800 
     77 C          -4.3055  -24.7987  -45.3191 C.2       13 UNK         0.5000 
     78 O          -5.2214  -25.6215  -45.3447 O.2       13 UNK        -0.5000 
     79 N          -3.0351  -25.0951  -45.6280 N.am      14 UNK        -0.5000 
     80 CA         -2.5867  -26.4269  -46.0524 C.3       14 UNK         0.1400 
     81 CB         -1.0947  -26.5995  -45.7321 C.3       14 UNK        -0.1800 
     82 C          -2.8439  -26.6654  -47.5493 C.2       14 UNK         0.5000 
     83 O          -3.0080  -27.8106  -47.9696 O.2       14 UNK        -0.5000 
     84 N          -2.9003  -25.5711  -48.3183 N.am      15 UNK        -0.5000 
     85 CA         -3.2099  -25.5450  -49.7466 C.3       15 UNK         0.1400 
     86 CB         -2.7184  -24.2047  -50.3051 C.3       15 UNK        -0.1800 
     87 C          -4.7065  -25.7588  -50.0658 C.2       15 UNK         0.5000 
     88 O          -5.0636  -25.8299  -51.2448 O.2       15 UNK        -0.5000 
     89 N          -5.5501  -25.8219  -49.0221 N.am      16 UNK        -0.5000 
     90 CA         -7.0005  -26.0534  -49.0289 C.3       16 UNK         0.1400 
     91 CB         -7.3021  -27.4943  -49.4894 C.3       16 UNK        -0.1800 
     92 C          -7.7968  -25.0015  -49.8302 C.2       16 UNK         0.5000 
     93 O          -8.8723  -25.3081  -50.3471 O.2       16 UNK        -0.5000 
     94 N          -7.2267  -23.7931  -49.9517 N.am      17 UNK        -0.5000 
     95 CA         -7.6466  -22.6799  -50.8112 C.3       17 UNK         0.1400 
     96 CB         -8.9715  -22.0763  -50.3030 C.3       17 UNK        -0.1800 
     97 C          -7.6977  -23.0359  -52.3189 C.2       17 UNK         0.5000 
     98 O          -8.3609  -22.3325  -53.0833 O.2       17 UNK        -0.5000 
     99 N          -7.0242  -24.1244  -52.7193 N.am      18 UNK        -0.5000 
    100 CA        -7.1023  -24.7216  -54.0499 C.3       18 UNK         0.1400 
    101 CB        -7.5857  -26.1755  -53.9180 C.3       18 UNK        -0.1800 
    102 C         -5.7466  -24.6597  -54.7627 C.2       18 UNK         0.5000 
    103 O         -5.6823  -24.1801  -55.8953 O.2       18 UNK        -0.5000 
    104 N         -4.6837  -25.1299  -54.0932 N.am      19 UNK        -0.5000 
    105 CA        -3.3153  -25.1077  -54.6238 C.3       19 UNK         0.1400 
    106 CB        -2.4671  -26.1498  -53.8783 C.3       19 UNK        -0.1800 
    107 C         -2.6718  -23.7084  -54.5449 C.2       19 UNK         0.5000 
    108 O         -1.7583  -23.4074  -55.3137 O.2       19 UNK        -0.5000 
    109 N         -3.1785  -22.8842  -53.6254 N.am      20 UNK        -0.5000 
    110 CA        -2.8193  -21.5030  -53.3465 C.3       20 UNK         0.1400 
    111 CB        -1.4333  -21.4194  -52.6783 C.3       20 UNK        -0.1800 
    112 C         -3.9110  -20.9519  -52.4196 C.2       20 UNK         0.5000 
    113 O         -4.5921  -21.7346  -51.7511 O.2       20 UNK        -0.5000 
    114 N         -4.0570  -19.6264  -52.3895 N.am      21 UNK        -0.5000 
    115 CA        -5.0004  -18.9120  -51.5326 C.3       21 UNK         0.1400 
    116 CB        -6.4006  -18.8937  -52.1773 C.3       21 UNK        -0.1800 
    117 C         -4.4391  -17.5117  -51.2411 C.2       21 UNK         0.5000 
    118 O         -5.1247  -16.5072  -51.4430 O.2       21 UNK        -0.5000 
    119 N         -3.1720  -17.4691  -50.8132 N.am      22 UNK        -0.5000 
    120 CA        -2.3904  -16.2486  -50.5639 C.3       22 UNK         0.1400 
    121 C         -2.7716  -15.5315  -49.2343 C.2       22 UNK         0.5000 
    122 N         -4.0347  -15.1697  -49.0570 N.am      22 UNK        -0.7600 
    123 O         -1.9412  -15.3108  -48.3578 O.2       22 UNK        -0.5000 
    124 C124       -0.8715  -16.5195  -50.7234 C.3       23 UNK        -0.0398 
    125 S125        0.0335  -15.0162  -51.2302 S.3       23 UNK        -0.2404 
    126 C126        1.3225  -15.6934  -52.3168 C.3       23 UNK        -0.0205 
    127 H127        4.8104   -8.3696  -49.1933 H         1 UNK         0.0600 
    128 H128        4.7823   -7.6640  -47.5748 H         1 UNK         0.0600 
    129 H129        3.2993   -7.7390  -48.5316 H         1 UNK         0.0600 
    130 H130        4.8797  -10.5867  -49.1545 H         1 UNK         0.3000 
    131 H131        4.5811  -12.1845  -46.8838 H         1 UNK         0.0600 
    132 H132        4.3924  -13.1594  -49.7774 H         1 UNK         0.0800 
    133 H133        5.8897  -12.6838  -49.0370 H         1 UNK         0.0800 
    134 H134        6.3706  -16.4281  -49.3110 H         1 UNK         0.0800 
    135 H135        6.0403  -15.0677  -50.3426 H         1 UNK         0.0800 
    136 H136        3.5083  -14.6999  -51.0573 H         1 UNK         0.1150 
    137 H137        1.4715  -18.3737  -51.8611 H         1 UNK         0.1150 
    138 H138        5.0361  -18.3904  -49.4847 H         1 UNK         0.1150 
    139 H139        2.6216  -20.4723  -51.4144 H         1 UNK         0.0800 
    140 H140        4.1682  -20.4770  -50.6114 H         1 UNK         0.0800 
    141 H141        0.4361  -20.0374  -50.3097 H         1 UNK         0.0800 
    142 H142        0.5291  -19.0890  -48.8440 H         1 UNK         0.0800 
    143 H143       -0.2226  -22.0468  -49.0341 H         1 UNK         0.0600 
    144 H144        0.4577  -20.4742  -46.7020 H         1 UNK         0.3000 
    145 H145       -0.6511  -21.7816  -44.3053 H         1 UNK         0.0600 
    146 H146        0.7897  -23.5841  -43.2861 H         1 UNK         0.0600 
    147 H147       -0.5732  -24.1873  -44.2060 H         1 UNK         0.0600 
    148 H148        1.0434  -24.2470  -44.9013 H         1 UNK         0.0600 
    149 H149        1.1418  -20.5399  -44.1896 H         1 UNK         0.3000 
    150 H150        4.4514  -20.9397  -44.3765 H         1 UNK         0.0600 
    151 H151        4.4958  -20.3550  -46.7836 H         1 UNK         0.0600 
    152 H152        4.7957  -18.9325  -45.7996 H         1 UNK         0.0600 
    153 H153        3.2206  -19.1668  -46.5499 H         1 UNK         0.0600 
    154 H154        2.3523  -18.8231  -44.2302 H         1 UNK         0.3000 
    155 H155        2.3994  -18.8941  -40.6565 H         1 UNK         0.0600 
    156 H156        3.9969  -17.1417  -41.3920 H         1 UNK         0.0600 
    157 H157        2.4050  -16.4599  -41.1013 H         1 UNK         0.0600 
    158 H158        2.9626  -16.7324  -42.7536 H         1 UNK         0.0600 
    159 H159        0.6515  -17.6554  -42.5601 H         1 UNK         0.3000 
    160 H160       -1.8222  -20.2847  -42.4231 H         1 UNK         0.0600 
    161 H161       -1.7531  -17.5312  -41.0829 H         1 UNK         0.0600 
    162 H162       -2.0885  -19.0592  -40.2748 H         1 UNK         0.0600 
    163 H163       -3.2019  -18.4497  -41.4896 H         1 UNK         0.0600 
    164 H164       -1.0517  -17.6368  -43.6066 H         1 UNK         0.3000 
    165 H165       -2.2910  -18.6281  -46.7733 H         1 UNK         0.0600 
    166 H166       -3.6320  -16.5982  -46.6298 H         1 UNK         0.0600 
    167 H167       -4.2955  -17.6991  -45.4415 H         1 UNK         0.0600 
    168 H168       -3.2561  -16.3842  -44.9225 H         1 UNK         0.0600 
    169 H169       -1.1747  -16.2063  -46.2153 H         1 UNK         0.3000 
    170 H170        2.2740  -16.8950  -45.7999 H         1 UNK         0.0600 
    171 H171        1.7554  -17.0677  -48.2740 H         1 UNK         0.0600 
    172 H172        0.7388  -15.6365  -48.1263 H         1 UNK         0.0600 
    173 H173        2.4644  -15.5390  -47.8181 H         1 UNK         0.0600 
    174 H174        1.3580  -14.4058  -45.9395 H         1 UNK         0.3000 
    175 H175       -0.2257  -13.7852  -42.8444 H         1 UNK         0.0600 
    176 H176        2.0453  -14.2569  -41.9755 H         1 UNK         0.0600 
    177 H177        2.7758  -13.4792  -43.3761 H         1 UNK         0.0600 
    178 H178        1.8405  -12.5322  -42.2200 H         1 UNK         0.0600 
    179 H179        1.0313  -12.6737  -45.3234 H         1 UNK         0.3000 
    180 H180       -1.4426  -10.2023  -45.5435 H         1 UNK         0.0600 
    181 H181        1.4019   -9.5496  -44.6098 H         1 UNK         0.0600 
    182 H182       -0.0875   -8.9206  -43.9185 H         1 UNK         0.0600 
    183 H183        0.3702   -8.4765  -45.5557 H         1 UNK         0.0600 
    184 H184        1.1321  -10.6410  -46.8235 H         1 UNK         0.3000 
    185 H185        0.2097  -13.2708  -48.8352 H         1 UNK         0.0600 
    186 H186        0.3635  -11.9157  -50.9254 H         1 UNK         0.0600 
    187 H187       -1.2142  -11.7292  -50.1809 H         1 UNK         0.0600 
    188 H188       -0.0157  -10.4494  -50.0205 H         1 UNK         0.0600 
    189 H189        2.2219  -11.4057  -49.4103 H         1 UNK         0.3000 
    190 H190       -2.3593  -21.9326  -47.3622 H         1 UNK         0.3000 
    191 H191       -4.4612  -21.4282  -49.1468 H         1 UNK         0.0600 
    192 H192       -4.6140  -19.6314  -46.6681 H         1 UNK         0.0600 
    193 H193       -5.8125  -19.7852  -47.9386 H         1 UNK         0.0600 
    194 H194       -4.2705  -19.0195  -48.2845 H         1 UNK         0.0600 
    195 H195       -3.5952  -21.6292  -45.6586 H         1 UNK         0.3000 
    196 H196       -5.6900  -23.2536  -44.8032 H         1 UNK         0.0600 
    197 H197       -4.2041  -23.6695  -42.8211 H         1 UNK         0.0600 
    198 H198       -4.2521  -21.9731  -43.2744 H         1 UNK         0.0600 
    199 H199       -2.8508  -22.9541  -43.6896 H         1 UNK         0.0600 
    200 H200       -2.3450  -24.3533  -45.6686 H         1 UNK         0.3000 
    201 H201       -3.1392  -27.1867  -45.4953 H         1 UNK         0.0600 
    202 H202       -0.9087  -26.5109  -44.6621 H         1 UNK         0.0600 
    203 H203       -0.4820  -25.8595  -46.2480 H         1 UNK         0.0600 
    204 H204       -0.7421  -27.5852  -46.0383 H         1 UNK         0.0600 
    205 H205       -2.7134  -24.6815  -47.8784 H         1 UNK         0.3000 
    206 H206       -2.6545  -26.3473  -50.2362 H         1 UNK         0.0600 
    207 H207       -1.6632  -24.0421  -50.0852 H         1 UNK         0.0600 
    208 H208       -2.8307  -24.1743  -51.3846 H         1 UNK         0.0600 
    209 H209       -3.2832  -23.3684  -49.8973 H         1 UNK         0.0600 
    210 H210       -5.1514  -25.6760  -48.1051 H         1 UNK         0.3000 
    211 H211       -7.3282  -25.9570  -47.9928 H         1 UNK         0.0600 
    212 H212       -7.0566  -27.6403  -50.5419 H         1 UNK         0.0600 
    213 H213       -8.3580  -27.7355  -49.3627 H         1 UNK         0.0600 
    214 H214       -6.7334  -28.2205  -48.9085 H         1 UNK         0.0600 
    215 H215       -6.3842  -23.6319  -49.4089 H         1 UNK         0.3000 
    216 H216       -6.8846  -21.9101  -50.6993 H         1 UNK         0.0600 
    217 H217       -9.2105  -21.1539  -50.8334 H         1 UNK         0.0600 
    218 H218       -8.9111  -21.8316  -49.2426 H         1 UNK         0.0600 
    219 H219       -9.8085  -22.7607  -50.4434 H         1 UNK         0.0600 
    220 H220       -6.4727  -24.6297  -52.0340 H         1 UNK         0.3000 
    221 H221       -7.8241  -24.1867  -54.6705 H         1 UNK         0.0600 
    222 H222       -6.9208  -26.7705  -53.2904 H         1 UNK         0.0600 
    223 H223       -8.5813  -26.2167  -53.4756 H         1 UNK         0.0600 
    224 H224       -7.6417  -26.6603  -54.8934 H         1 UNK         0.0600 
    225 H225       -4.8098  -25.5041  -53.1571 H         1 UNK         0.3000 
    226 H226       -3.3433  -25.3939  -55.6774 H         1 UNK         0.0600 
    227 H227       -2.8744  -27.1524  -54.0092 H         1 UNK         0.0600 
    228 H228       -1.4440  -26.1635  -54.2562 H         1 UNK         0.0600 
    229 H229       -2.4189  -25.9483  -52.8092 H         1 UNK         0.0600 
    230 H230       -3.9527  -23.2062  -53.0567 H         1 UNK         0.3000 
    231 H231       -2.8222  -20.9385  -54.2808 H         1 UNK         0.0600 
    232 H232       -0.6501  -21.8060  -53.3299 H         1 UNK         0.0600 
    233 H233       -1.4021  -21.9842  -51.7465 H         1 UNK         0.0600 
    234 H234       -1.1750  -20.3864  -52.4422 H         1 UNK         0.0600 
    235 H235       -3.4474  -19.0438  -52.9468 H         1 UNK         0.3000 
    236 H236       -5.0730  -19.4251  -50.5729 H         1 UNK         0.0600 
    237 H237       -7.1194  -18.3805  -51.5375 H         1 UNK         0.0600 
    238 H238       -6.3907  -18.3832  -53.1407 H         1 UNK         0.0600 
    239 H239       -6.7770  -19.9034  -52.3393 H         1 UNK         0.0600 
    240 H240       -2.7185  -18.3488  -50.5724 H         1 UNK         0.3000 
    241 H241       -2.6638  -15.5465  -51.3544 H         1 UNK         0.0600 
    242 H242       -4.3052  -14.6937  -48.2120 H         1 UNK         0.3800 
    243 H243       -4.7178  -15.3751  -49.7764 H         1 UNK         0.3800 
    244 H244       -0.4367  -16.9304  -49.8117 H         1 UNK         0.0800 
    245 H245       -0.7163  -17.2764  -51.4928 H         1 UNK         0.0800 
    246 H246        0.8718  -16.3325  -53.0776 H         1 UNK         0.0800 
    247 H247        1.7966  -14.8708  -52.8541 H         1 UNK         0.0800 
@<TRIPOS>BOND
     1    1    2 1    
     2    1  127 1    
     3    1  128 1    
     4    1  129 1    
     5    2    3 2    
     6    2    4 am   BACKBONE|DICT|INTERRES
     7    4    5 1    
     8    4  130 1    
     9    5    6 1    
    10    5   65 1    
    11    5  131 1    
    12    6    7 1    
    13    6  132 1    
    14    6  133 1    
    15    7    8 1    
    16    8    9 1    
    17    8  134 1    
    18    8  135 1    
    19    9   10 ar   
    20    9   14 ar   
    21   10   11 ar   
    22   10  136 1    
    23   11   12 ar   
    24   11  126 1    
    25   12   13 ar   
    26   12  137 1    
    27   13   14 ar   
    28   13   15 1    
    29   14  138 1    
    30   15   16 1    
    31   15  139 1    
    32   15  140 1    
    33   16   17 1    
    34   17   18 1    
    35   17  141 1    
    36   17  142 1    
    37   18   19 1    
    38   18   67 1    
    39   18  143 1    
    40   19   20 am   BACKBONE|DICT|INTERRES
    41   19  144 1    
    42   20   21 2    
    43   20   22 1    
    44   22   23 1    
    45   22   24 1    
    46   22  145 1    
    47   23  146 1    
    48   23  147 1    
    49   23  148 1    
    50   24   25 am   BACKBONE|DICT|INTERRES
    51   24  149 1    
    52   25   26 2    
    53   25   27 1    
    54   27   28 1    
    55   27   29 1    
    56   27  150 1    
    57   28  151 1    
    58   28  152 1    
    59   28  153 1    
    60   29   30 am   BACKBONE|DICT|INTERRES
    61   29  154 1    
    62   30   31 2    
    63   30   32 1    
    64   32   33 1    
    65   32   34 1    
    66   32  155 1    
    67   33  156 1    
    68   33  157 1    
    69   33  158 1    
    70   34   35 am   BACKBONE|DICT|INTERRES
    71   34  159 1    
    72   35   36 2    
    73   35   37 1    
    74   37   38 1    
    75   37   39 1    
    76   37  160 1    
    77   38  161 1    
    78   38  162 1    
    79   38  163 1    
    80   39   40 am   BACKBONE|DICT|INTERRES
    81   39  164 1    
    82   40   41 2    
    83   40   42 1    
    84   42   43 1    
    85   42   44 1    
    86   42  165 1    
    87   43  166 1    
    88   43  167 1    
    89   43  168 1    
    90   44   45 am   BACKBONE|DICT|INTERRES
    91   44  169 1    
    92   45   46 2    
    93   45   47 1    
    94   47   48 1    
    95   47   49 1    
    96   47  170 1    
    97   48  171 1    
    98   48  172 1    
    99   48  173 1    
   100   49   50 am   BACKBONE|DICT|INTERRES
   101   49  174 1    
   102   50   51 2    
   103   50   52 1    
   104   52   53 1    
   105   52   54 1    
   106   52  175 1    
   107   53  176 1    
   108   53  177 1    
   109   53  178 1    
   110   54   55 am   BACKBONE|DICT|INTERRES
   111   54  179 1    
   112   55   56 2    
   113   55   57 1    
   114   57   58 1    
   115   57   59 1    
   116   57  180 1    
   117   58  181 1    
   118   58  182 1    
   119   58  183 1    
   120   59   60 am   BACKBONE|DICT|INTERRES
   121   59  184 1    
   122   60   61 2    
   123   60   62 1    
   124   62   63 1    
   125   62   64 1    
   126   62  185 1    
   127   63  186 1    
   128   63  187 1    
   129   63  188 1    
   130   64   65 am   BACKBONE|DICT|INTERRES
   131   64  189 1    
   132   65   66 2    
   133   67   68 2    
   134   67   69 am   BACKBONE|DICT|INTERRES
   135   69   70 1    
   136   69  190 1    
   137   70   71 1    
   138   70   72 1    
   139   70  191 1    
   140   71  192 1    
   141   71  193 1    
   142   71  194 1    
   143   72   73 2    
   144   72   74 am   BACKBONE|DICT|INTERRES
   145   74   75 1    
   146   74  195 1    
   147   75   76 1    
   148   75   77 1    
   149   75  196 1    
   150   76  197 1    
   151   76  198 1    
   152   76  199 1    
   153   77   78 2    
   154   77   79 am   BACKBONE|DICT|INTERRES
   155   79   80 1    
   156   79  200 1    
   157   80   81 1    
   158   80   82 1    
   159   80  201 1    
   160   81  202 1    
   161   81  203 1    
   162   81  204 1    
   163   82   83 2    
   164   82   84 am   BACKBONE|DICT|INTERRES
   165   84   85 1    
   166   84  205 1    
   167   85   86 1    
   168   85   87 1    
   169   85  206 1    
   170   86  207 1    
   171   86  208 1    
   172   86  209 1    
   173   87   88 2    
   174   87   89 am   BACKBONE|DICT|INTERRES
   175   89   90 1    
   176   89  210 1    
   177   90   91 1    
   178   90   92 1    
   179   90  211 1    
   180   91  212 1    
   181   91  213 1    
   182   91  214 1    
   183   92   93 2    
   184   92   94 am   BACKBONE|DICT|INTERRES
   185   94   95 1    
   186   94  215 1    
   187   95   96 1    
   188   95   97 1    
   189   95  216 1    
   190   96  217 1    
   191   96  218 1    
   192   96  219 1    
   193   97   98 2    
   194   97   99 am   BACKBONE|DICT|INTERRES
   195   99  100 1    
   196   99  220 1    
   197  100  101 1    
   198  100  102 1    
   199  100  221 1    
   200  101  222 1    
   201  101  223 1    
   202  101  224 1    
   203  102  103 2    
   204  102  104 am   BACKBONE|DICT|INTERRES
   205  104  105 1    
   206  104  225 1    
   207  105  106 1    
   208  105  107 1    
   209  105  226 1    
   210  106  227 1    
   211  106  228 1    
   212  106  229 1    
   213  107  108 2    
   214  107  109 am   BACKBONE|DICT|INTERRES
   215  109  110 1    
   216  109  230 1    
   217  110  111 1    
   218  110  112 1    
   219  110  231 1    
   220  111  232 1    
   221  111  233 1    
   222  111  234 1    
   223  112  113 2    
   224  112  114 am   BACKBONE|DICT|INTERRES
   225  114  115 1    
   226  114  235 1    
   227  115  116 1    
   228  115  117 1    
   229  115  236 1    
   230  116  237 1    
   231  116  238 1    
   232  116  239 1    
   233  117  118 2    
   234  117  119 am   BACKBONE|DICT|INTERRES
   235  119  120 1    
   236  119  240 1    
   237  120  121 1    
   238  120  124 1    
   239  120  241 1    
   240  121  122 am   BACKBONE|DICT|INTERRES
   241  121  123 2    
   242  122  242 1    
   243  122  243 1    
   244  124  125 1    
   245  124  244 1    
   246  124  245 1    
   247  125  126 1    
   248  126  246 1    
   249  126  247 1    
@<TRIPOS>SUBSTRUCTURE
     1 UNK         1 GROUP             0       ****    0 ROOT    
