@<TRIPOS>MOLECULE
3R540
247   249    1
SMALL
USER_CHARGES


@<TRIPOS>ATOM
      1 CA          3.9874   -8.1709  -46.5635 C.3       0 UNK        -0.1800 
      2 C           3.4686   -9.4870  -46.0048 C.2       0 UNK         0.5000 
      3 O           4.0701  -10.0424  -45.0867 O.2       0 UNK        -0.5000 
      4 N           2.3427   -9.9805  -46.5351 N.am      1 UNK        -0.5000 
      5 CA          1.7170  -11.2658  -46.1813 C.3       1 UNK         0.1400 
      6 C6          0.5826  -11.6470  -47.1660 C.3       23 UNK        -0.0398 
      7 S7          1.1631  -11.6654  -48.8991 S.3       23 UNK        -0.2404 
      8 C8          1.3137  -13.4456  -49.2377 C.3       23 UNK        -0.0205 
      9 C9          0.0930  -13.9767  -49.9714 C.ar      23 UNK        -0.0193 
     10 C10         0.0123  -13.8595  -51.3628 C.ar      23 UNK        -0.1150 
     11 C11        -1.0946  -14.3589  -52.0544 C.ar      23 UNK        -0.0193 
     12 C12        -2.1353  -14.9553  -51.3400 C.ar      23 UNK        -0.1150 
     13 C13        -2.0449  -15.1243  -49.9572 C.ar      23 UNK        -0.0193 
     14 C14        -0.9353  -14.6169  -49.2733 C.ar      23 UNK        -0.1150 
     15 C15        -3.1162  -15.9243  -49.2345 C.3       23 UNK        -0.0205 
     16 S16        -2.9342  -17.6875  -49.6432 S.3       23 UNK        -0.2404 
     17 C17        -4.2379  -18.4567  -48.6324 C.3       23 UNK        -0.0398 
     18 CA         -3.9492  -19.9631  -48.4243 C.3       11 UNK         0.1400 
     19 N          -2.7016  -20.1967  -47.6870 N.am      11 UNK        -0.5000 
     20 C          -1.9537  -21.3034  -47.7956 C.2       10 UNK         0.5000 
     21 O          -2.2035  -22.2035  -48.5936 O.2       10 UNK        -0.5000 
     22 CA         -0.7504  -21.4642  -46.8428 C.3       10 UNK         0.1400 
     23 CB          0.5686  -21.2560  -47.6018 C.3       10 UNK        -0.1800 
     24 N          -0.7754  -20.5899  -45.6653 N.am      10 UNK        -0.5000 
     25 C          -1.7201  -20.5937  -44.7137 C.2       9 UNK         0.5000 
     26 O          -2.6921  -21.3479  -44.7224 O.2       9 UNK        -0.5000 
     27 CA         -1.6020  -19.5343  -43.6047 C.3       9 UNK         0.1400 
     28 CB         -0.6702  -20.0224  -42.4864 C.3       9 UNK        -0.1800 
     29 N          -1.1421  -18.2369  -44.1028 N.am      9 UNK        -0.5000 
     30 C          -1.7895  -17.4917  -45.0105 C.2       8 UNK         0.5000 
     31 O          -2.8687  -17.8084  -45.5106 O.2       8 UNK        -0.5000 
     32 CA         -1.0891  -16.2040  -45.4760 C.3       8 UNK         0.1400 
     33 CB         -1.2812  -15.0616  -44.4692 C.3       8 UNK        -0.1800 
     34 N           0.3353  -16.4181  -45.7332 N.am      8 UNK        -0.5000 
     35 C           0.8081  -17.1499  -46.7532 C.2       7 UNK         0.5000 
     36 O           0.0986  -17.6277  -47.6358 O.2       7 UNK        -0.5000 
     37 CA          2.3195  -17.4352  -46.7685 C.3       7 UNK         0.1400 
     38 CB          3.0821  -16.3427  -47.5327 C.3       7 UNK        -0.1800 
     39 N           2.8646  -17.5681  -45.4174 N.am      7 UNK        -0.5000 
     40 C           2.6684  -18.6401  -44.6351 C.2       6 UNK         0.5000 
     41 O           2.0314  -19.6319  -44.9893 O.2       6 UNK        -0.5000 
     42 CA          3.2409  -18.5819  -43.2046 C.3       6 UNK         0.1400 
     43 CB          4.6950  -19.0751  -43.1859 C.3       6 UNK        -0.1800 
     44 N           3.1781  -17.2437  -42.6159 N.am      6 UNK        -0.5000 
     45 C           2.0446  -16.5716  -42.3736 C.2       5 UNK         0.5000 
     46 O           0.9248  -17.0499  -42.5460 O.2       5 UNK        -0.5000 
     47 CA          2.1730  -15.1084  -41.9111 C.3       5 UNK         0.1400 
     48 CB          2.0206  -15.0078  -40.3868 C.3       5 UNK        -0.1800 
     49 N           3.4149  -14.4411  -42.3102 N.am      5 UNK        -0.5000 
     50 C           3.8531  -14.2677  -43.5645 C.2       4 UNK         0.5000 
     51 O           3.3192  -14.7806  -44.5493 O.2       4 UNK        -0.5000 
     52 CA          5.0840  -13.3539  -43.7300 C.3       4 UNK         0.1400 
     53 CB          5.5287  -13.2192  -45.1975 C.3       4 UNK        -0.1800 
     54 N           4.8129  -12.0202  -43.1942 N.am      4 UNK        -0.5000 
     55 C           4.8467  -11.6727  -41.9007 C.2       3 UNK         0.5000 
     56 O           5.1825  -12.4401  -40.9975 O.2       3 UNK        -0.5000 
     57 CA          4.3589  -10.2564  -41.5602 C.3       3 UNK         0.1400 
     58 CB          5.4047   -9.1995  -41.9496 C.3       3 UNK        -0.1800 
     59 N           3.0955   -9.9764  -42.2419 N.am      3 UNK        -0.5000 
     60 C           1.8867  -10.3087  -41.7655 C.2       2 UNK         0.5000 
     61 O           1.7045  -10.8190  -40.6597 O.2       2 UNK        -0.5000 
     62 CA          0.6736  -10.0281  -42.6754 C.3       2 UNK         0.1400 
     63 CB          0.1166   -8.6209  -42.4117 C.3       2 UNK        -0.1800 
     64 N           0.9927  -10.1578  -44.0976 N.am      2 UNK        -0.5000 
     65 C           1.2189  -11.3241  -44.7192 C.2       1 UNK         0.5000 
     66 O           1.0701  -12.4167  -44.1755 O.2       1 UNK        -0.5000 
     67 C          -5.1549  -20.6943  -47.7904 C.2       11 UNK         0.5000 
     68 O          -6.2347  -20.6743  -48.3812 O.2       11 UNK        -0.5000 
     69 N          -4.9624  -21.3440  -46.6337 N.am      12 UNK        -0.5000 
     70 CA         -5.9462  -22.2024  -45.9771 C.3       12 UNK         0.1400 
     71 CB         -6.3944  -21.5506  -44.6593 C.3       12 UNK        -0.1800 
     72 C          -5.3650  -23.6037  -45.7291 C.2       12 UNK         0.5000 
     73 O          -6.0099  -24.5964  -46.0725 O.2       12 UNK        -0.5000 
     74 N          -4.1560  -23.6648  -45.1536 N.am      13 UNK        -0.5000 
     75 CA         -3.4470  -24.8901  -44.7830 C.3       13 UNK         0.1400 
     76 CB         -2.1475  -24.5174  -44.0534 C.3       13 UNK        -0.1800 
     77 C          -3.1429  -25.7995  -45.9860 C.2       13 UNK         0.5000 
     78 O          -2.8829  -25.3031  -47.0846 O.2       13 UNK        -0.5000 
     79 N          -3.1879  -27.1179  -45.7444 N.am      14 UNK        -0.5000 
     80 CA         -2.9916  -28.1969  -46.7216 C.3       14 UNK         0.1400 
     81 CB         -1.5163  -28.2581  -47.1703 C.3       14 UNK        -0.1800 
     82 C          -3.9793  -28.1134  -47.9055 C.2       14 UNK         0.5000 
     83 O          -3.5881  -28.3378  -49.0515 O.2       14 UNK        -0.5000 
     84 N          -5.2351  -27.7488  -47.5992 N.am      15 UNK        -0.5000 
     85 CA         -6.3276  -27.4706  -48.5382 C.3       15 UNK         0.1400 
     86 CB         -6.7818  -28.7637  -49.2483 C.3       15 UNK        -0.1800 
     87 C          -5.9592  -26.3403  -49.5202 C.2       15 UNK         0.5000 
     88 O          -6.0494  -26.5209  -50.7341 O.2       15 UNK        -0.5000 
     89 N          -5.5011  -25.2105  -48.9634 N.am      16 UNK        -0.5000 
     90 CA         -4.9743  -24.0329  -49.6620 C.3       16 UNK         0.1400 
     91 CB         -6.1001  -23.3026  -50.4206 C.3       16 UNK        -0.1800 
     92 C          -3.7636  -24.3700  -50.5575 C.2       16 UNK         0.5000 
     93 O          -3.7294  -23.9856  -51.7303 O.2       16 UNK        -0.5000 
     94 N          -2.8106  -25.1148  -49.9782 N.am      17 UNK        -0.5000 
     95 CA         -1.5931  -25.6401  -50.5998 C.3       17 UNK         0.1400 
     96 CB         -0.6046  -24.4941  -50.8990 C.3       17 UNK        -0.1800 
     97 C          -1.9016  -26.5207  -51.8281 C.2       17 UNK         0.5000 
     98 O          -1.4064  -26.2548  -52.9237 O.2       17 UNK        -0.5000 
     99 N          -2.7467  -27.5397  -51.6154 N.am      18 UNK        -0.5000 
    100 CA        -3.2694  -28.4836  -52.6083 C.3       18 UNK         0.1400 
    101 CB        -2.1448  -29.3925  -53.1470 C.3       18 UNK        -0.1800 
    102 C         -4.0758  -27.7813  -53.7211 C.2       18 UNK         0.5000 
    103 O         -3.8672  -28.0455  -54.9068 O.2       18 UNK        -0.5000 
    104 N         -4.9817  -26.8883  -53.2989 N.am      19 UNK        -0.5000 
    105 CA        -5.8894  -26.0706  -54.1071 C.3       19 UNK         0.1400 
    106 CB        -6.9182  -26.9583  -54.8381 C.3       19 UNK        -0.1800 
    107 C         -5.1777  -25.0743  -55.0466 C.2       19 UNK         0.5000 
    108 O         -5.7496  -24.6861  -56.0672 O.2       19 UNK        -0.5000 
    109 N         -3.9548  -24.6597  -54.6881 N.am      20 UNK        -0.5000 
    110 CA        -3.1972  -23.6337  -55.4009 C.3       20 UNK         0.1400 
    111 CB        -1.7104  -23.7257  -55.0281 C.3       20 UNK        -0.1800 
    112 C         -3.7532  -22.2328  -55.1042 C.2       20 UNK         0.5000 
    113 O         -4.0154  -21.4750  -56.0387 O.2       20 UNK        -0.5000 
    114 N         -3.9301  -21.9275  -53.8080 N.am      21 UNK        -0.5000 
    115 CA        -4.5599  -20.7240  -53.2456 C.3       21 UNK         0.1400 
    116 CB        -6.0887  -20.8228  -53.4257 C.3       21 UNK        -0.1800 
    117 C         -4.0028  -19.3738  -53.7620 C.2       21 UNK         0.5000 
    118 O         -4.7349  -18.3828  -53.7764 O.2       21 UNK        -0.5000 
    119 N         -2.7313  -19.3554  -54.1910 N.am      22 UNK        -0.5000 
    120 CA        -2.0708  -18.2254  -54.8744 C.3       22 UNK         0.1400 
    121 C         -2.6152  -17.9371  -56.3130 C.2       22 UNK         0.5000 
    122 N         -3.3271  -18.8573  -56.9531 N.am      22 UNK        -0.7600 
    123 O         -2.3741  -16.8755  -56.8806 O.2       22 UNK        -0.5000 
    124 C124       -1.9969  -16.9602  -53.9720 C.3       23 UNK        -0.0398 
    125 S125       -0.5766  -15.8627  -54.3197 S.3       23 UNK        -0.2404 
    126 C126       -1.1488  -14.2988  -53.5735 C.3       23 UNK        -0.0205 
    127 H127        3.3483   -7.7883  -47.3596 H         1 UNK         0.0600 
    128 H128        4.9907   -8.3066  -46.9670 H         1 UNK         0.0600 
    129 H129        4.0349   -7.4216  -45.7734 H         1 UNK         0.0600 
    130 H130        1.8988   -9.4826  -47.2941 H         1 UNK         0.3000 
    131 H131        2.4921  -12.0303  -46.2655 H         1 UNK         0.0600 
    132 H132        0.1590  -12.6207  -46.9129 H         1 UNK         0.0800 
    133 H133       -0.2397  -10.9331  -47.0941 H         1 UNK         0.0800 
    134 H134        2.2046  -13.6131  -49.8449 H         1 UNK         0.0800 
    135 H135        1.4748  -13.9943  -48.3098 H         1 UNK         0.0800 
    136 H136        0.8205  -13.3927  -51.9084 H         1 UNK         0.1150 
    137 H137       -2.9926  -15.3508  -51.8656 H         1 UNK         0.1150 
    138 H138       -0.8546  -14.7425  -48.2045 H         1 UNK         0.1150 
    139 H139       -3.0485  -15.7849  -48.1559 H         1 UNK         0.0800 
    140 H140       -4.1055  -15.5774  -49.5365 H         1 UNK         0.0800 
    141 H141       -5.1869  -18.3071  -49.1506 H         1 UNK         0.0800 
    142 H142       -4.3212  -17.9399  -47.6760 H         1 UNK         0.0800 
    143 H143       -3.8390  -20.4030  -49.4183 H         1 UNK         0.0600 
    144 H144       -2.4351  -19.4829  -47.0205 H         1 UNK         0.3000 
    145 H145       -0.7712  -22.4948  -46.4842 H         1 UNK         0.0600 
    146 H146        1.4285  -21.4661  -46.9659 H         1 UNK         0.0600 
    147 H147        0.6338  -21.9216  -48.4635 H         1 UNK         0.0600 
    148 H148        0.6628  -20.2345  -47.9698 H         1 UNK         0.0600 
    149 H149        0.0148  -19.9643  -45.5557 H         1 UNK         0.3000 
    150 H150       -2.5973  -19.3899  -43.1795 H         1 UNK         0.0600 
    151 H151       -1.0184  -20.9706  -42.0747 H         1 UNK         0.0600 
    152 H152       -0.6297  -19.3061  -41.6656 H         1 UNK         0.0600 
    153 H153        0.3466  -20.1753  -42.8478 H         1 UNK         0.0600 
    154 H154       -0.2875  -17.8703  -43.6903 H         1 UNK         0.3000 
    155 H155       -1.5617  -15.9018  -46.4094 H         1 UNK         0.0600 
    156 H156       -2.3403  -14.8897  -44.2734 H         1 UNK         0.0600 
    157 H157       -0.8689  -14.1294  -44.8538 H         1 UNK         0.0600 
    158 H158       -0.8024  -15.2722  -43.5136 H         1 UNK         0.0600 
    159 H159        0.9873  -16.0648  -45.0472 H         1 UNK         0.3000 
    160 H160        2.4726  -18.3793  -47.2961 H         1 UNK         0.0600 
    161 H161        2.9699  -15.3655  -47.0638 H         1 UNK         0.0600 
    162 H162        2.7179  -16.2599  -48.5575 H         1 UNK         0.0600 
    163 H163        4.1473  -16.5680  -47.5833 H         1 UNK         0.0600 
    164 H164        3.3237  -16.7481  -45.0348 H         1 UNK         0.3000 
    165 H165        2.6449  -19.2508  -42.5806 H         1 UNK         0.0600 
    166 H166        5.0856  -19.1140  -42.1689 H         1 UNK         0.0600 
    167 H167        4.7708  -20.0813  -43.6006 H         1 UNK         0.0600 
    168 H168        5.3478  -18.4278  -43.7729 H         1 UNK         0.0600 
    169 H169        4.0558  -16.7743  -42.4495 H         1 UNK         0.3000 
    170 H170        1.3516  -14.5557  -42.3710 H         1 UNK         0.0600 
    171 H171        1.0896  -15.4695  -40.0548 H         1 UNK         0.0600 
    172 H172        2.8397  -15.5067  -39.8675 H         1 UNK         0.0600 
    173 H173        1.9997  -13.9671  -40.0616 H         1 UNK         0.0600 
    174 H174        3.9260  -13.9644  -41.5754 H         1 UNK         0.3000 
    175 H175        5.9064  -13.8052  -43.1713 H         1 UNK         0.0600 
    176 H176        4.7500  -12.7725  -45.8161 H         1 UNK         0.0600 
    177 H177        6.4193  -12.5967  -45.2829 H         1 UNK         0.0600 
    178 H178        5.7702  -14.1932  -45.6251 H         1 UNK         0.0600 
    179 H179        4.5134  -11.3223  -43.8724 H         1 UNK         0.3000 
    180 H180        4.2115  -10.1983  -40.4796 H         1 UNK         0.0600 
    181 H181        5.6078   -9.1994  -43.0209 H         1 UNK         0.0600 
    182 H182        6.3501   -9.3817  -41.4373 H         1 UNK         0.0600 
    183 H183        5.0727   -8.1988  -41.6729 H         1 UNK         0.0600 
    184 H184        3.1675   -9.6272  -43.1889 H         1 UNK         0.3000 
    185 H185       -0.1037  -10.7543  -42.4274 H         1 UNK         0.0600 
    186 H186       -0.1535   -8.4988  -41.3619 H         1 UNK         0.0600 
    187 H187        0.8448   -7.8463  -42.6555 H         1 UNK         0.0600 
    188 H188       -0.7818   -8.4355  -43.0009 H         1 UNK         0.0600 
    189 H189        1.1269   -9.3030  -44.6177 H         1 UNK         0.3000 
    190 H190       -4.0467  -21.3024  -46.1997 H         1 UNK         0.3000 
    191 H191       -6.8274  -22.3305  -46.6093 H         1 UNK         0.0600 
    192 H192       -6.8789  -20.5915  -44.8428 H         1 UNK         0.0600 
    193 H193       -7.1115  -22.1827  -44.1340 H         1 UNK         0.0600 
    194 H194       -5.5533  -21.3754  -43.9872 H         1 UNK         0.0600 
    195 H195       -3.6722  -22.7974  -44.9300 H         1 UNK         0.3000 
    196 H196       -4.0885  -25.4358  -44.0882 H         1 UNK         0.0600 
    197 H197       -1.6198  -25.4083  -43.7109 H         1 UNK         0.0600 
    198 H198       -2.3485  -23.9015  -43.1765 H         1 UNK         0.0600 
    199 H199       -1.4682  -23.9636  -44.7018 H         1 UNK         0.0600 
    200 H200       -3.4073  -27.4237  -44.8063 H         1 UNK         0.3000 
    201 H201       -3.2178  -29.1310  -46.2057 H         1 UNK         0.0600 
    202 H202       -0.8502  -28.3650  -46.3143 H         1 UNK         0.0600 
    203 H203       -1.2192  -27.3610  -47.7129 H         1 UNK         0.0600 
    204 H204       -1.3393  -29.1118  -47.8256 H         1 UNK         0.0600 
    205 H205       -5.4404  -27.5573  -46.6286 H         1 UNK         0.3000 
    206 H206       -7.1668  -27.1046  -47.9448 H         1 UNK         0.0600 
    207 H207       -7.0538  -29.5343  -48.5272 H         1 UNK         0.0600 
    208 H208       -7.6577  -28.5778  -49.8709 H         1 UNK         0.0600 
    209 H209       -6.0036  -29.1699  -49.8952 H         1 UNK         0.0600 
    210 H210       -5.4606  -25.1683  -47.9504 H         1 UNK         0.3000 
    211 H211       -4.6047  -23.3637  -48.8862 H         1 UNK         0.0600 
    212 H212       -6.4647  -23.8818  -51.2693 H         1 UNK         0.0600 
    213 H213       -5.7462  -22.3451  -50.8015 H         1 UNK         0.0600 
    214 H214       -6.9464  -23.0951  -49.7659 H         1 UNK         0.0600 
    215 H215       -2.9195  -25.3235  -48.9883 H         1 UNK         0.3000 
    216 H216       -1.1249  -26.2931  -49.8631 H         1 UNK         0.0600 
    217 H217        0.3299  -24.8791  -51.3082 H         1 UNK         0.0600 
    218 H218       -0.3600  -23.9432  -49.9908 H         1 UNK         0.0600 
    219 H219       -1.0107  -23.7831  -51.6181 H         1 UNK         0.0600 
    220 H220       -3.0949  -27.6843  -50.6681 H         1 UNK         0.3000 
    221 H221       -3.9776  -29.1198  -52.0753 H         1 UNK         0.0600 
    222 H222       -1.4136  -28.8331  -53.7311 H         1 UNK         0.0600 
    223 H223       -1.6160  -29.8882  -52.3329 H         1 UNK         0.0600 
    224 H224       -2.5502  -30.1724  -53.7925 H         1 UNK         0.0600 
    225 H225       -5.1016  -26.7633  -52.2952 H         1 UNK         0.3000 
    226 H226       -6.4402  -25.4558  -53.3940 H         1 UNK         0.0600 
    227 H227       -7.4169  -27.6352  -54.1443 H         1 UNK         0.0600 
    228 H228       -7.6931  -26.3537  -55.3106 H         1 UNK         0.0600 
    229 H229       -6.4519  -27.5599  -55.6187 H         1 UNK         0.0600 
    230 H230       -3.5666  -24.9925  -53.8141 H         1 UNK         0.3000 
    231 H231       -3.2851  -23.8134  -56.4746 H         1 UNK         0.0600 
    232 H232       -1.5515  -23.5837  -53.9590 H         1 UNK         0.0600 
    233 H233       -1.1274  -22.9677  -55.5525 H         1 UNK         0.0600 
    234 H234       -1.2984  -24.6981  -55.2987 H         1 UNK         0.0600 
    235 H235       -3.7022  -22.6471  -53.1252 H         1 UNK         0.3000 
    236 H236       -4.3483  -20.7455  -52.1757 H         1 UNK         0.0600 
    237 H237       -6.4700  -21.7800  -53.0705 H         1 UNK         0.0600 
    238 H238       -6.6040  -20.0419  -52.8654 H         1 UNK         0.0600 
    239 H239       -6.3743  -20.7209  -54.4733 H         1 UNK         0.0600 
    240 H240       -2.2055  -20.2161  -54.1524 H         1 UNK         0.3000 
    241 H241       -1.0482  -18.5688  -55.0330 H         1 UNK         0.0600 
    242 H242       -3.6627  -18.6586  -57.8819 H         1 UNK         0.3800 
    243 H243       -3.5460  -19.7553  -56.5267 H         1 UNK         0.3800 
    244 H244       -2.9259  -16.3922  -54.0402 H         1 UNK         0.0800 
    245 H245       -1.9037  -17.2655  -52.9289 H         1 UNK         0.0800 
    246 H246       -0.5195  -13.4852  -53.9372 H         1 UNK         0.0800 
    247 H247       -2.1619  -14.0723  -53.9093 H         1 UNK         0.0800 
@<TRIPOS>BOND
     1    1    2 1    
     2    1  127 1    
     3    1  128 1    
     4    1  129 1    
     5    2    3 2    
     6    2    4 am   BACKBONE|DICT|INTERRES
     7    4    5 1    
     8    4  130 1    
     9    5    6 1    
    10    5   65 1    
    11    5  131 1    
    12    6    7 1    
    13    6  132 1    
    14    6  133 1    
    15    7    8 1    
    16    8    9 1    
    17    8  134 1    
    18    8  135 1    
    19    9   10 ar   
    20    9   14 ar   
    21   10   11 ar   
    22   10  136 1    
    23   11   12 ar   
    24   11  126 1    
    25   12   13 ar   
    26   12  137 1    
    27   13   14 ar   
    28   13   15 1    
    29   14  138 1    
    30   15   16 1    
    31   15  139 1    
    32   15  140 1    
    33   16   17 1    
    34   17   18 1    
    35   17  141 1    
    36   17  142 1    
    37   18   19 1    
    38   18   67 1    
    39   18  143 1    
    40   19   20 am   BACKBONE|DICT|INTERRES
    41   19  144 1    
    42   20   21 2    
    43   20   22 1    
    44   22   23 1    
    45   22   24 1    
    46   22  145 1    
    47   23  146 1    
    48   23  147 1    
    49   23  148 1    
    50   24   25 am   BACKBONE|DICT|INTERRES
    51   24  149 1    
    52   25   26 2    
    53   25   27 1    
    54   27   28 1    
    55   27   29 1    
    56   27  150 1    
    57   28  151 1    
    58   28  152 1    
    59   28  153 1    
    60   29   30 am   BACKBONE|DICT|INTERRES
    61   29  154 1    
    62   30   31 2    
    63   30   32 1    
    64   32   33 1    
    65   32   34 1    
    66   32  155 1    
    67   33  156 1    
    68   33  157 1    
    69   33  158 1    
    70   34   35 am   BACKBONE|DICT|INTERRES
    71   34  159 1    
    72   35   36 2    
    73   35   37 1    
    74   37   38 1    
    75   37   39 1    
    76   37  160 1    
    77   38  161 1    
    78   38  162 1    
    79   38  163 1    
    80   39   40 am   BACKBONE|DICT|INTERRES
    81   39  164 1    
    82   40   41 2    
    83   40   42 1    
    84   42   43 1    
    85   42   44 1    
    86   42  165 1    
    87   43  166 1    
    88   43  167 1    
    89   43  168 1    
    90   44   45 am   BACKBONE|DICT|INTERRES
    91   44  169 1    
    92   45   46 2    
    93   45   47 1    
    94   47   48 1    
    95   47   49 1    
    96   47  170 1    
    97   48  171 1    
    98   48  172 1    
    99   48  173 1    
   100   49   50 am   BACKBONE|DICT|INTERRES
   101   49  174 1    
   102   50   51 2    
   103   50   52 1    
   104   52   53 1    
   105   52   54 1    
   106   52  175 1    
   107   53  176 1    
   108   53  177 1    
   109   53  178 1    
   110   54   55 am   BACKBONE|DICT|INTERRES
   111   54  179 1    
   112   55   56 2    
   113   55   57 1    
   114   57   58 1    
   115   57   59 1    
   116   57  180 1    
   117   58  181 1    
   118   58  182 1    
   119   58  183 1    
   120   59   60 am   BACKBONE|DICT|INTERRES
   121   59  184 1    
   122   60   61 2    
   123   60   62 1    
   124   62   63 1    
   125   62   64 1    
   126   62  185 1    
   127   63  186 1    
   128   63  187 1    
   129   63  188 1    
   130   64   65 am   BACKBONE|DICT|INTERRES
   131   64  189 1    
   132   65   66 2    
   133   67   68 2    
   134   67   69 am   BACKBONE|DICT|INTERRES
   135   69   70 1    
   136   69  190 1    
   137   70   71 1    
   138   70   72 1    
   139   70  191 1    
   140   71  192 1    
   141   71  193 1    
   142   71  194 1    
   143   72   73 2    
   144   72   74 am   BACKBONE|DICT|INTERRES
   145   74   75 1    
   146   74  195 1    
   147   75   76 1    
   148   75   77 1    
   149   75  196 1    
   150   76  197 1    
   151   76  198 1    
   152   76  199 1    
   153   77   78 2    
   154   77   79 am   BACKBONE|DICT|INTERRES
   155   79   80 1    
   156   79  200 1    
   157   80   81 1    
   158   80   82 1    
   159   80  201 1    
   160   81  202 1    
   161   81  203 1    
   162   81  204 1    
   163   82   83 2    
   164   82   84 am   BACKBONE|DICT|INTERRES
   165   84   85 1    
   166   84  205 1    
   167   85   86 1    
   168   85   87 1    
   169   85  206 1    
   170   86  207 1    
   171   86  208 1    
   172   86  209 1    
   173   87   88 2    
   174   87   89 am   BACKBONE|DICT|INTERRES
   175   89   90 1    
   176   89  210 1    
   177   90   91 1    
   178   90   92 1    
   179   90  211 1    
   180   91  212 1    
   181   91  213 1    
   182   91  214 1    
   183   92   93 2    
   184   92   94 am   BACKBONE|DICT|INTERRES
   185   94   95 1    
   186   94  215 1    
   187   95   96 1    
   188   95   97 1    
   189   95  216 1    
   190   96  217 1    
   191   96  218 1    
   192   96  219 1    
   193   97   98 2    
   194   97   99 am   BACKBONE|DICT|INTERRES
   195   99  100 1    
   196   99  220 1    
   197  100  101 1    
   198  100  102 1    
   199  100  221 1    
   200  101  222 1    
   201  101  223 1    
   202  101  224 1    
   203  102  103 2    
   204  102  104 am   BACKBONE|DICT|INTERRES
   205  104  105 1    
   206  104  225 1    
   207  105  106 1    
   208  105  107 1    
   209  105  226 1    
   210  106  227 1    
   211  106  228 1    
   212  106  229 1    
   213  107  108 2    
   214  107  109 am   BACKBONE|DICT|INTERRES
   215  109  110 1    
   216  109  230 1    
   217  110  111 1    
   218  110  112 1    
   219  110  231 1    
   220  111  232 1    
   221  111  233 1    
   222  111  234 1    
   223  112  113 2    
   224  112  114 am   BACKBONE|DICT|INTERRES
   225  114  115 1    
   226  114  235 1    
   227  115  116 1    
   228  115  117 1    
   229  115  236 1    
   230  116  237 1    
   231  116  238 1    
   232  116  239 1    
   233  117  118 2    
   234  117  119 am   BACKBONE|DICT|INTERRES
   235  119  120 1    
   236  119  240 1    
   237  120  121 1    
   238  120  124 1    
   239  120  241 1    
   240  121  122 am   BACKBONE|DICT|INTERRES
   241  121  123 2    
   242  122  242 1    
   243  122  243 1    
   244  124  125 1    
   245  124  244 1    
   246  124  245 1    
   247  125  126 1    
   248  126  246 1    
   249  126  247 1    
@<TRIPOS>SUBSTRUCTURE
     1 UNK         1 GROUP             0       ****    0 ROOT    
