@<TRIPOS>MOLECULE
3R540
247   249    1
SMALL
USER_CHARGES


@<TRIPOS>ATOM
      1 CA          5.1677  -13.8799  -45.3206 C.3       0 UNK        -0.1800 
      2 C           3.7040  -13.4937  -45.4655 C.2       0 UNK         0.5000 
      3 O           3.1242  -12.9315  -44.5366 O.2       0 UNK        -0.5000 
      4 N           3.1008  -13.7836  -46.6267 N.am      1 UNK        -0.5000 
      5 CA          1.6962  -13.4795  -46.9369 C.3       1 UNK         0.1400 
      6 C6          1.2248  -14.1286  -48.2603 C.3       23 UNK        -0.0398 
      7 S7          1.2129  -15.9524  -48.1970 S.3       23 UNK        -0.2404 
      8 C8          2.6303  -16.3686  -49.2578 C.3       23 UNK        -0.0205 
      9 C9          2.6468  -17.8432  -49.6375 C.ar      23 UNK        -0.0193 
     10 C10         1.9983  -18.2703  -50.8002 C.ar      23 UNK        -0.1150 
     11 C11         2.0547  -19.6092  -51.1999 C.ar      23 UNK        -0.0193 
     12 C12         2.7792  -20.5221  -50.4255 C.ar      23 UNK        -0.1150 
     13 C13         3.4420  -20.1097  -49.2643 C.ar      23 UNK        -0.0193 
     14 C14         3.3576  -18.7700  -48.8677 C.ar      23 UNK        -0.1150 
     15 C15         4.3334  -21.0824  -48.4962 C.3       23 UNK        -0.0205 
     16 S16         3.4790  -22.5912  -47.9311 S.3       23 UNK        -0.2404 
     17 C17         2.4634  -21.9368  -46.5653 C.3       23 UNK        -0.0398 
     18 CA          1.0185  -22.4912  -46.5269 C.3       11 UNK         0.1400 
     19 N           0.3063  -22.0394  -45.3284 N.am      11 UNK        -0.5000 
     20 C          -0.9178  -22.4398  -44.9552 C.2       10 UNK         0.5000 
     21 O          -1.5655  -23.3051  -45.5435 O.2       10 UNK        -0.5000 
     22 CA         -1.5439  -21.7185  -43.7473 C.3       10 UNK         0.1400 
     23 CB         -1.0120  -22.2980  -42.4283 C.3       10 UNK        -0.1800 
     24 N          -1.3192  -20.2721  -43.7785 N.am      10 UNK        -0.5000 
     25 C          -1.8064  -19.4485  -44.7187 C.2       9 UNK         0.5000 
     26 O          -2.5540  -19.8147  -45.6249 O.2       9 UNK        -0.5000 
     27 CA         -1.3373  -17.9817  -44.6732 C.3       9 UNK         0.1400 
     28 CB         -2.1272  -17.1796  -43.6288 C.3       9 UNK        -0.1800 
     29 N           0.0958  -17.8589  -44.4066 N.am      9 UNK        -0.5000 
     30 C           1.0579  -18.3446  -45.2033 C.2       8 UNK         0.5000 
     31 O           0.8371  -18.9099  -46.2709 O.2       8 UNK        -0.5000 
     32 CA          2.5035  -18.2461  -44.6918 C.3       8 UNK         0.1400 
     33 CB          3.0922  -16.8567  -44.9544 C.3       8 UNK        -0.1800 
     34 N           2.5941  -18.5593  -43.2677 N.am      8 UNK        -0.5000 
     35 C           2.4330  -19.7882  -42.7587 C.2       7 UNK         0.5000 
     36 O           2.2226  -20.7893  -43.4431 O.2       7 UNK        -0.5000 
     37 CA          2.4756  -19.9085  -41.2251 C.3       7 UNK         0.1400 
     38 CB          3.9258  -20.0047  -40.7285 C.3       7 UNK        -0.1800 
     39 N           1.8057  -18.7911  -40.5579 N.am      7 UNK        -0.5000 
     40 C           0.4870  -18.5598  -40.6190 C.2       6 UNK         0.5000 
     41 O          -0.3062  -19.2790  -41.2254 O.2       6 UNK        -0.5000 
     42 CA         -0.0236  -17.2864  -39.9220 C.3       6 UNK         0.1400 
     43 CB         -0.2717  -17.5498  -38.4294 C.3       6 UNK        -0.1800 
     44 N           0.8700  -16.1336  -40.0719 N.am      6 UNK        -0.5000 
     45 C           1.1901  -15.5669  -41.2425 C.2       5 UNK         0.5000 
     46 O           0.8434  -16.0144  -42.3377 O.2       5 UNK        -0.5000 
     47 CA          2.0599  -14.2991  -41.1841 C.3       5 UNK         0.1400 
     48 CB          3.5093  -14.6177  -41.5806 C.3       5 UNK        -0.1800 
     49 N           1.5343  -13.2607  -42.0689 N.am      5 UNK        -0.5000 
     50 C           0.3740  -12.6158  -41.8755 C.2       4 UNK         0.5000 
     51 O          -0.3421  -12.7891  -40.8868 O.2       4 UNK        -0.5000 
     52 CA         -0.0450  -11.6074  -42.9663 C.3       4 UNK         0.1400 
     53 CB         -1.1773  -10.6583  -42.5213 C.3       4 UNK        -0.1800 
     54 N           1.0889  -10.8528  -43.5044 N.am      4 UNK        -0.5000 
     55 C           1.9179  -10.0258  -42.8479 C.2       3 UNK         0.5000 
     56 O           1.7825   -9.7134  -41.6643 O.2       3 UNK        -0.5000 
     57 CA          3.1173   -9.4637  -43.6393 C.3       3 UNK         0.1400 
     58 CB          4.4410   -9.9919  -43.0611 C.3       3 UNK        -0.1800 
     59 N           3.0597   -9.8112  -45.0606 N.am      3 UNK        -0.5000 
     60 C           2.4400   -9.0914  -46.0057 C.2       2 UNK         0.5000 
     61 O           1.9112   -7.9991  -45.7975 O.2       2 UNK        -0.5000 
     62 CA          2.3817   -9.7072  -47.4185 C.3       2 UNK         0.1400 
     63 CB          3.5416   -9.1856  -48.2802 C.3       2 UNK        -0.1800 
     64 N           2.4145  -11.1730  -47.4110 N.am      2 UNK        -0.5000 
     65 C           1.4254  -11.9596  -46.9600 C.2       1 UNK         0.5000 
     66 O           0.3578  -11.5280  -46.5259 O.2       1 UNK        -0.5000 
     67 C           0.2245  -22.1658  -47.8091 C.2       11 UNK         0.5000 
     68 O          -0.0096  -23.0634  -48.6188 O.2       11 UNK        -0.5000 
     69 N          -0.2235  -20.9101  -47.9377 N.am      12 UNK        -0.5000 
     70 CA         -1.0362  -20.4324  -49.0521 C.3       12 UNK         0.1400 
     71 CB         -1.2400  -18.9158  -48.9383 C.3       12 UNK        -0.1800 
     72 C          -2.3840  -21.1607  -49.1641 C.2       12 UNK         0.5000 
     73 O          -2.7578  -21.5593  -50.2620 O.2       12 UNK        -0.5000 
     74 N          -3.0699  -21.3628  -48.0300 N.am      13 UNK        -0.5000 
     75 CA         -4.3292  -22.1051  -47.9522 C.3       13 UNK         0.1400 
     76 CB         -4.9278  -21.9533  -46.5464 C.3       13 UNK        -0.1800 
     77 C          -4.1898  -23.5940  -48.3239 C.2       13 UNK         0.5000 
     78 O          -5.1206  -24.1589  -48.8956 O.2       13 UNK        -0.5000 
     79 N          -3.0436  -24.2065  -48.0004 N.am      14 UNK        -0.5000 
     80 CA         -2.7229  -25.5830  -48.3726 C.3       14 UNK         0.1400 
     81 CB         -1.5761  -26.1006  -47.4910 C.3       14 UNK        -0.1800 
     82 C          -2.3724  -25.7187  -49.8657 C.2       14 UNK         0.5000 
     83 O          -2.8241  -26.6678  -50.5091 O.2       14 UNK        -0.5000 
     84 N          -1.5726  -24.7773  -50.3854 N.am      15 UNK        -0.5000 
     85 CA         -1.0728  -24.7383  -51.7593 C.3       15 UNK         0.1400 
     86 CB         -0.1002  -23.5592  -51.9075 C.3       15 UNK        -0.1800 
     87 C          -2.2044  -24.6794  -52.8052 C.2       15 UNK         0.5000 
     88 O          -2.8851  -23.6601  -52.9267 O.2       15 UNK        -0.5000 
     89 N          -2.3863  -25.7981  -53.5229 N.am      16 UNK        -0.5000 
     90 CA         -3.4341  -26.0604  -54.5197 C.3       16 UNK         0.1400 
     91 CB         -3.3120  -25.0950  -55.7191 C.3       16 UNK        -0.1800 
     92 C          -4.8646  -26.1079  -53.9332 C.2       16 UNK         0.5000 
     93 O          -5.8296  -26.0113  -54.6930 O.2       16 UNK        -0.5000 
     94 N          -4.9681  -26.2863  -52.6059 N.am      17 UNK        -0.5000 
     95 CA         -6.1694  -26.2484  -51.7646 C.3       17 UNK         0.1400 
     96 CB         -7.2004  -27.3083  -52.2030 C.3       17 UNK        -0.1800 
     97 C          -6.8069  -24.8474  -51.6726 C.2       17 UNK         0.5000 
     98 O          -6.5631  -23.9771  -52.5109 O.2       17 UNK        -0.5000 
     99 N          -7.6425  -24.6552  -50.6434 N.am      18 UNK        -0.5000 
    100 CA        -8.2405  -23.3693  -50.2649 C.3       18 UNK         0.1400 
    101 CB        -8.9533  -23.5325  -48.9140 C.3       18 UNK        -0.1800 
    102 C         -9.1920  -22.7601  -51.3146 C.2       18 UNK         0.5000 
    103 O         -9.4655  -21.5611  -51.2565 O.2       18 UNK        -0.5000 
    104 N         -9.6611  -23.5824  -52.2629 N.am      19 UNK        -0.5000 
    105 CA       -10.4360  -23.1603  -53.4296 C.3       19 UNK         0.1400 
    106 CB       -10.9956  -24.4060  -54.1334 C.3       19 UNK        -0.1800 
    107 C         -9.6206  -22.3019  -54.4190 C.2       19 UNK         0.5000 
    108 O        -10.2026  -21.4511  -55.0933 O.2       19 UNK        -0.5000 
    109 N         -8.3019  -22.5323  -54.4833 N.am      20 UNK        -0.5000 
    110 CA        -7.3595  -21.7622  -55.2941 C.3       20 UNK         0.1400 
    111 CB        -6.4565  -22.7281  -56.0763 C.3       20 UNK        -0.1800 
    112 C         -6.5092  -20.8354  -54.4122 C.2       20 UNK         0.5000 
    113 O         -6.2897  -19.6818  -54.7853 O.2       20 UNK        -0.5000 
    114 N         -6.0367  -21.3639  -53.2721 N.am      21 UNK        -0.5000 
    115 CA        -5.1875  -20.7253  -52.2605 C.3       21 UNK         0.1400 
    116 CB        -6.0299  -19.7746  -51.3871 C.3       21 UNK        -0.1800 
    117 C         -3.9341  -20.0474  -52.8608 C.2       21 UNK         0.5000 
    118 O         -3.6268  -18.9035  -52.5195 O.2       21 UNK        -0.5000 
    119 N         -3.3012  -20.7558  -53.8074 N.am      22 UNK        -0.5000 
    120 CA        -2.2249  -20.3187  -54.7142 C.3       22 UNK         0.1400 
    121 C         -2.4354  -18.9701  -55.4741 C.2       22 UNK         0.5000 
    122 N         -3.6624  -18.4908  -55.6470 N.am      22 UNK        -0.7600 
    123 O         -1.4826  -18.3697  -55.9645 O.2       22 UNK        -0.5000 
    124 C124       -0.7944  -20.5387  -54.1463 C.3       23 UNK        -0.0398 
    125 S125       -0.3472  -19.5914  -52.6525 S.3       23 UNK        -0.2404 
    126 C126        1.4080  -20.0617  -52.5053 C.3       23 UNK        -0.0205 
    127 H127        5.3090  -14.4826  -44.4238 H         1 UNK         0.0600 
    128 H128        5.7825  -12.9846  -45.2297 H         1 UNK         0.0600 
    129 H129        5.5215  -14.4550  -46.1763 H         1 UNK         0.0600 
    130 H130        3.6216  -14.2517  -47.3531 H         1 UNK         0.3000 
    131 H131        1.0906  -13.8936  -46.1271 H         1 UNK         0.0600 
    132 H132        1.8335  -13.7849  -49.0981 H         1 UNK         0.0800 
    133 H133        0.2026  -13.8203  -48.4883 H         1 UNK         0.0800 
    134 H134        2.5970  -15.7644  -50.1657 H         1 UNK         0.0800 
    135 H135        3.5560  -16.1037  -48.7456 H         1 UNK         0.0800 
    136 H136        1.4601  -17.5548  -51.4060 H         1 UNK         0.1150 
    137 H137        2.8571  -21.5529  -50.7417 H         1 UNK         0.1150 
    138 H138        3.8769  -18.4367  -47.9804 H         1 UNK         0.1150 
    139 H139        5.1551  -21.3785  -49.1495 H         1 UNK         0.0800 
    140 H140        4.7938  -20.5937  -47.6361 H         1 UNK         0.0800 
    141 H141        2.4507  -20.8498  -46.6196 H         1 UNK         0.0800 
    142 H142        2.9759  -22.1839  -45.6349 H         1 UNK         0.0800 
    143 H143        1.0847  -23.5791  -46.4582 H         1 UNK         0.0600 
    144 H144        0.7870  -21.3553  -44.7540 H         1 UNK         0.3000 
    145 H145       -2.6218  -21.8891  -43.7818 H         1 UNK         0.0600 
    146 H146       -1.5146  -21.8499  -41.5710 H         1 UNK         0.0600 
    147 H147       -1.1804  -23.3745  -42.3784 H         1 UNK         0.0600 
    148 H148        0.0586  -22.1265  -42.3145 H         1 UNK         0.0600 
    149 H149       -0.7581  -19.8820  -43.0268 H         1 UNK         0.3000 
    150 H150       -1.5277  -17.5418  -45.6543 H         1 UNK         0.0600 
    151 H151       -3.1974  -17.2193  -43.8350 H         1 UNK         0.0600 
    152 H152       -1.8321  -16.1301  -43.6322 H         1 UNK         0.0600 
    153 H153       -1.9721  -17.5666  -42.6218 H         1 UNK         0.0600 
    154 H154        0.3648  -17.3561  -43.5645 H         1 UNK         0.3000 
    155 H155        3.1080  -18.9724  -45.2387 H         1 UNK         0.0600 
    156 H156        2.4820  -16.0700  -44.5100 H         1 UNK         0.0600 
    157 H157        3.1502  -16.6621  -46.0249 H         1 UNK         0.0600 
    158 H158        4.1025  -16.7716  -44.5548 H         1 UNK         0.0600 
    159 H159        2.7005  -17.7807  -42.6352 H         1 UNK         0.3000 
    160 H160        1.9580  -20.8298  -40.9492 H         1 UNK         0.0600 
    161 H161        4.4912  -19.0993  -40.9526 H         1 UNK         0.0600 
    162 H162        4.4442  -20.8408  -41.1998 H         1 UNK         0.0600 
    163 H163        3.9634  -20.1665  -39.6511 H         1 UNK         0.0600 
    164 H164        2.3860  -18.1487  -40.0390 H         1 UNK         0.3000 
    165 H165       -0.9784  -17.0233  -40.3818 H         1 UNK         0.0600 
    166 H166       -0.7280  -16.6854  -37.9467 H         1 UNK         0.0600 
    167 H167       -0.9493  -18.3932  -38.2893 H         1 UNK         0.0600 
    168 H168        0.6539  -17.7809  -37.9006 H         1 UNK         0.0600 
    169 H169        1.1989  -15.7085  -39.2170 H         1 UNK         0.3000 
    170 H170        2.0588  -13.9088  -40.1643 H         1 UNK         0.0600 
    171 H171        3.9459  -15.3580  -40.9092 H         1 UNK         0.0600 
    172 H172        3.5713  -15.0153  -42.5932 H         1 UNK         0.0600 
    173 H173        4.1352  -13.7262  -41.5354 H         1 UNK         0.0600 
    174 H174        2.0593  -13.0830  -42.9210 H         1 UNK         0.3000 
    175 H175       -0.4276  -12.2060  -43.7942 H         1 UNK         0.0600 
    176 H176       -0.8926  -10.0644  -41.6525 H         1 UNK         0.0600 
    177 H177       -1.4525   -9.9719  -43.3220 H         1 UNK         0.0600 
    178 H178       -2.0738  -11.2188  -42.2537 H         1 UNK         0.0600 
    179 H179        1.3010  -11.0422  -44.4744 H         1 UNK         0.3000 
    180 H180        3.1064   -8.3776  -43.5266 H         1 UNK         0.0600 
    181 H181        4.4984  -11.0799  -43.1097 H         1 UNK         0.0600 
    182 H182        4.5527   -9.7058  -42.0145 H         1 UNK         0.0600 
    183 H183        5.2971   -9.5861  -43.6002 H         1 UNK         0.0600 
    184 H184        3.4377  -10.7147  -45.3092 H         1 UNK         0.3000 
    185 H185        1.4435   -9.3895  -47.8785 H         1 UNK         0.0600 
    186 H186        3.5321   -8.0959  -48.3295 H         1 UNK         0.0600 
    187 H187        4.5097   -9.4875  -47.8786 H         1 UNK         0.0600 
    188 H188        3.4710   -9.5561  -49.3031 H         1 UNK         0.0600 
    189 H189        3.2643  -11.6087  -47.7389 H         1 UNK         0.3000 
    190 H190        0.0491  -20.2142  -47.2455 H         1 UNK         0.3000 
    191 H191       -0.4740  -20.6353  -49.9639 H         1 UNK         0.0600 
    192 H192       -0.2832  -18.3963  -48.9383 H         1 UNK         0.0600 
    193 H193       -1.8167  -18.5364  -49.7829 H         1 UNK         0.0600 
    194 H194       -1.7682  -18.6443  -48.0243 H         1 UNK         0.0600 
    195 H195       -2.7185  -20.9636  -47.1635 H         1 UNK         0.3000 
    196 H196       -5.0225  -21.6551  -48.6659 H         1 UNK         0.0600 
    197 H197       -5.8792  -22.4810  -46.4672 H         1 UNK         0.0600 
    198 H198       -5.1157  -20.9061  -46.3088 H         1 UNK         0.0600 
    199 H199       -4.2623  -22.3558  -45.7820 H         1 UNK         0.0600 
    200 H200       -2.3410  -23.6941  -47.4788 H         1 UNK         0.3000 
    201 H201       -3.5987  -26.2061  -48.1789 H         1 UNK         0.0600 
    202 H202       -1.8495  -26.0750  -46.4359 H         1 UNK         0.0600 
    203 H203       -0.6703  -25.5064  -47.6140 H         1 UNK         0.0600 
    204 H204       -1.3285  -27.1335  -47.7387 H         1 UNK         0.0600 
    205 H205       -1.2372  -24.0393  -49.7724 H         1 UNK         0.3000 
    206 H206       -0.4998  -25.6538  -51.9187 H         1 UNK         0.0600 
    207 H207        0.7444  -23.6542  -51.2250 H         1 UNK         0.0600 
    208 H208        0.3050  -23.5127  -52.9185 H         1 UNK         0.0600 
    209 H209       -0.5914  -22.6087  -51.6965 H         1 UNK         0.0600 
    210 H210       -1.7890  -26.5878  -53.3195 H         1 UNK         0.3000 
    211 H211       -3.2407  -27.0662  -54.8950 H         1 UNK         0.0600 
    212 H212       -3.5472  -24.0677  -55.4416 H         1 UNK         0.0600 
    213 H213       -3.9936  -25.3776  -56.5221 H         1 UNK         0.0600 
    214 H214       -2.3039  -25.1071  -56.1331 H         1 UNK         0.0600 
    215 H215       -4.1010  -26.3536  -52.0832 H         1 UNK         0.3000 
    216 H216       -5.8256  -26.5062  -50.7615 H         1 UNK         0.0600 
    217 H217       -8.0020  -27.4015  -51.4699 H         1 UNK         0.0600 
    218 H218       -6.7385  -28.2907  -52.3015 H         1 UNK         0.0600 
    219 H219       -7.6651  -27.0584  -53.1571 H         1 UNK         0.0600 
    220 H220       -7.7924  -25.4156  -49.9967 H         1 UNK         0.3000 
    221 H221       -7.4215  -22.6596  -50.1304 H         1 UNK         0.0600 
    222 H222       -9.7627  -24.2611  -48.9725 H         1 UNK         0.0600 
    223 H223       -8.2585  -23.8600  -48.1401 H         1 UNK         0.0600 
    224 H224       -9.3844  -22.5874  -48.5810 H         1 UNK         0.0600 
    225 H225       -9.3890  -24.5534  -52.2236 H         1 UNK         0.3000 
    226 H226      -11.2759  -22.5565  -53.0797 H         1 UNK         0.0600 
    227 H227      -11.6332  -24.9845  -53.4647 H         1 UNK         0.0600 
    228 H228      -11.6005  -24.1274  -54.9974 H         1 UNK         0.0600 
    229 H229      -10.1980  -25.0602  -54.4881 H         1 UNK         0.0600 
    230 H230       -7.8968  -23.2267  -53.8650 H         1 UNK         0.3000 
    231 H231       -7.8908  -21.1400  -56.0173 H         1 UNK         0.0600 
    232 H232       -7.0412  -23.3601  -56.7446 H         1 UNK         0.0600 
    233 H233       -5.8957  -23.3809  -55.4075 H         1 UNK         0.0600 
    234 H234       -5.7353  -22.1840  -56.6873 H         1 UNK         0.0600 
    235 H235       -6.2401  -22.3442  -53.0799 H         1 UNK         0.3000 
    236 H236       -4.8399  -21.5396  -51.6262 H         1 UNK         0.0600 
    237 H237       -5.4378  -19.3777  -50.5615 H         1 UNK         0.0600 
    238 H238       -6.4060  -18.9285  -51.9630 H         1 UNK         0.0600 
    239 H239       -6.8855  -20.2912  -50.9531 H         1 UNK         0.0600 
    240 H240       -3.6011  -21.7144  -53.9294 H         1 UNK         0.3000 
    241 H241       -2.3023  -21.0390  -55.5293 H         1 UNK         0.0600 
    242 H242       -3.7866  -17.6282  -56.1521 H         1 UNK         0.3800 
    243 H243       -4.4714  -18.9571  -55.2495 H         1 UNK         0.3800 
    244 H244       -0.6807  -21.5957  -53.9110 H         1 UNK         0.0800 
    245 H245       -0.0499  -20.3366  -54.9180 H         1 UNK         0.0800 
    246 H246        1.4895  -21.1444  -52.6082 H         1 UNK         0.0800 
    247 H247        1.9626  -19.6293  -53.3390 H         1 UNK         0.0800 
@<TRIPOS>BOND
     1    1    2 1    
     2    1  127 1    
     3    1  128 1    
     4    1  129 1    
     5    2    3 2    
     6    2    4 am   BACKBONE|DICT|INTERRES
     7    4    5 1    
     8    4  130 1    
     9    5    6 1    
    10    5   65 1    
    11    5  131 1    
    12    6    7 1    
    13    6  132 1    
    14    6  133 1    
    15    7    8 1    
    16    8    9 1    
    17    8  134 1    
    18    8  135 1    
    19    9   10 ar   
    20    9   14 ar   
    21   10   11 ar   
    22   10  136 1    
    23   11   12 ar   
    24   11  126 1    
    25   12   13 ar   
    26   12  137 1    
    27   13   14 ar   
    28   13   15 1    
    29   14  138 1    
    30   15   16 1    
    31   15  139 1    
    32   15  140 1    
    33   16   17 1    
    34   17   18 1    
    35   17  141 1    
    36   17  142 1    
    37   18   19 1    
    38   18   67 1    
    39   18  143 1    
    40   19   20 am   BACKBONE|DICT|INTERRES
    41   19  144 1    
    42   20   21 2    
    43   20   22 1    
    44   22   23 1    
    45   22   24 1    
    46   22  145 1    
    47   23  146 1    
    48   23  147 1    
    49   23  148 1    
    50   24   25 am   BACKBONE|DICT|INTERRES
    51   24  149 1    
    52   25   26 2    
    53   25   27 1    
    54   27   28 1    
    55   27   29 1    
    56   27  150 1    
    57   28  151 1    
    58   28  152 1    
    59   28  153 1    
    60   29   30 am   BACKBONE|DICT|INTERRES
    61   29  154 1    
    62   30   31 2    
    63   30   32 1    
    64   32   33 1    
    65   32   34 1    
    66   32  155 1    
    67   33  156 1    
    68   33  157 1    
    69   33  158 1    
    70   34   35 am   BACKBONE|DICT|INTERRES
    71   34  159 1    
    72   35   36 2    
    73   35   37 1    
    74   37   38 1    
    75   37   39 1    
    76   37  160 1    
    77   38  161 1    
    78   38  162 1    
    79   38  163 1    
    80   39   40 am   BACKBONE|DICT|INTERRES
    81   39  164 1    
    82   40   41 2    
    83   40   42 1    
    84   42   43 1    
    85   42   44 1    
    86   42  165 1    
    87   43  166 1    
    88   43  167 1    
    89   43  168 1    
    90   44   45 am   BACKBONE|DICT|INTERRES
    91   44  169 1    
    92   45   46 2    
    93   45   47 1    
    94   47   48 1    
    95   47   49 1    
    96   47  170 1    
    97   48  171 1    
    98   48  172 1    
    99   48  173 1    
   100   49   50 am   BACKBONE|DICT|INTERRES
   101   49  174 1    
   102   50   51 2    
   103   50   52 1    
   104   52   53 1    
   105   52   54 1    
   106   52  175 1    
   107   53  176 1    
   108   53  177 1    
   109   53  178 1    
   110   54   55 am   BACKBONE|DICT|INTERRES
   111   54  179 1    
   112   55   56 2    
   113   55   57 1    
   114   57   58 1    
   115   57   59 1    
   116   57  180 1    
   117   58  181 1    
   118   58  182 1    
   119   58  183 1    
   120   59   60 am   BACKBONE|DICT|INTERRES
   121   59  184 1    
   122   60   61 2    
   123   60   62 1    
   124   62   63 1    
   125   62   64 1    
   126   62  185 1    
   127   63  186 1    
   128   63  187 1    
   129   63  188 1    
   130   64   65 am   BACKBONE|DICT|INTERRES
   131   64  189 1    
   132   65   66 2    
   133   67   68 2    
   134   67   69 am   BACKBONE|DICT|INTERRES
   135   69   70 1    
   136   69  190 1    
   137   70   71 1    
   138   70   72 1    
   139   70  191 1    
   140   71  192 1    
   141   71  193 1    
   142   71  194 1    
   143   72   73 2    
   144   72   74 am   BACKBONE|DICT|INTERRES
   145   74   75 1    
   146   74  195 1    
   147   75   76 1    
   148   75   77 1    
   149   75  196 1    
   150   76  197 1    
   151   76  198 1    
   152   76  199 1    
   153   77   78 2    
   154   77   79 am   BACKBONE|DICT|INTERRES
   155   79   80 1    
   156   79  200 1    
   157   80   81 1    
   158   80   82 1    
   159   80  201 1    
   160   81  202 1    
   161   81  203 1    
   162   81  204 1    
   163   82   83 2    
   164   82   84 am   BACKBONE|DICT|INTERRES
   165   84   85 1    
   166   84  205 1    
   167   85   86 1    
   168   85   87 1    
   169   85  206 1    
   170   86  207 1    
   171   86  208 1    
   172   86  209 1    
   173   87   88 2    
   174   87   89 am   BACKBONE|DICT|INTERRES
   175   89   90 1    
   176   89  210 1    
   177   90   91 1    
   178   90   92 1    
   179   90  211 1    
   180   91  212 1    
   181   91  213 1    
   182   91  214 1    
   183   92   93 2    
   184   92   94 am   BACKBONE|DICT|INTERRES
   185   94   95 1    
   186   94  215 1    
   187   95   96 1    
   188   95   97 1    
   189   95  216 1    
   190   96  217 1    
   191   96  218 1    
   192   96  219 1    
   193   97   98 2    
   194   97   99 am   BACKBONE|DICT|INTERRES
   195   99  100 1    
   196   99  220 1    
   197  100  101 1    
   198  100  102 1    
   199  100  221 1    
   200  101  222 1    
   201  101  223 1    
   202  101  224 1    
   203  102  103 2    
   204  102  104 am   BACKBONE|DICT|INTERRES
   205  104  105 1    
   206  104  225 1    
   207  105  106 1    
   208  105  107 1    
   209  105  226 1    
   210  106  227 1    
   211  106  228 1    
   212  106  229 1    
   213  107  108 2    
   214  107  109 am   BACKBONE|DICT|INTERRES
   215  109  110 1    
   216  109  230 1    
   217  110  111 1    
   218  110  112 1    
   219  110  231 1    
   220  111  232 1    
   221  111  233 1    
   222  111  234 1    
   223  112  113 2    
   224  112  114 am   BACKBONE|DICT|INTERRES
   225  114  115 1    
   226  114  235 1    
   227  115  116 1    
   228  115  117 1    
   229  115  236 1    
   230  116  237 1    
   231  116  238 1    
   232  116  239 1    
   233  117  118 2    
   234  117  119 am   BACKBONE|DICT|INTERRES
   235  119  120 1    
   236  119  240 1    
   237  120  121 1    
   238  120  124 1    
   239  120  241 1    
   240  121  122 am   BACKBONE|DICT|INTERRES
   241  121  123 2    
   242  122  242 1    
   243  122  243 1    
   244  124  125 1    
   245  124  244 1    
   246  124  245 1    
   247  125  126 1    
   248  126  246 1    
   249  126  247 1    
@<TRIPOS>SUBSTRUCTURE
     1 UNK         1 GROUP             0       ****    0 ROOT    
