@<TRIPOS>MOLECULE
3R540
247   249    1
SMALL
USER_CHARGES


@<TRIPOS>ATOM
      1 CA         -0.7702  -13.0357  -49.9552 C.3       0 UNK        -0.1800 
      2 C           0.7270  -13.3004  -49.9168 C.2       0 UNK         0.5000 
      3 O           1.5146  -12.4319  -50.2922 O.2       0 UNK        -0.5000 
      4 N           1.1222  -14.4941  -49.4560 N.am      1 UNK        -0.5000 
      5 CA          2.5240  -14.9197  -49.3266 C.3       1 UNK         0.1400 
      6 C6          2.6599  -16.4578  -49.2142 C.3       23 UNK        -0.0398 
      7 S7          2.0874  -17.3165  -50.7203 S.3       23 UNK        -0.2404 
      8 C8          0.7047  -18.3216  -50.0968 C.3       23 UNK        -0.0205 
      9 C9         -0.5113  -17.4754  -49.7514 C.ar      23 UNK        -0.0193 
     10 C10        -1.3262  -16.9681  -50.7681 C.ar      23 UNK        -0.1150 
     11 C11        -2.4615  -16.2129  -50.4580 C.ar      23 UNK        -0.0193 
     12 C12        -2.7781  -15.9687  -49.1197 C.ar      23 UNK        -0.1150 
     13 C13        -1.9693  -16.4663  -48.0949 C.ar      23 UNK        -0.0193 
     14 C14        -0.8340  -17.2139  -48.4170 C.ar      23 UNK        -0.1150 
     15 C15        -2.3302  -16.1910  -46.6447 C.3       23 UNK        -0.0205 
     16 S16        -3.4318  -17.4791  -45.9777 S.3       23 UNK        -0.2404 
     17 C17        -2.2525  -18.7453  -45.3959 C.3       23 UNK        -0.0398 
     18 CA         -2.0390  -19.9220  -46.3779 C.3       11 UNK         0.1400 
     19 N          -0.7964  -20.6345  -46.0586 N.am      11 UNK        -0.5000 
     20 C          -0.3017  -21.7210  -46.6690 C.2       10 UNK         0.5000 
     21 O          -0.8812  -22.3136  -47.5764 O.2       10 UNK        -0.5000 
     22 CA          1.0738  -22.2368  -46.2005 C.3       10 UNK         0.1400 
     23 CB          2.0946  -22.1400  -47.3453 C.3       10 UNK        -0.1800 
     24 N           1.6071  -21.5204  -45.0400 N.am      10 UNK        -0.5000 
     25 C           1.1943  -21.6430  -43.7734 C.2       9 UNK         0.5000 
     26 O           0.3047  -22.4187  -43.4241 O.2       9 UNK        -0.5000 
     27 CA          1.8427  -20.7084  -42.7318 C.3       9 UNK         0.1400 
     28 CB          3.1622  -21.2927  -42.1950 C.3       9 UNK        -0.1800 
     29 N           2.0121  -19.3202  -43.1862 N.am      9 UNK        -0.5000 
     30 C           2.8185  -18.8240  -44.1372 C.2       8 UNK         0.5000 
     31 O           3.5714  -19.5077  -44.8312 O.2       8 UNK        -0.5000 
     32 CA          2.7443  -17.3061  -44.3748 C.3       8 UNK         0.1400 
     33 CB          1.5550  -16.9681  -45.2856 C.3       8 UNK        -0.1800 
     34 N           2.6353  -16.5485  -43.1294 N.am      8 UNK        -0.5000 
     35 C           3.6227  -16.4194  -42.2315 C.2       7 UNK         0.5000 
     36 O           4.7569  -16.8735  -42.3852 O.2       7 UNK        -0.5000 
     37 CA          3.2734  -15.6750  -40.9316 C.3       7 UNK         0.1400 
     38 CB          3.3880  -14.1532  -41.1171 C.3       7 UNK        -0.1800 
     39 N           1.9307  -16.0175  -40.4613 N.am      7 UNK        -0.5000 
     40 C           1.6135  -17.1785  -39.8693 C.2       6 UNK         0.5000 
     41 O           2.4345  -18.0535  -39.5939 O.2       6 UNK        -0.5000 
     42 CA          0.1270  -17.4097  -39.5384 C.3       6 UNK         0.1400 
     43 CB         -0.1858  -16.9355  -38.1111 C.3       6 UNK        -0.1800 
     44 N          -0.7793  -16.7413  -40.4731 N.am      6 UNK        -0.5000 
     45 C          -0.9618  -17.1049  -41.7498 C.2       5 UNK         0.5000 
     46 O          -0.3942  -18.0580  -42.2829 O.2       5 UNK        -0.5000 
     47 CA         -1.9000  -16.2161  -42.5843 C.3       5 UNK         0.1400 
     48 CB         -3.3638  -16.6340  -42.3815 C.3       5 UNK        -0.1800 
     49 N          -1.7561  -14.7889  -42.2888 N.am      5 UNK        -0.5000 
     50 C          -0.6352  -14.0823  -42.4790 C.2       4 UNK         0.5000 
     51 O           0.4173  -14.5644  -42.9078 O.2       4 UNK        -0.5000 
     52 CA         -0.6866  -12.6071  -42.0683 C.3       4 UNK         0.1400 
     53 CB         -0.3723  -12.4485  -40.5710 C.3       4 UNK        -0.1800 
     54 N           0.2906  -11.8627  -42.8524 N.am      4 UNK        -0.5000 
     55 C           0.1498  -10.5986  -43.2673 C.2       3 UNK         0.5000 
     56 O          -0.8223   -9.8961  -42.9851 O.2       3 UNK        -0.5000 
     57 CA          1.2777  -10.0016  -44.1360 C.3       3 UNK         0.1400 
     58 CB          2.0997   -8.9895  -43.3219 C.3       3 UNK        -0.1800 
     59 N           2.1937  -10.9928  -44.7085 N.am      3 UNK        -0.5000 
     60 C           1.8795  -11.8644  -45.6745 C.2       2 UNK         0.5000 
     61 O           0.7610  -11.9453  -46.1909 O.2       2 UNK        -0.5000 
     62 CA          3.0045  -12.8114  -46.1193 C.3       2 UNK         0.1400 
     63 CB          3.4783  -13.7048  -44.9585 C.3       2 UNK        -0.1800 
     64 N           2.5123  -13.6279  -47.2228 N.am      2 UNK        -0.5000 
     65 C           3.2607  -14.2200  -48.1603 C.2       1 UNK         0.5000 
     66 O           4.4925  -14.2212  -48.1414 O.2       1 UNK        -0.5000 
     67 C          -3.2818  -20.8346  -46.4602 C.2       11 UNK         0.5000 
     68 O          -4.0853  -20.6787  -47.3788 O.2       11 UNK        -0.5000 
     69 N          -3.3923  -21.8013  -45.5373 N.am      12 UNK        -0.5000 
     70 CA         -4.4789  -22.7830  -45.5071 C.3       12 UNK         0.1400 
     71 CB         -4.3962  -23.5968  -44.2070 C.3       12 UNK        -0.1800 
     72 C          -4.4785  -23.7115  -46.7360 C.2       12 UNK         0.5000 
     73 O          -5.5336  -23.9419  -47.3269 O.2       12 UNK        -0.5000 
     74 N          -3.2888  -24.1940  -47.1203 N.am      13 UNK        -0.5000 
     75 CA         -3.0828  -25.0201  -48.3090 C.3       13 UNK         0.1400 
     76 CB         -1.7054  -25.6956  -48.2399 C.3       13 UNK        -0.1800 
     77 C          -3.2274  -24.2074  -49.6051 C.2       13 UNK         0.5000 
     78 O          -3.7785  -24.7186  -50.5795 O.2       13 UNK        -0.5000 
     79 N          -2.7494  -22.9564  -49.5881 N.am      14 UNK        -0.5000 
     80 CA         -2.8460  -22.0052  -50.6920 C.3       14 UNK         0.1400 
     81 CB         -2.0199  -20.7519  -50.3720 C.3       14 UNK        -0.1800 
     82 C          -4.3016  -21.6392  -51.0214 C.2       14 UNK         0.5000 
     83 O          -4.6711  -21.6366  -52.1954 O.2       14 UNK        -0.5000 
     84 N          -5.1057  -21.3701  -49.9829 N.am      15 UNK        -0.5000 
     85 CA         -6.5392  -21.0855  -50.0795 C.3       15 UNK         0.1400 
     86 CB         -7.0455  -20.5602  -48.7283 C.3       15 UNK        -0.1800 
     87 C          -7.3656  -22.3023  -50.5321 C.2       15 UNK         0.5000 
     88 O          -8.3360  -22.1351  -51.2711 O.2       15 UNK        -0.5000 
     89 N          -6.9535  -23.5047  -50.1074 N.am      16 UNK        -0.5000 
     90 CA         -7.5418  -24.7801  -50.5242 C.3       16 UNK         0.1400 
     91 CB         -7.1285  -25.8675  -49.5196 C.3       16 UNK        -0.1800 
     92 C          -7.1470  -25.2005  -51.9555 C.2       16 UNK         0.5000 
     93 O          -7.7464  -26.1341  -52.4897 O.2       16 UNK        -0.5000 
     94 N          -6.1335  -24.5342  -52.5302 N.am      17 UNK        -0.5000 
     95 CA         -5.4748  -24.8246  -53.8083 C.3       17 UNK         0.1400 
     96 CB         -6.4524  -24.6767  -54.9923 C.3       17 UNK        -0.1800 
     97 C          -4.7176  -26.1718  -53.8090 C.2       17 UNK         0.5000 
     98 O          -4.4759  -26.7455  -54.8725 O.2       17 UNK        -0.5000 
     99 N          -4.3332  -26.6405  -52.6140 N.am      18 UNK        -0.5000 
    100 CA        -3.4422  -27.7802  -52.3994 C.3       18 UNK         0.1400 
    101 CB        -3.6816  -28.3406  -50.9890 C.3       18 UNK        -0.1800 
    102 C         -1.9688  -27.3701  -52.5817 C.2       18 UNK         0.5000 
    103 O         -1.1500  -28.1917  -52.9950 O.2       18 UNK        -0.5000 
    104 N         -1.6779  -26.0964  -52.2983 N.am      19 UNK        -0.5000 
    105 CA        -0.4412  -25.3977  -52.6207 C.3       19 UNK         0.1400 
    106 CB         0.2279  -24.9426  -51.3120 C.3       19 UNK        -0.1800 
    107 C         -0.7881  -24.1891  -53.5058 C.2       19 UNK         0.5000 
    108 O         -1.9648  -23.8508  -53.6640 O.2       19 UNK        -0.5000 
    109 N          0.2436  -23.5449  -54.0589 N.am      20 UNK        -0.5000 
    110 CA         0.1216  -22.2737  -54.7724 C.3       20 UNK         0.1400 
    111 CB         1.3461  -22.1217  -55.6893 C.3       20 UNK        -0.1800 
    112 C          0.0268  -21.0974  -53.7696 C.2       20 UNK         0.5000 
    113 O          0.4708  -21.2492  -52.6313 O.2       20 UNK        -0.5000 
    114 N         -0.4970  -19.9204  -54.1380 N.am      21 UNK        -0.5000 
    115 CA        -1.0465  -19.5149  -55.4372 C.3       21 UNK         0.1400 
    116 CB        -0.0530  -18.5395  -56.0966 C.3       21 UNK        -0.1800 
    117 C         -2.4356  -18.8581  -55.2883 C.2       21 UNK         0.5000 
    118 O         -2.9216  -18.2624  -56.2506 O.2       21 UNK        -0.5000 
    119 N         -3.0320  -18.9315  -54.0896 N.am      22 UNK        -0.5000 
    120 CA        -4.2920  -18.2537  -53.7443 C.3       22 UNK         0.1400 
    121 C         -5.5397  -18.8600  -54.4447 C.2       22 UNK         0.5000 
    122 N         -5.7554  -20.1659  -54.3552 N.am      22 UNK        -0.7600 
    123 O         -6.3106  -18.1455  -55.0796 O.2       22 UNK        -0.5000 
    124 C124       -4.4766  -18.1425  -52.2052 C.3       23 UNK        -0.0398 
    125 S125       -4.9609  -16.4702  -51.6703 S.3       23 UNK        -0.2404 
    126 C126       -3.3390  -15.6441  -51.5645 C.3       23 UNK        -0.0205 
    127 H127       -1.2847  -13.5707  -49.1577 H         1 UNK         0.0600 
    128 H128       -0.9732  -11.9724  -49.8270 H         1 UNK         0.0600 
    129 H129       -1.1845  -13.3518  -50.9123 H         1 UNK         0.0600 
    130 H130        0.4271  -15.1846  -49.2075 H         1 UNK         0.3000 
    131 H131        3.0446  -14.6131  -50.2366 H         1 UNK         0.0600 
    132 H132        2.1236  -16.8292  -48.3415 H         1 UNK         0.0800 
    133 H133        3.7042  -16.7400  -49.0675 H         1 UNK         0.0800 
    134 H134        0.4309  -19.0450  -50.8656 H         1 UNK         0.0800 
    135 H135        1.0323  -18.9078  -49.2366 H         1 UNK         0.0800 
    136 H136       -1.0736  -17.1615  -51.8009 H         1 UNK         0.1150 
    137 H137       -3.6588  -15.3906  -48.8769 H         1 UNK         0.1150 
    138 H138       -0.2146  -17.6103  -47.6272 H         1 UNK         0.1150 
    139 H139       -1.4300  -16.0926  -46.0374 H         1 UNK         0.0800 
    140 H140       -2.8414  -15.2297  -46.5733 H         1 UNK         0.0800 
    141 H141       -2.5902  -19.1128  -44.4254 H         1 UNK         0.0800 
    142 H142       -1.3017  -18.2543  -45.1981 H         1 UNK         0.0800 
    143 H143       -1.8932  -19.5096  -47.3760 H         1 UNK         0.0600 
    144 H144       -0.2411  -20.2466  -45.3116 H         1 UNK         0.3000 
    145 H145        0.9524  -23.2886  -45.9342 H         1 UNK         0.0600 
    146 H146        3.0582  -22.5559  -47.0504 H         1 UNK         0.0600 
    147 H147        1.7578  -22.6952  -48.2221 H         1 UNK         0.0600 
    148 H148        2.2557  -21.1059  -47.6532 H         1 UNK         0.0600 
    149 H149        2.3622  -20.8612  -45.2145 H         1 UNK         0.3000 
    150 H150        1.1480  -20.6517  -41.8921 H         1 UNK         0.0600 
    151 H151        2.9998  -22.2777  -41.7559 H         1 UNK         0.0600 
    152 H152        3.5851  -20.6554  -41.4181 H         1 UNK         0.0600 
    153 H153        3.9100  -21.4065  -42.9801 H         1 UNK         0.0600 
    154 H154        1.3638  -18.6698  -42.7502 H         1 UNK         0.3000 
    155 H155        3.6617  -17.0059  -44.8856 H         1 UNK         0.0600 
    156 H156        1.6067  -15.9430  -45.6492 H         1 UNK         0.0600 
    157 H157        0.6081  -17.0837  -44.7608 H         1 UNK         0.0600 
    158 H158        1.5368  -17.6225  -46.1566 H         1 UNK         0.0600 
    159 H159        1.7519  -16.0832  -42.9502 H         1 UNK         0.3000 
    160 H160        3.9961  -15.9749  -40.1695 H         1 UNK         0.0600 
    161 H161        2.6929  -13.7780  -41.8671 H         1 UNK         0.0600 
    162 H162        4.3929  -13.8765  -41.4381 H         1 UNK         0.0600 
    163 H163        3.1894  -13.6268  -40.1836 H         1 UNK         0.0600 
    164 H164        1.1908  -15.3701  -40.6869 H         1 UNK         0.3000 
    165 H165       -0.0600  -18.4846  -39.5910 H         1 UNK         0.0600 
    166 H166       -0.0351  -15.8608  -38.0010 H         1 UNK         0.0600 
    167 H167       -1.2169  -17.1604  -37.8378 H         1 UNK         0.0600 
    168 H168        0.4575  -17.4335  -37.3844 H         1 UNK         0.0600 
    169 H169       -1.2887  -15.9439  -40.1220 H         1 UNK         0.3000 
    170 H170       -1.6418  -16.3629  -43.6333 H         1 UNK         0.0600 
    171 H171       -3.5021  -17.6954  -42.5904 H         1 UNK         0.0600 
    172 H172       -3.6976  -16.4557  -41.3587 H         1 UNK         0.0600 
    173 H173       -4.0256  -16.0851  -43.0518 H         1 UNK         0.0600 
    174 H174       -2.5738  -14.3221  -41.9232 H         1 UNK         0.3000 
    175 H175       -1.6914  -12.2314  -42.2734 H         1 UNK         0.0600 
    176 H176       -0.4276  -11.4031  -40.2669 H         1 UNK         0.0600 
    177 H177       -1.0842  -13.0017  -39.9574 H         1 UNK         0.0600 
    178 H178        0.6265  -12.8131  -40.3282 H         1 UNK         0.0600 
    179 H179        1.0793  -12.4069  -43.1743 H         1 UNK         0.3000 
    180 H180        0.8002   -9.4677  -44.9603 H         1 UNK         0.0600 
    181 H181        2.6142   -9.4684  -42.4878 H         1 UNK         0.0600 
    182 H182        1.4612   -8.2079  -42.9079 H         1 UNK         0.0600 
    183 H183        2.8490   -8.4979  -43.9427 H         1 UNK         0.0600 
    184 H184        3.1325  -10.9944  -44.3366 H         1 UNK         0.3000 
    185 H185        3.8372  -12.2010  -46.4749 H         1 UNK         0.0600 
    186 H186        4.1673  -14.4785  -45.2968 H         1 UNK         0.0600 
    187 H187        4.0000  -13.1226  -44.1987 H         1 UNK         0.0600 
    188 H188        2.6358  -14.1922  -44.4713 H         1 UNK         0.0600 
    189 H189        1.5065  -13.5990  -47.3372 H         1 UNK         0.3000 
    190 H190       -2.6766  -21.8864  -44.8301 H         1 UNK         0.3000 
    191 H191       -5.4248  -22.2369  -45.5068 H         1 UNK         0.0600 
    192 H192       -4.4876  -22.9524  -43.3325 H         1 UNK         0.0600 
    193 H193       -5.2017  -24.3305  -44.1544 H         1 UNK         0.0600 
    194 H194       -3.4527  -24.1382  -44.1277 H         1 UNK         0.0600 
    195 H195       -2.4602  -23.8958  -46.6262 H         1 UNK         0.3000 
    196 H196       -3.8432  -25.8036  -48.3192 H         1 UNK         0.0600 
    197 H197       -1.5455  -26.3426  -49.1033 H         1 UNK         0.0600 
    198 H198       -1.6156  -26.3168  -47.3488 H         1 UNK         0.0600 
    199 H199       -0.8953  -24.9658  -48.2232 H         1 UNK         0.0600 
    200 H200       -2.2415  -22.6457  -48.7629 H         1 UNK         0.3000 
    201 H201       -2.4094  -22.4765  -51.5709 H         1 UNK         0.0600 
    202 H202       -1.0016  -21.0146  -50.0845 H         1 UNK         0.0600 
    203 H203       -2.4583  -20.1683  -49.5632 H         1 UNK         0.0600 
    204 H204       -1.9481  -20.1026  -51.2434 H         1 UNK         0.0600 
    205 H205       -4.7038  -21.3341  -49.0488 H         1 UNK         0.3000 
    206 H206       -6.6835  -20.3009  -50.8234 H         1 UNK         0.0600 
    207 H207       -6.5258  -19.6451  -48.4432 H         1 UNK         0.0600 
    208 H208       -8.1108  -20.3302  -48.7704 H         1 UNK         0.0600 
    209 H209       -6.8958  -21.2912  -47.9324 H         1 UNK         0.0600 
    210 H210       -6.1799  -23.5540  -49.4557 H         1 UNK         0.3000 
    211 H211       -8.6294  -24.6873  -50.4981 H         1 UNK         0.0600 
    212 H212       -6.0474  -26.0061  -49.4992 H         1 UNK         0.0600 
    213 H213       -7.5770  -26.8288  -49.7735 H         1 UNK         0.0600 
    214 H214       -7.4537  -25.6160  -48.5100 H         1 UNK         0.0600 
    215 H215       -5.7014  -23.7956  -51.9903 H         1 UNK         0.3000 
    216 H216       -4.7097  -24.0555  -53.9227 H         1 UNK         0.0600 
    217 H217       -5.9210  -24.7199  -55.9436 H         1 UNK         0.0600 
    218 H218       -7.2024  -25.4677  -55.0030 H         1 UNK         0.0600 
    219 H219       -6.9722  -23.7194  -54.9560 H         1 UNK         0.0600 
    220 H220       -4.5127  -26.0545  -51.8048 H         1 UNK         0.3000 
    221 H221       -3.6727  -28.5611  -53.1269 H         1 UNK         0.0600 
    222 H222       -3.4728  -27.5981  -50.2185 H         1 UNK         0.0600 
    223 H223       -4.7142  -28.6676  -50.8661 H         1 UNK         0.0600 
    224 H224       -3.0414  -29.2026  -50.7977 H         1 UNK         0.0600 
    225 H225       -2.4413  -25.4913  -52.0164 H         1 UNK         0.3000 
    226 H226        0.2400  -26.0475  -53.1738 H         1 UNK         0.0600 
    227 H227        0.4211  -25.7891  -50.6532 H         1 UNK         0.0600 
    228 H228        1.1861  -24.4597  -51.5061 H         1 UNK         0.0600 
    229 H229       -0.3905  -24.2277  -50.7686 H         1 UNK         0.0600 
    230 H230        1.1828  -23.8489  -53.8481 H         1 UNK         0.3000 
    231 H231       -0.7802  -22.3237  -55.3831 H         1 UNK         0.0600 
    232 H232        1.2507  -21.2521  -56.3376 H         1 UNK         0.0600 
    233 H233        1.4629  -22.9896  -56.3386 H         1 UNK         0.0600 
    234 H234        2.2671  -22.0061  -55.1163 H         1 UNK         0.0600 
    235 H235       -0.4764  -19.1806  -53.4526 H         1 UNK         0.3000 
    236 H236       -1.1837  -20.3623  -56.1063 H         1 UNK         0.0600 
    237 H237       -0.3690  -18.2780  -57.1073 H         1 UNK         0.0600 
    238 H238        0.0318  -17.6118  -55.5292 H         1 UNK         0.0600 
    239 H239        0.9452  -18.9686  -56.1732 H         1 UNK         0.0600 
    240 H240       -2.6105  -19.5038  -53.3757 H         1 UNK         0.3000 
    241 H241       -4.1904  -17.2413  -54.1414 H         1 UNK         0.0600 
    242 H242       -5.1921  -20.7506  -53.7422 H         1 UNK         0.3800 
    243 H243       -6.5579  -20.5628  -54.8158 H         1 UNK         0.3800 
    244 H244       -5.2292  -18.8391  -51.8381 H         1 UNK         0.0800 
    245 H245       -3.5668  -18.4170  -51.6747 H         1 UNK         0.0800 
    246 H246       -2.8359  -15.7099  -52.5304 H         1 UNK         0.0800 
    247 H247       -3.4997  -14.5814  -51.3782 H         1 UNK         0.0800 
@<TRIPOS>BOND
     1    1    2 1    
     2    1  127 1    
     3    1  128 1    
     4    1  129 1    
     5    2    3 2    
     6    2    4 am   BACKBONE|DICT|INTERRES
     7    4    5 1    
     8    4  130 1    
     9    5    6 1    
    10    5   65 1    
    11    5  131 1    
    12    6    7 1    
    13    6  132 1    
    14    6  133 1    
    15    7    8 1    
    16    8    9 1    
    17    8  134 1    
    18    8  135 1    
    19    9   10 ar   
    20    9   14 ar   
    21   10   11 ar   
    22   10  136 1    
    23   11   12 ar   
    24   11  126 1    
    25   12   13 ar   
    26   12  137 1    
    27   13   14 ar   
    28   13   15 1    
    29   14  138 1    
    30   15   16 1    
    31   15  139 1    
    32   15  140 1    
    33   16   17 1    
    34   17   18 1    
    35   17  141 1    
    36   17  142 1    
    37   18   19 1    
    38   18   67 1    
    39   18  143 1    
    40   19   20 am   BACKBONE|DICT|INTERRES
    41   19  144 1    
    42   20   21 2    
    43   20   22 1    
    44   22   23 1    
    45   22   24 1    
    46   22  145 1    
    47   23  146 1    
    48   23  147 1    
    49   23  148 1    
    50   24   25 am   BACKBONE|DICT|INTERRES
    51   24  149 1    
    52   25   26 2    
    53   25   27 1    
    54   27   28 1    
    55   27   29 1    
    56   27  150 1    
    57   28  151 1    
    58   28  152 1    
    59   28  153 1    
    60   29   30 am   BACKBONE|DICT|INTERRES
    61   29  154 1    
    62   30   31 2    
    63   30   32 1    
    64   32   33 1    
    65   32   34 1    
    66   32  155 1    
    67   33  156 1    
    68   33  157 1    
    69   33  158 1    
    70   34   35 am   BACKBONE|DICT|INTERRES
    71   34  159 1    
    72   35   36 2    
    73   35   37 1    
    74   37   38 1    
    75   37   39 1    
    76   37  160 1    
    77   38  161 1    
    78   38  162 1    
    79   38  163 1    
    80   39   40 am   BACKBONE|DICT|INTERRES
    81   39  164 1    
    82   40   41 2    
    83   40   42 1    
    84   42   43 1    
    85   42   44 1    
    86   42  165 1    
    87   43  166 1    
    88   43  167 1    
    89   43  168 1    
    90   44   45 am   BACKBONE|DICT|INTERRES
    91   44  169 1    
    92   45   46 2    
    93   45   47 1    
    94   47   48 1    
    95   47   49 1    
    96   47  170 1    
    97   48  171 1    
    98   48  172 1    
    99   48  173 1    
   100   49   50 am   BACKBONE|DICT|INTERRES
   101   49  174 1    
   102   50   51 2    
   103   50   52 1    
   104   52   53 1    
   105   52   54 1    
   106   52  175 1    
   107   53  176 1    
   108   53  177 1    
   109   53  178 1    
   110   54   55 am   BACKBONE|DICT|INTERRES
   111   54  179 1    
   112   55   56 2    
   113   55   57 1    
   114   57   58 1    
   115   57   59 1    
   116   57  180 1    
   117   58  181 1    
   118   58  182 1    
   119   58  183 1    
   120   59   60 am   BACKBONE|DICT|INTERRES
   121   59  184 1    
   122   60   61 2    
   123   60   62 1    
   124   62   63 1    
   125   62   64 1    
   126   62  185 1    
   127   63  186 1    
   128   63  187 1    
   129   63  188 1    
   130   64   65 am   BACKBONE|DICT|INTERRES
   131   64  189 1    
   132   65   66 2    
   133   67   68 2    
   134   67   69 am   BACKBONE|DICT|INTERRES
   135   69   70 1    
   136   69  190 1    
   137   70   71 1    
   138   70   72 1    
   139   70  191 1    
   140   71  192 1    
   141   71  193 1    
   142   71  194 1    
   143   72   73 2    
   144   72   74 am   BACKBONE|DICT|INTERRES
   145   74   75 1    
   146   74  195 1    
   147   75   76 1    
   148   75   77 1    
   149   75  196 1    
   150   76  197 1    
   151   76  198 1    
   152   76  199 1    
   153   77   78 2    
   154   77   79 am   BACKBONE|DICT|INTERRES
   155   79   80 1    
   156   79  200 1    
   157   80   81 1    
   158   80   82 1    
   159   80  201 1    
   160   81  202 1    
   161   81  203 1    
   162   81  204 1    
   163   82   83 2    
   164   82   84 am   BACKBONE|DICT|INTERRES
   165   84   85 1    
   166   84  205 1    
   167   85   86 1    
   168   85   87 1    
   169   85  206 1    
   170   86  207 1    
   171   86  208 1    
   172   86  209 1    
   173   87   88 2    
   174   87   89 am   BACKBONE|DICT|INTERRES
   175   89   90 1    
   176   89  210 1    
   177   90   91 1    
   178   90   92 1    
   179   90  211 1    
   180   91  212 1    
   181   91  213 1    
   182   91  214 1    
   183   92   93 2    
   184   92   94 am   BACKBONE|DICT|INTERRES
   185   94   95 1    
   186   94  215 1    
   187   95   96 1    
   188   95   97 1    
   189   95  216 1    
   190   96  217 1    
   191   96  218 1    
   192   96  219 1    
   193   97   98 2    
   194   97   99 am   BACKBONE|DICT|INTERRES
   195   99  100 1    
   196   99  220 1    
   197  100  101 1    
   198  100  102 1    
   199  100  221 1    
   200  101  222 1    
   201  101  223 1    
   202  101  224 1    
   203  102  103 2    
   204  102  104 am   BACKBONE|DICT|INTERRES
   205  104  105 1    
   206  104  225 1    
   207  105  106 1    
   208  105  107 1    
   209  105  226 1    
   210  106  227 1    
   211  106  228 1    
   212  106  229 1    
   213  107  108 2    
   214  107  109 am   BACKBONE|DICT|INTERRES
   215  109  110 1    
   216  109  230 1    
   217  110  111 1    
   218  110  112 1    
   219  110  231 1    
   220  111  232 1    
   221  111  233 1    
   222  111  234 1    
   223  112  113 2    
   224  112  114 am   BACKBONE|DICT|INTERRES
   225  114  115 1    
   226  114  235 1    
   227  115  116 1    
   228  115  117 1    
   229  115  236 1    
   230  116  237 1    
   231  116  238 1    
   232  116  239 1    
   233  117  118 2    
   234  117  119 am   BACKBONE|DICT|INTERRES
   235  119  120 1    
   236  119  240 1    
   237  120  121 1    
   238  120  124 1    
   239  120  241 1    
   240  121  122 am   BACKBONE|DICT|INTERRES
   241  121  123 2    
   242  122  242 1    
   243  122  243 1    
   244  124  125 1    
   245  124  244 1    
   246  124  245 1    
   247  125  126 1    
   248  126  246 1    
   249  126  247 1    
@<TRIPOS>SUBSTRUCTURE
     1 UNK         1 GROUP             0       ****    0 ROOT    
