@<TRIPOS>MOLECULE
3R540
247   249    1
SMALL
USER_CHARGES


@<TRIPOS>ATOM
      1 CA          0.9867  -10.6893  -48.1801 C.3       0 UNK        -0.1800 
      2 C           0.9036  -12.1335  -47.7112 C.2       0 UNK         0.5000 
      3 O           1.8886  -12.8647  -47.8008 O.2       0 UNK        -0.5000 
      4 N          -0.2583  -12.5476  -47.1915 N.am      1 UNK        -0.5000 
      5 CA         -0.5567  -13.9187  -46.7526 C.3       1 UNK         0.1400 
      6 C6         -2.0279  -14.0782  -46.2873 C.3       23 UNK        -0.0398 
      7 S7         -3.2600  -13.3506  -47.4218 S.3       23 UNK        -0.2404 
      8 C8         -3.7745  -14.7998  -48.3938 C.3       23 UNK        -0.0205 
      9 C9         -2.6223  -15.3794  -49.1985 C.ar      23 UNK        -0.0193 
     10 C10        -2.0002  -14.6122  -50.1876 C.ar      23 UNK        -0.1150 
     11 C11        -0.9358  -15.1346  -50.9259 C.ar      23 UNK        -0.0193 
     12 C12        -0.5015  -16.4379  -50.6757 C.ar      23 UNK        -0.1150 
     13 C13        -1.1211  -17.2169  -49.6959 C.ar      23 UNK        -0.0193 
     14 C14        -2.1796  -16.6828  -48.9571 C.ar      23 UNK        -0.1150 
     15 C15        -0.6567  -18.6419  -49.4591 C.3       23 UNK        -0.0205 
     16 S16         0.6877  -18.7242  -48.2352 S.3       23 UNK        -0.2404 
     17 C17        -0.2071  -18.7703  -46.6444 C.3       23 UNK        -0.0398 
     18 CA         -0.4431  -20.2320  -46.1851 C.3       11 UNK         0.1400 
     19 N          -0.4285  -20.4054  -44.7312 N.am      11 UNK        -0.5000 
     20 C          -0.4488  -21.6013  -44.1205 C.2       10 UNK         0.5000 
     21 O          -0.4196  -22.6779  -44.7164 O.2       10 UNK        -0.5000 
     22 CA         -0.5956  -21.5984  -42.5906 C.3       10 UNK         0.1400 
     23 CB          0.7563  -21.3552  -41.9014 C.3       10 UNK        -0.1800 
     24 N          -1.5789  -20.6112  -42.1449 N.am      10 UNK        -0.5000 
     25 C          -2.8936  -20.6900  -42.4018 C.2       9 UNK         0.5000 
     26 O          -3.4207  -21.6297  -42.9964 O.2       9 UNK        -0.5000 
     27 CA         -3.7574  -19.4966  -41.9580 C.3       9 UNK         0.1400 
     28 CB         -4.1899  -19.6571  -40.4932 C.3       9 UNK        -0.1800 
     29 N          -3.0709  -18.2153  -42.1233 N.am      9 UNK        -0.5000 
     30 C          -2.7335  -17.6789  -43.3047 C.2       8 UNK         0.5000 
     31 O          -2.9841  -18.1937  -44.3947 O.2       8 UNK        -0.5000 
     32 CA         -1.9217  -16.3738  -43.2465 C.3       8 UNK         0.1400 
     33 CB         -2.8421  -15.1692  -43.0020 C.3       8 UNK        -0.1800 
     34 N          -0.8755  -16.3991  -42.2221 N.am      8 UNK        -0.5000 
     35 C           0.1568  -17.2506  -42.2251 C.2       7 UNK         0.5000 
     36 O           0.3318  -18.1146  -43.0892 O.2       7 UNK        -0.5000 
     37 CA          1.1268  -17.1515  -41.0432 C.3       7 UNK         0.1400 
     38 CB          0.5607  -17.8722  -39.8065 C.3       7 UNK        -0.1800 
     39 N           2.3869  -17.7603  -41.4431 N.am      7 UNK        -0.5000 
     40 C           3.5868  -17.5110  -40.9103 C.2       6 UNK         0.5000 
     41 O           3.7633  -16.7703  -39.9421 O.2       6 UNK        -0.5000 
     42 CA          4.8013  -18.2015  -41.5675 C.3       6 UNK         0.1400 
     43 CB          5.2108  -19.4411  -40.7568 C.3       6 UNK        -0.1800 
     44 N           4.5964  -18.6000  -42.9658 N.am      6 UNK        -0.5000 
     45 C           4.3690  -17.7550  -43.9803 C.2       5 UNK         0.5000 
     46 O           4.2828  -16.5338  -43.8408 O.2       5 UNK        -0.5000 
     47 CA          4.2050  -18.3782  -45.3757 C.3       5 UNK         0.1400 
     48 CB          3.1223  -19.4723  -45.3938 C.3       5 UNK        -0.1800 
     49 N           3.8716  -17.3130  -46.3173 N.am      5 UNK        -0.5000 
     50 C           4.2692  -17.2400  -47.5915 C.2       4 UNK         0.5000 
     51 O           4.8399  -18.1580  -48.1826 O.2       4 UNK        -0.5000 
     52 CA          4.0368  -15.8999  -48.3221 C.3       4 UNK         0.1400 
     53 CB          2.7302  -15.9267  -49.1293 C.3       4 UNK        -0.1800 
     54 N           4.0120  -14.7355  -47.4344 N.am      4 UNK        -0.5000 
     55 C           5.0467  -14.2712  -46.7172 C.2       3 UNK         0.5000 
     56 O           6.1742  -14.7654  -46.7464 O.2       3 UNK        -0.5000 
     57 CA          4.7731  -13.0645  -45.8011 C.3       3 UNK         0.1400 
     58 CB          4.9329  -11.7445  -46.5723 C.3       3 UNK        -0.1800 
     59 N           3.4233  -13.1444  -45.2406 N.am      3 UNK        -0.5000 
     60 C           3.1414  -13.4499  -43.9666 C.2       2 UNK         0.5000 
     61 O           3.9923  -13.4984  -43.0774 O.2       2 UNK        -0.5000 
     62 CA          1.6682  -13.7437  -43.6079 C.3       2 UNK         0.1400 
     63 CB          1.2027  -12.9134  -42.4002 C.3       2 UNK        -0.1800 
     64 N           0.7427  -13.5088  -44.7177 N.am      2 UNK        -0.5000 
     65 C           0.4032  -14.4121  -45.6473 C.2       1 UNK         0.5000 
     66 O           0.8353  -15.5628  -45.6738 O.2       1 UNK        -0.5000 
     67 C          -1.7305  -20.8005  -46.8059 C.2       11 UNK         0.5000 
     68 O          -1.6462  -21.5741  -47.7568 O.2       11 UNK        -0.5000 
     69 N          -2.8916  -20.4356  -46.2434 N.am      12 UNK        -0.5000 
     70 CA         -4.2066  -20.8981  -46.6903 C.3       12 UNK         0.1400 
     71 CB         -5.3024  -20.1955  -45.8761 C.3       12 UNK        -0.1800 
     72 C          -4.3671  -22.4286  -46.6250 C.2       12 UNK         0.5000 
     73 O          -4.9274  -23.0146  -47.5504 O.2       12 UNK        -0.5000 
     74 N          -3.8401  -23.0475  -45.5591 N.am      13 UNK        -0.5000 
     75 CA         -3.7921  -24.4984  -45.3856 C.3       13 UNK         0.1400 
     76 CB         -3.3822  -24.8292  -43.9425 C.3       13 UNK        -0.1800 
     77 C          -2.8525  -25.1895  -46.3913 C.2       13 UNK         0.5000 
     78 O          -3.2188  -26.2270  -46.9428 O.2       13 UNK        -0.5000 
     79 N          -1.6672  -24.6069  -46.6198 N.am      14 UNK        -0.5000 
     80 CA         -0.6607  -25.1211  -47.5505 C.3       14 UNK         0.1400 
     81 CB          0.6756  -24.4032  -47.3055 C.3       14 UNK        -0.1800 
     82 C          -1.0806  -24.9908  -49.0261 C.2       14 UNK         0.5000 
     83 O          -0.8523  -25.9137  -49.8085 O.2       14 UNK        -0.5000 
     84 N          -1.6831  -23.8486  -49.3782 N.am      15 UNK        -0.5000 
     85 CA         -2.1100  -23.5105  -50.7348 C.3       15 UNK         0.1400 
     86 CB         -2.2035  -21.9814  -50.8626 C.3       15 UNK        -0.1800 
     87 C          -3.4423  -24.1577  -51.1495 C.2       15 UNK         0.5000 
     88 O          -3.7913  -24.0636  -52.3276 O.2       15 UNK        -0.5000 
     89 N          -4.1735  -24.7660  -50.2033 N.am      16 UNK        -0.5000 
     90 CA         -5.4803  -25.4021  -50.3956 C.3       16 UNK         0.1400 
     91 CB         -5.9135  -26.0856  -49.0896 C.3       16 UNK        -0.1800 
     92 C          -5.4818  -26.4114  -51.5590 C.2       16 UNK         0.5000 
     93 O          -4.6918  -27.3572  -51.5449 O.2       16 UNK        -0.5000 
     94 N          -6.3249  -26.1468  -52.5669 N.am      17 UNK        -0.5000 
     95 CA         -6.4854  -26.8505  -53.8495 C.3       17 UNK         0.1400 
     96 CB         -6.8949  -28.3205  -53.6363 C.3       17 UNK        -0.1800 
     97 C          -5.2830  -26.7432  -54.8145 C.2       17 UNK         0.5000 
     98 O          -5.4907  -26.7530  -56.0284 O.2       17 UNK        -0.5000 
     99 N          -4.0610  -26.6334  -54.2795 N.am      18 UNK        -0.5000 
    100 CA        -2.8091  -26.4935  -55.0230 C.3       18 UNK         0.1400 
    101 CB        -1.6311  -26.6834  -54.0547 C.3       18 UNK        -0.1800 
    102 C         -2.6887  -25.1466  -55.7596 C.2       18 UNK         0.5000 
    103 O         -2.1656  -25.1105  -56.8744 O.2       18 UNK        -0.5000 
    104 N         -3.1763  -24.0733  -55.1271 N.am      19 UNK        -0.5000 
    105 CA        -3.1753  -22.7121  -55.6644 C.3       19 UNK         0.1400 
    106 CB        -1.8742  -21.9969  -55.2615 C.3       19 UNK        -0.1800 
    107 C         -4.4061  -21.9069  -55.2159 C.2       19 UNK         0.5000 
    108 O         -4.8494  -21.0342  -55.9618 O.2       19 UNK        -0.5000 
    109 N         -4.9354  -22.2130  -54.0206 N.am      20 UNK        -0.5000 
    110 CA        -6.0863  -21.5816  -53.3647 C.3       20 UNK         0.1400 
    111 CB        -7.3821  -21.8187  -54.1688 C.3       20 UNK        -0.1800 
    112 C         -5.8522  -20.0989  -52.9969 C.2       20 UNK         0.5000 
    113 O         -6.8029  -19.3146  -52.9878 O.2       20 UNK        -0.5000 
    114 N         -4.5924  -19.7654  -52.6684 N.am      21 UNK        -0.5000 
    115 CA        -4.0719  -18.4471  -52.2771 C.3       21 UNK         0.1400 
    116 CB        -4.7785  -17.9424  -50.9992 C.3       21 UNK        -0.1800 
    117 C         -4.1015  -17.4012  -53.4153 C.2       21 UNK         0.5000 
    118 O         -4.5437  -17.6935  -54.5284 O.2       21 UNK        -0.5000 
    119 N         -3.5968  -16.1946  -53.1246 N.am      22 UNK        -0.5000 
    120 CA        -3.5734  -15.0565  -54.0637 C.3       22 UNK         0.1400 
    121 C         -4.9501  -14.3530  -54.2641 C.2       22 UNK         0.5000 
    122 N         -5.9834  -14.6657  -53.4913 N.am      22 UNK        -0.7600 
    123 O         -5.0853  -13.5081  -55.1451 O.2       22 UNK        -0.5000 
    124 C124       -2.4804  -14.0160  -53.7050 C.3       23 UNK        -0.0398 
    125 S125       -0.7971  -14.7241  -53.6654 S.3       23 UNK        -0.2404 
    126 C126       -0.2432  -14.2932  -51.9852 C.3       23 UNK        -0.0205 
    127 H127        1.7704  -10.1637  -47.6346 H         1 UNK         0.0600 
    128 H128        0.0472  -10.1582  -48.0258 H         1 UNK         0.0600 
    129 H129        1.2275  -10.6555  -49.2425 H         1 UNK         0.0600 
    130 H130       -1.0401  -11.9083  -47.1581 H         1 UNK         0.3000 
    131 H131       -0.3999  -14.5664  -47.6174 H         1 UNK         0.0600 
    132 H132       -2.2665  -15.1319  -46.1351 H         1 UNK         0.0800 
    133 H133       -2.1724  -13.5867  -45.3246 H         1 UNK         0.0800 
    134 H134       -4.5705  -14.5028  -49.0779 H         1 UNK         0.0800 
    135 H135       -4.2056  -15.5477  -47.7262 H         1 UNK         0.0800 
    136 H136       -2.3380  -13.6013  -50.3677 H         1 UNK         0.1150 
    137 H137        0.3206  -16.8463  -51.2467 H         1 UNK         0.1150 
    138 H138       -2.6665  -17.2848  -48.2031 H         1 UNK         0.1150 
    139 H139       -1.4973  -19.2664  -49.1599 H         1 UNK         0.0800 
    140 H140       -0.2930  -19.0655  -50.3963 H         1 UNK         0.0800 
    141 H141       -1.1301  -18.1923  -46.6971 H         1 UNK         0.0800 
    142 H142        0.4120  -18.2392  -45.9224 H         1 UNK         0.0800 
    143 H143        0.3850  -20.8423  -46.5536 H         1 UNK         0.0600 
    144 H144       -0.4093  -19.5629  -44.1643 H         1 UNK         0.3000 
    145 H145       -0.9526  -22.5857  -42.2894 H         1 UNK         0.0600 
    146 H146        0.6575  -21.3830  -40.8163 H         1 UNK         0.0600 
    147 H147        1.4755  -22.1261  -42.1807 H         1 UNK         0.0600 
    148 H148        1.1904  -20.3950  -42.1755 H         1 UNK         0.0600 
    149 H149       -1.2233  -19.7856  -41.6892 H         1 UNK         0.3000 
    150 H150       -4.6545  -19.4837  -42.5803 H         1 UNK         0.0600 
    151 H151       -4.7210  -20.5983  -40.3447 H         1 UNK         0.0600 
    152 H152       -4.8630  -18.8547  -40.1907 H         1 UNK         0.0600 
    153 H153       -3.3348  -19.6522  -39.8160 H         1 UNK         0.0600 
    154 H154       -2.8204  -17.7208  -41.2800 H         1 UNK         0.3000 
    155 H155       -1.4341  -16.2528  -44.2141 H         1 UNK         0.0600 
    156 H156       -3.3531  -15.2398  -42.0411 H         1 UNK         0.0600 
    157 H157       -2.2805  -14.2350  -43.0105 H         1 UNK         0.0600 
    158 H158       -3.6088  -15.0990  -43.7749 H         1 UNK         0.0600 
    159 H159       -0.9636  -15.7312  -41.4699 H         1 UNK         0.3000 
    160 H160        1.2908  -16.0956  -40.8174 H         1 UNK         0.0600 
    161 H161        0.3986  -18.9333  -39.9977 H         1 UNK         0.0600 
    162 H162       -0.3937  -17.4422  -39.5008 H         1 UNK         0.0600 
    163 H163        1.2376  -17.7883  -38.9562 H         1 UNK         0.0600 
    164 H164        2.3211  -18.3380  -42.2711 H         1 UNK         0.3000 
    165 H165        5.6283  -17.4889  -41.5443 H         1 UNK         0.0600 
    166 H166        6.1230  -19.8888  -41.1516 H         1 UNK         0.0600 
    167 H167        5.4036  -19.1814  -39.7149 H         1 UNK         0.0600 
    168 H168        4.4297  -20.2026  -40.7656 H         1 UNK         0.0600 
    169 H169        4.6560  -19.5892  -43.1589 H         1 UNK         0.3000 
    170 H170        5.1657  -18.8166  -45.6533 H         1 UNK         0.0600 
    171 H171        3.4498  -20.3616  -44.8552 H         1 UNK         0.0600 
    172 H172        2.2039  -19.1290  -44.9206 H         1 UNK         0.0600 
    173 H173        2.8871  -19.7849  -46.4109 H         1 UNK         0.0600 
    174 H174        3.4522  -16.4953  -45.8918 H         1 UNK         0.3000 
    175 H175        4.8641  -15.7659  -49.0218 H         1 UNK         0.0600 
    176 H176        2.6922  -16.7930  -49.7908 H         1 UNK         0.0600 
    177 H177        1.8580  -15.9710  -48.4756 H         1 UNK         0.0600 
    178 H178        2.6311  -15.0371  -49.7515 H         1 UNK         0.0600 
    179 H179        3.1456  -14.2057  -47.4320 H         1 UNK         0.3000 
    180 H180        5.5212  -13.0808  -45.0059 H         1 UNK         0.0600 
    181 H181        4.2431  -11.6762  -47.4136 H         1 UNK         0.0600 
    182 H182        5.9437  -11.6480  -46.9705 H         1 UNK         0.0600 
    183 H183        4.7554  -10.8867  -45.9236 H         1 UNK         0.0600 
    184 H184        2.6638  -13.1017  -45.9088 H         1 UNK         0.3000 
    185 H185        1.6248  -14.7971  -43.3242 H         1 UNK         0.0600 
    186 H186        1.8215  -13.1112  -41.5240 H         1 UNK         0.0600 
    187 H187        1.2542  -11.8434  -42.6050 H         1 UNK         0.0600 
    188 H188        0.1750  -13.1552  -42.1289 H         1 UNK         0.0600 
    189 H189        0.3684  -12.5739  -44.7982 H         1 UNK         0.3000 
    190 H190       -2.8811  -19.7679  -45.4765 H         1 UNK         0.3000 
    191 H191       -4.3179  -20.6013  -47.7354 H         1 UNK         0.0600 
    192 H192       -5.2313  -20.4367  -44.8154 H         1 UNK         0.0600 
    193 H193       -6.2944  -20.4954  -46.2160 H         1 UNK         0.0600 
    194 H194       -5.2365  -19.1121  -45.9783 H         1 UNK         0.0600 
    195 H195       -3.4461  -22.4859  -44.8108 H         1 UNK         0.3000 
    196 H196       -4.7984  -24.8899  -45.5490 H         1 UNK         0.0600 
    197 H197       -3.3475  -25.9075  -43.7827 H         1 UNK         0.0600 
    198 H198       -4.0941  -24.4168  -43.2272 H         1 UNK         0.0600 
    199 H199       -2.3972  -24.4281  -43.7013 H         1 UNK         0.0600 
    200 H200       -1.4190  -23.7707  -46.1003 H         1 UNK         0.3000 
    201 H201       -0.5160  -26.1828  -47.3396 H         1 UNK         0.0600 
    202 H202        1.0279  -24.5645  -46.2866 H         1 UNK         0.0600 
    203 H203        0.5892  -23.3273  -47.4622 H         1 UNK         0.0600 
    204 H204        1.4489  -24.7734  -47.9797 H         1 UNK         0.0600 
    205 H205       -1.7843  -23.1129  -48.6798 H         1 UNK         0.3000 
    206 H206       -1.3501  -23.8605  -51.4364 H         1 UNK         0.0600 
    207 H207       -1.2547  -21.5085  -50.6091 H         1 UNK         0.0600 
    208 H208       -2.4482  -21.6857  -51.8820 H         1 UNK         0.0600 
    209 H209       -2.9703  -21.5686  -50.2053 H         1 UNK         0.0600 
    210 H210       -3.8066  -24.7783  -49.2622 H         1 UNK         0.3000 
    211 H211       -6.1948  -24.6063  -50.6145 H         1 UNK         0.0600 
    212 H212       -5.2107  -26.8656  -48.7937 H         1 UNK         0.0600 
    213 H213       -6.8939  -26.5509  -49.1982 H         1 UNK         0.0600 
    214 H214       -5.9834  -25.3711  -48.2699 H         1 UNK         0.0600 
    215 H215       -6.8983  -25.3197  -52.4796 H         1 UNK         0.3000 
    216 H216       -7.3180  -26.3523  -54.3488 H         1 UNK         0.0600 
    217 H217       -7.1367  -28.7972  -54.5870 H         1 UNK         0.0600 
    218 H218       -7.7776  -28.3964  -53.0015 H         1 UNK         0.0600 
    219 H219       -6.0979  -28.9048  -53.1759 H         1 UNK         0.0600 
    220 H220       -3.9925  -26.6800  -53.2686 H         1 UNK         0.3000 
    221 H221       -2.7698  -27.2878  -55.7712 H         1 UNK         0.0600 
    222 H222       -1.6358  -25.9338  -53.2621 H         1 UNK         0.0600 
    223 H223       -1.6624  -27.6663  -53.5841 H         1 UNK         0.0600 
    224 H224       -0.6774  -26.6033  -54.5779 H         1 UNK         0.0600 
    225 H225       -3.5638  -24.2035  -54.1977 H         1 UNK         0.3000 
    226 H226       -3.2201  -22.7574  -56.7548 H         1 UNK         0.0600 
    227 H227       -1.0038  -22.4938  -55.6903 H         1 UNK         0.0600 
    228 H228       -1.8663  -20.9654  -55.6163 H         1 UNK         0.0600 
    229 H229       -1.7459  -21.9758  -54.1794 H         1 UNK         0.0600 
    230 H230       -4.4814  -22.9302  -53.4586 H         1 UNK         0.3000 
    231 H231       -6.2013  -22.1023  -52.4128 H         1 UNK         0.0600 
    232 H232       -8.2576  -21.4996  -53.6022 H         1 UNK         0.0600 
    233 H233       -7.5146  -22.8755  -54.4005 H         1 UNK         0.0600 
    234 H234       -7.3834  -21.2656  -55.1083 H         1 UNK         0.0600 
    235 H235       -3.8970  -20.4894  -52.7616 H         1 UNK         0.3000 
    236 H236       -3.0191  -18.6002  -52.0341 H         1 UNK         0.0600 
    237 H237       -5.8420  -17.7658  -51.1572 H         1 UNK         0.0600 
    238 H238       -4.6751  -18.6596  -50.1848 H         1 UNK         0.0600 
    239 H239       -4.3562  -17.0018  -50.6529 H         1 UNK         0.0600 
    240 H240       -3.2083  -16.0216  -52.2088 H         1 UNK         0.3000 
    241 H241       -3.3120  -15.4555  -55.0458 H         1 UNK         0.0600 
    242 H242       -6.8683  -14.2055  -53.6370 H         1 UNK         0.3800 
    243 H243       -5.8953  -15.3675  -52.7750 H         1 UNK         0.3800 
    244 H244       -2.4662  -13.2123  -54.4434 H         1 UNK         0.0800 
    245 H245       -2.7115  -13.5380  -52.7530 H         1 UNK         0.0800 
    246 H246        0.8345  -14.4499  -51.9192 H         1 UNK         0.0800 
    247 H247       -0.4048  -13.2293  -51.8040 H         1 UNK         0.0800 
@<TRIPOS>BOND
     1    1    2 1    
     2    1  127 1    
     3    1  128 1    
     4    1  129 1    
     5    2    3 2    
     6    2    4 am   BACKBONE|DICT|INTERRES
     7    4    5 1    
     8    4  130 1    
     9    5    6 1    
    10    5   65 1    
    11    5  131 1    
    12    6    7 1    
    13    6  132 1    
    14    6  133 1    
    15    7    8 1    
    16    8    9 1    
    17    8  134 1    
    18    8  135 1    
    19    9   10 ar   
    20    9   14 ar   
    21   10   11 ar   
    22   10  136 1    
    23   11   12 ar   
    24   11  126 1    
    25   12   13 ar   
    26   12  137 1    
    27   13   14 ar   
    28   13   15 1    
    29   14  138 1    
    30   15   16 1    
    31   15  139 1    
    32   15  140 1    
    33   16   17 1    
    34   17   18 1    
    35   17  141 1    
    36   17  142 1    
    37   18   19 1    
    38   18   67 1    
    39   18  143 1    
    40   19   20 am   BACKBONE|DICT|INTERRES
    41   19  144 1    
    42   20   21 2    
    43   20   22 1    
    44   22   23 1    
    45   22   24 1    
    46   22  145 1    
    47   23  146 1    
    48   23  147 1    
    49   23  148 1    
    50   24   25 am   BACKBONE|DICT|INTERRES
    51   24  149 1    
    52   25   26 2    
    53   25   27 1    
    54   27   28 1    
    55   27   29 1    
    56   27  150 1    
    57   28  151 1    
    58   28  152 1    
    59   28  153 1    
    60   29   30 am   BACKBONE|DICT|INTERRES
    61   29  154 1    
    62   30   31 2    
    63   30   32 1    
    64   32   33 1    
    65   32   34 1    
    66   32  155 1    
    67   33  156 1    
    68   33  157 1    
    69   33  158 1    
    70   34   35 am   BACKBONE|DICT|INTERRES
    71   34  159 1    
    72   35   36 2    
    73   35   37 1    
    74   37   38 1    
    75   37   39 1    
    76   37  160 1    
    77   38  161 1    
    78   38  162 1    
    79   38  163 1    
    80   39   40 am   BACKBONE|DICT|INTERRES
    81   39  164 1    
    82   40   41 2    
    83   40   42 1    
    84   42   43 1    
    85   42   44 1    
    86   42  165 1    
    87   43  166 1    
    88   43  167 1    
    89   43  168 1    
    90   44   45 am   BACKBONE|DICT|INTERRES
    91   44  169 1    
    92   45   46 2    
    93   45   47 1    
    94   47   48 1    
    95   47   49 1    
    96   47  170 1    
    97   48  171 1    
    98   48  172 1    
    99   48  173 1    
   100   49   50 am   BACKBONE|DICT|INTERRES
   101   49  174 1    
   102   50   51 2    
   103   50   52 1    
   104   52   53 1    
   105   52   54 1    
   106   52  175 1    
   107   53  176 1    
   108   53  177 1    
   109   53  178 1    
   110   54   55 am   BACKBONE|DICT|INTERRES
   111   54  179 1    
   112   55   56 2    
   113   55   57 1    
   114   57   58 1    
   115   57   59 1    
   116   57  180 1    
   117   58  181 1    
   118   58  182 1    
   119   58  183 1    
   120   59   60 am   BACKBONE|DICT|INTERRES
   121   59  184 1    
   122   60   61 2    
   123   60   62 1    
   124   62   63 1    
   125   62   64 1    
   126   62  185 1    
   127   63  186 1    
   128   63  187 1    
   129   63  188 1    
   130   64   65 am   BACKBONE|DICT|INTERRES
   131   64  189 1    
   132   65   66 2    
   133   67   68 2    
   134   67   69 am   BACKBONE|DICT|INTERRES
   135   69   70 1    
   136   69  190 1    
   137   70   71 1    
   138   70   72 1    
   139   70  191 1    
   140   71  192 1    
   141   71  193 1    
   142   71  194 1    
   143   72   73 2    
   144   72   74 am   BACKBONE|DICT|INTERRES
   145   74   75 1    
   146   74  195 1    
   147   75   76 1    
   148   75   77 1    
   149   75  196 1    
   150   76  197 1    
   151   76  198 1    
   152   76  199 1    
   153   77   78 2    
   154   77   79 am   BACKBONE|DICT|INTERRES
   155   79   80 1    
   156   79  200 1    
   157   80   81 1    
   158   80   82 1    
   159   80  201 1    
   160   81  202 1    
   161   81  203 1    
   162   81  204 1    
   163   82   83 2    
   164   82   84 am   BACKBONE|DICT|INTERRES
   165   84   85 1    
   166   84  205 1    
   167   85   86 1    
   168   85   87 1    
   169   85  206 1    
   170   86  207 1    
   171   86  208 1    
   172   86  209 1    
   173   87   88 2    
   174   87   89 am   BACKBONE|DICT|INTERRES
   175   89   90 1    
   176   89  210 1    
   177   90   91 1    
   178   90   92 1    
   179   90  211 1    
   180   91  212 1    
   181   91  213 1    
   182   91  214 1    
   183   92   93 2    
   184   92   94 am   BACKBONE|DICT|INTERRES
   185   94   95 1    
   186   94  215 1    
   187   95   96 1    
   188   95   97 1    
   189   95  216 1    
   190   96  217 1    
   191   96  218 1    
   192   96  219 1    
   193   97   98 2    
   194   97   99 am   BACKBONE|DICT|INTERRES
   195   99  100 1    
   196   99  220 1    
   197  100  101 1    
   198  100  102 1    
   199  100  221 1    
   200  101  222 1    
   201  101  223 1    
   202  101  224 1    
   203  102  103 2    
   204  102  104 am   BACKBONE|DICT|INTERRES
   205  104  105 1    
   206  104  225 1    
   207  105  106 1    
   208  105  107 1    
   209  105  226 1    
   210  106  227 1    
   211  106  228 1    
   212  106  229 1    
   213  107  108 2    
   214  107  109 am   BACKBONE|DICT|INTERRES
   215  109  110 1    
   216  109  230 1    
   217  110  111 1    
   218  110  112 1    
   219  110  231 1    
   220  111  232 1    
   221  111  233 1    
   222  111  234 1    
   223  112  113 2    
   224  112  114 am   BACKBONE|DICT|INTERRES
   225  114  115 1    
   226  114  235 1    
   227  115  116 1    
   228  115  117 1    
   229  115  236 1    
   230  116  237 1    
   231  116  238 1    
   232  116  239 1    
   233  117  118 2    
   234  117  119 am   BACKBONE|DICT|INTERRES
   235  119  120 1    
   236  119  240 1    
   237  120  121 1    
   238  120  124 1    
   239  120  241 1    
   240  121  122 am   BACKBONE|DICT|INTERRES
   241  121  123 2    
   242  122  242 1    
   243  122  243 1    
   244  124  125 1    
   245  124  244 1    
   246  124  245 1    
   247  125  126 1    
   248  126  246 1    
   249  126  247 1    
@<TRIPOS>SUBSTRUCTURE
     1 UNK         1 GROUP             0       ****    0 ROOT    
