@<TRIPOS>MOLECULE
3R540
247   249    1
SMALL
USER_CHARGES


@<TRIPOS>ATOM
      1 CA          0.7782  -15.6958  -48.7640 C.3       0 UNK        -0.1800 
      2 C           2.2479  -15.3318  -48.8988 C.2       0 UNK         0.5000 
      3 O           3.0767  -15.8643  -48.1622 O.2       0 UNK        -0.5000 
      4 N           2.5634  -14.4024  -49.8134 N.am      1 UNK        -0.5000 
      5 CA          3.9004  -13.8283  -50.0460 C.3       1 UNK         0.1400 
      6 C6          4.9149  -14.8359  -50.6569 C.3       23 UNK        -0.0398 
      7 S7          4.4667  -15.3140  -52.3622 S.3       23 UNK        -0.2404 
      8 C8          4.6798  -17.1224  -52.3390 C.3       23 UNK        -0.0205 
      9 C9          3.4586  -17.8277  -51.7719 C.ar      23 UNK        -0.0193 
     10 C10         2.3276  -18.0187  -52.5699 C.ar      23 UNK        -0.1150 
     11 C11         1.1887  -18.6487  -52.0595 C.ar      23 UNK        -0.0193 
     12 C12         1.1976  -19.1002  -50.7340 C.ar      23 UNK        -0.1150 
     13 C13         2.3210  -18.9078  -49.9233 C.ar      23 UNK        -0.0193 
     14 C14         3.4530  -18.2839  -50.4528 C.ar      23 UNK        -0.1150 
     15 C15         2.2932  -19.2992  -48.4547 C.3       23 UNK        -0.0205 
     16 S16         2.6096  -21.0691  -48.1894 S.3       23 UNK        -0.2404 
     17 C17         0.9419  -21.7811  -48.3853 C.3       23 UNK        -0.0398 
     18 CA          0.6057  -22.7860  -47.2595 C.3       11 UNK         0.1400 
     19 N           0.4513  -22.1646  -45.9403 N.am      11 UNK        -0.5000 
     20 C           0.4478  -22.8581  -44.7919 C.2       10 UNK         0.5000 
     21 O           0.6717  -24.0672  -44.7240 O.2       10 UNK        -0.5000 
     22 CA          0.0885  -22.0897  -43.5072 C.3       10 UNK         0.1400 
     23 CB          1.3212  -21.3828  -42.9241 C.3       10 UNK        -0.1800 
     24 N          -0.9959  -21.1266  -43.7065 N.am      10 UNK        -0.5000 
     25 C          -2.2518  -21.4622  -44.0364 C.2       9 UNK         0.5000 
     26 O          -2.6332  -22.6255  -44.1687 O.2       9 UNK        -0.5000 
     27 CA         -3.2407  -20.3101  -44.3007 C.3       9 UNK         0.1400 
     28 CB         -3.8361  -19.7928  -42.9835 C.3       9 UNK        -0.1800 
     29 N          -2.6494  -19.1960  -45.0430 N.am      9 UNK        -0.5000 
     30 C          -2.1316  -19.2840  -46.2769 C.2       8 UNK         0.5000 
     31 O          -2.1051  -20.3186  -46.9408 O.2       8 UNK        -0.5000 
     32 CA         -1.4617  -18.0175  -46.8344 C.3       8 UNK         0.1400 
     33 CB         -2.5042  -17.0244  -47.3724 C.3       8 UNK        -0.1800 
     34 N          -0.6071  -17.3656  -45.8400 N.am      8 UNK        -0.5000 
     35 C           0.4724  -17.9327  -45.2789 C.2       7 UNK         0.5000 
     36 O           0.8791  -19.0601  -45.5577 O.2       7 UNK        -0.5000 
     37 CA          1.1708  -17.1294  -44.1696 C.3       7 UNK         0.1400 
     38 CB          2.0121  -15.9872  -44.7572 C.3       7 UNK        -0.1800 
     39 N           0.2091  -16.5906  -43.2089 N.am      7 UNK        -0.5000 
     40 C          -0.5186  -17.3452  -42.3714 C.2       6 UNK         0.5000 
     41 O          -0.4125  -18.5680  -42.2871 O.2       6 UNK        -0.5000 
     42 CA         -1.5712  -16.6203  -41.5118 C.3       6 UNK         0.1400 
     43 CB         -0.9568  -16.1680  -40.1789 C.3       6 UNK        -0.1800 
     44 N          -2.1673  -15.4643  -42.1820 N.am      6 UNK        -0.5000 
     45 C          -2.8626  -15.5049  -43.3283 C.2       5 UNK         0.5000 
     46 O          -3.1193  -16.5458  -43.9327 O.2       5 UNK        -0.5000 
     47 CA         -3.3110  -14.1531  -43.9168 C.3       5 UNK         0.1400 
     48 CB         -4.7810  -13.8775  -43.5681 C.3       5 UNK        -0.1800 
     49 N          -2.4870  -13.0286  -43.4598 N.am      5 UNK        -0.5000 
     50 C          -1.2121  -12.8289  -43.8184 C.2       4 UNK         0.5000 
     51 O          -0.5979  -13.5541  -44.6040 O.2       4 UNK        -0.5000 
     52 CA         -0.4857  -11.6655  -43.1357 C.3       4 UNK         0.1400 
     53 CB          0.4157  -12.1848  -42.0004 C.3       4 UNK        -0.1800 
     54 N           0.3113  -10.9508  -44.1257 N.am      4 UNK        -0.5000 
     55 C           0.7097   -9.6783  -44.0210 C.2       3 UNK         0.5000 
     56 O           0.4650   -8.9761  -43.0377 O.2       3 UNK        -0.5000 
     57 CA          1.5194   -9.0974  -45.2025 C.3       3 UNK         0.1400 
     58 CB          2.0977   -7.7027  -44.8981 C.3       3 UNK        -0.1800 
     59 N           2.6161   -9.9752  -45.6192 N.am      3 UNK        -0.5000 
     60 C           2.4907  -11.0311  -46.4288 C.2       2 UNK         0.5000 
     61 O           1.4102  -11.4121  -46.8898 O.2       2 UNK        -0.5000 
     62 CA          3.7757  -11.8022  -46.7576 C.3       2 UNK         0.1400 
     63 CB          4.1492  -12.7597  -45.6114 C.3       2 UNK        -0.1800 
     64 N           3.5353  -12.5533  -47.9812 N.am      2 UNK        -0.5000 
     65 C           4.4494  -13.0850  -48.8000 C.2       1 UNK         0.5000 
     66 O           5.6635  -12.9875  -48.6115 O.2       1 UNK        -0.5000 
     67 C          -0.6341  -23.6230  -47.6266 C.2       11 UNK         0.5000 
     68 O          -0.4736  -24.7566  -48.0756 O.2       11 UNK        -0.5000 
     69 N          -1.8420  -23.0789  -47.4113 N.am      12 UNK        -0.5000 
     70 CA         -3.1274  -23.7274  -47.6961 C.3       12 UNK         0.1400 
     71 CB         -4.2796  -22.7783  -47.3413 C.3       12 UNK        -0.1800 
     72 C          -3.3093  -25.0739  -46.9781 C.2       12 UNK         0.5000 
     73 O          -3.8151  -26.0172  -47.5835 O.2       12 UNK        -0.5000 
     74 N          -2.8427  -25.1544  -45.7258 N.am      13 UNK        -0.5000 
     75 CA         -2.8422  -26.3679  -44.9084 C.3       13 UNK         0.1400 
     76 CB         -2.3785  -26.0063  -43.4889 C.3       13 UNK        -0.1800 
     77 C          -1.9843  -27.5183  -45.4778 C.2       13 UNK         0.5000 
     78 O          -2.2506  -28.6760  -45.1515 O.2       13 UNK        -0.5000 
     79 N          -0.9801  -27.1913  -46.3025 N.am      14 UNK        -0.5000 
     80 CA         -0.0649  -28.1493  -46.9183 C.3       14 UNK         0.1400 
     81 CB          1.3751  -27.6346  -46.7568 C.3       14 UNK        -0.1800 
     82 C          -0.3914  -28.3798  -48.4034 C.2       14 UNK         0.5000 
     83 O          -0.4707  -29.5300  -48.8364 O.2       14 UNK        -0.5000 
     84 N          -0.5420  -27.2884  -49.1638 N.am      15 UNK        -0.5000 
     85 CA         -0.6286  -27.3002  -50.6242 C.3       15 UNK         0.1400 
     86 CB          0.0006  -26.0030  -51.1594 C.3       15 UNK        -0.1800 
     87 C          -2.0601  -27.4440  -51.1654 C.2       15 UNK         0.5000 
     88 O          -2.2137  -27.7729  -52.3426 O.2       15 UNK        -0.5000 
     89 N          -3.0741  -27.1544  -50.3356 N.am      16 UNK        -0.5000 
     90 CA         -4.5140  -27.1011  -50.6342 C.3       16 UNK         0.1400 
     91 CB         -5.0511  -28.4580  -51.1288 C.3       16 UNK        -0.1800 
     92 C          -4.9110  -25.9539  -51.5850 C.2       16 UNK         0.5000 
     93 O          -5.7843  -25.1576  -51.2426 O.2       16 UNK        -0.5000 
     94 N          -4.2461  -25.8603  -52.7439 N.am      17 UNK        -0.5000 
     95 CA         -4.4693  -24.8551  -53.7881 C.3       17 UNK         0.1400 
     96 CB         -3.5999  -25.2003  -55.0059 C.3       17 UNK        -0.1800 
     97 C          -4.2002  -23.4096  -53.3276 C.2       17 UNK         0.5000 
     98 O          -4.8374  -22.4814  -53.8251 O.2       17 UNK        -0.5000 
     99 N          -3.3004  -23.2471  -52.3477 N.am      18 UNK        -0.5000 
    100 CA        -2.9609  -21.9710  -51.7129 C.3       18 UNK         0.1400 
    101 CB        -1.6538  -22.1352  -50.9242 C.3       18 UNK        -0.1800 
    102 C         -4.0885  -21.3630  -50.8471 C.2       18 UNK         0.5000 
    103 O         -3.9499  -20.2323  -50.3815 O.2       18 UNK        -0.5000 
    104 N         -5.2075  -22.0843  -50.6756 N.am      19 UNK        -0.5000 
    105 CA        -6.4491  -21.5539  -50.1079 C.3       19 UNK         0.1400 
    106 CB        -7.4305  -22.7107  -49.8684 C.3       19 UNK        -0.1800 
    107 C         -7.1081  -20.4733  -50.9923 C.2       19 UNK         0.5000 
    108 O         -7.8984  -19.6797  -50.4806 O.2       19 UNK        -0.5000 
    109 N         -6.7680  -20.4371  -52.2903 N.am      20 UNK        -0.5000 
    110 CA        -7.2743  -19.4999  -53.2969 C.3       20 UNK         0.1400 
    111 CB        -7.0648  -20.1190  -54.6907 C.3       20 UNK        -0.1800 
    112 C         -6.6840  -18.0721  -53.1870 C.2       20 UNK         0.5000 
    113 O         -6.3187  -17.4819  -54.2050 O.2       20 UNK        -0.5000 
    114 N         -6.6391  -17.5358  -51.9593 N.am      21 UNK        -0.5000 
    115 CA        -6.3091  -16.1583  -51.5810 C.3       21 UNK         0.1400 
    116 CB        -7.4626  -15.2177  -51.9880 C.3       21 UNK        -0.1800 
    117 C         -4.9370  -15.6693  -52.0933 C.2       21 UNK         0.5000 
    118 O         -4.8729  -14.7487  -52.9114 O.2       21 UNK        -0.5000 
    119 N         -3.8586  -16.2809  -51.5852 N.am      22 UNK        -0.5000 
    120 CA        -2.4671  -15.8646  -51.8563 C.3       22 UNK         0.1400 
    121 C         -2.0782  -14.4617  -51.2964 C.2       22 UNK         0.5000 
    122 N         -2.8142  -13.8908  -50.3502 N.am      22 UNK        -0.7600 
    123 O         -1.0815  -13.8861  -51.7240 O.2       22 UNK        -0.5000 
    124 C124       -1.4363  -16.9106  -51.3664 C.3       23 UNK        -0.0398 
    125 S125       -1.6396  -18.5523  -52.1304 S.3       23 UNK        -0.2404 
    126 C126       -0.0346  -18.8183  -52.9603 C.3       23 UNK        -0.0205 
    127 H127        0.6265  -16.7494  -48.9903 H         1 UNK         0.0600 
    128 H128        0.1539  -15.1053  -49.4326 H         1 UNK         0.0600 
    129 H129        0.4448  -15.5109  -47.7435 H         1 UNK         0.0600 
    130 H130        1.8290  -14.0204  -50.3935 H         1 UNK         0.3000 
    131 H131        3.7520  -13.0378  -50.7833 H         1 UNK         0.0600 
    132 H132        5.9128  -14.3992  -50.7168 H         1 UNK         0.0800 
    133 H133        5.0106  -15.7183  -50.0241 H         1 UNK         0.0800 
    134 H134        5.5789  -17.3850  -51.7794 H         1 UNK         0.0800 
    135 H135        4.8491  -17.4668  -53.3603 H         1 UNK         0.0800 
    136 H136        2.3335  -17.6612  -53.5902 H         1 UNK         0.1150 
    137 H137        0.3192  -19.5752  -50.3240 H         1 UNK         0.1150 
    138 H138        4.3183  -18.1232  -49.8253 H         1 UNK         0.1150 
    139 H139        3.0377  -18.7266  -47.8992 H         1 UNK         0.0800 
    140 H140        1.3323  -19.0199  -48.0307 H         1 UNK         0.0800 
    141 H141        0.9193  -22.2693  -49.3614 H         1 UNK         0.0800 
    142 H142        0.1903  -20.9915  -48.4176 H         1 UNK         0.0800 
    143 H143        1.4404  -23.4881  -47.1940 H         1 UNK         0.0600 
    144 H144        0.3000  -21.1628  -45.9118 H         1 UNK         0.3000 
    145 H145       -0.2542  -22.8224  -42.7735 H         1 UNK         0.0600 
    146 H146        1.7041  -20.6145  -43.5953 H         1 UNK         0.0600 
    147 H147        1.0888  -20.9085  -41.9706 H         1 UNK         0.0600 
    148 H148        2.1291  -22.0932  -42.7450 H         1 UNK         0.0600 
    149 H149       -0.7666  -20.1484  -43.5676 H         1 UNK         0.3000 
    150 H150       -4.0587  -20.7040  -44.9055 H         1 UNK         0.0600 
    151 H151       -4.3457  -20.5934  -42.4459 H         1 UNK         0.0600 
    152 H152       -4.5663  -19.0032  -43.1620 H         1 UNK         0.0600 
    153 H153       -3.0658  -19.3946  -42.3238 H         1 UNK         0.0600 
    154 H154       -2.6579  -18.2880  -44.5860 H         1 UNK         0.3000 
    155 H155       -0.8322  -18.3216  -47.6716 H         1 UNK         0.0600 
    156 H156       -3.1161  -17.4895  -48.1466 H         1 UNK         0.0600 
    157 H157       -3.1780  -16.6768  -46.5896 H         1 UNK         0.0600 
    158 H158       -2.0294  -16.1499  -47.8167 H         1 UNK         0.0600 
    159 H159       -0.8992  -16.4562  -45.5136 H         1 UNK         0.3000 
    160 H160        1.8424  -17.8062  -43.6370 H         1 UNK         0.0600 
    161 H161        2.5369  -15.4407  -43.9736 H         1 UNK         0.0600 
    162 H162        2.7659  -16.3746  -45.4438 H         1 UNK         0.0600 
    163 H163        1.4018  -15.2741  -45.3122 H         1 UNK         0.0600 
    164 H164        0.0385  -15.5956  -43.2442 H         1 UNK         0.3000 
    165 H165       -2.3721  -17.3298  -41.2967 H         1 UNK         0.0600 
    166 H166       -1.7099  -15.7249  -39.5270 H         1 UNK         0.0600 
    167 H167       -0.5221  -17.0130  -39.6432 H         1 UNK         0.0600 
    168 H168       -0.1658  -15.4319  -40.3285 H         1 UNK         0.0600 
    169 H169       -2.0178  -14.5653  -41.7500 H         1 UNK         0.3000 
    170 H170       -3.2238  -14.2242  -45.0033 H         1 UNK         0.0600 
    171 H171       -5.4234  -14.6867  -43.9186 H         1 UNK         0.0600 
    172 H172       -4.9296  -13.7833  -42.4917 H         1 UNK         0.0600 
    173 H173       -5.1326  -12.9590  -44.0384 H         1 UNK         0.0600 
    174 H174       -2.9219  -12.3898  -42.8091 H         1 UNK         0.3000 
    175 H175       -1.2316  -10.9849  -42.7192 H         1 UNK         0.0600 
    176 H176        1.1927  -12.8509  -42.3785 H         1 UNK         0.0600 
    177 H177        0.9062  -11.3646  -41.4760 H         1 UNK         0.0600 
    178 H178       -0.1633  -12.7397  -41.2612 H         1 UNK         0.0600 
    179 H179        0.5165  -11.4654  -44.9772 H         1 UNK         0.3000 
    180 H180        0.8215   -8.9850  -46.0352 H         1 UNK         0.0600 
    181 H181        2.7951   -7.7302  -44.0598 H         1 UNK         0.0600 
    182 H182        1.3066   -6.9952  -44.6464 H         1 UNK         0.0600 
    183 H183        2.6265   -7.2981  -45.7614 H         1 UNK         0.0600 
    184 H184        3.5276   -9.7520  -45.2455 H         1 UNK         0.3000 
    185 H185        4.5833  -11.0871  -46.9266 H         1 UNK         0.0600 
    186 H186        5.0633  -13.3104  -45.8335 H         1 UNK         0.0600 
    187 H187        4.3169  -12.2155  -44.6814 H         1 UNK         0.0600 
    188 H188        3.3581  -13.4873  -45.4291 H         1 UNK         0.0600 
    189 H189        2.5531  -12.6451  -48.2110 H         1 UNK         0.3000 
    190 H190       -1.8930  -22.1186  -47.0751 H         1 UNK         0.3000 
    191 H191       -3.1709  -23.9237  -48.7683 H         1 UNK         0.0600 
    192 H192       -4.3270  -22.5870  -46.2705 H         1 UNK         0.0600 
    193 H193       -5.2379  -23.2054  -47.6358 H         1 UNK         0.0600 
    194 H194       -4.1777  -21.8197  -47.8486 H         1 UNK         0.0600 
    195 H195       -2.4918  -24.3089  -45.2860 H         1 UNK         0.3000 
    196 H196       -3.8713  -26.7280  -44.8507 H         1 UNK         0.0600 
    197 H197       -2.3876  -26.8810  -42.8374 H         1 UNK         0.0600 
    198 H198       -3.0323  -25.2591  -43.0387 H         1 UNK         0.0600 
    199 H199       -1.3639  -25.6059  -43.4894 H         1 UNK         0.0600 
    200 H200       -0.8509  -26.2179  -46.5496 H         1 UNK         0.3000 
    201 H201       -0.1267  -29.1153  -46.4129 H         1 UNK         0.0600 
    202 H202        1.6419  -27.5429  -45.7038 H         1 UNK         0.0600 
    203 H203        1.5122  -26.6563  -47.2195 H         1 UNK         0.0600 
    204 H204        2.0897  -28.3194  -47.2153 H         1 UNK         0.0600 
    205 H205       -0.4764  -26.3687  -48.7285 H         1 UNK         0.3000 
    206 H206       -0.0470  -28.1394  -51.0119 H         1 UNK         0.0600 
    207 H207        1.0340  -25.9002  -50.8276 H         1 UNK         0.0600 
    208 H208        0.0075  -25.9895  -52.2501 H         1 UNK         0.0600 
    209 H209       -0.5463  -25.1218  -50.8239 H         1 UNK         0.0600 
    210 H210       -2.8393  -26.8888  -49.3867 H         1 UNK         0.3000 
    211 H211       -5.0093  -26.8972  -49.6848 H         1 UNK         0.0600 
    212 H212       -4.6444  -28.7359  -52.1012 H         1 UNK         0.0600 
    213 H213       -6.1367  -28.4294  -51.2298 H         1 UNK         0.0600 
    214 H214       -4.8115  -29.2550  -50.4249 H         1 UNK         0.0600 
    215 H215       -3.5228  -26.5542  -52.9164 H         1 UNK         0.3000 
    216 H216       -5.5181  -24.9129  -54.0858 H         1 UNK         0.0600 
    217 H217       -3.7546  -24.4836  -55.8136 H         1 UNK         0.0600 
    218 H218       -3.8443  -26.1879  -55.3974 H         1 UNK         0.0600 
    219 H219       -2.5380  -25.1919  -54.7565 H         1 UNK         0.0600 
    220 H220       -2.8358  -24.0694  -51.9942 H         1 UNK         0.3000 
    221 H221       -2.7760  -21.2498  -52.5108 H         1 UNK         0.0600 
    222 H222       -1.6941  -22.9918  -50.2565 H         1 UNK         0.0600 
    223 H223       -0.8079  -22.2790  -51.5966 H         1 UNK         0.0600 
    224 H224       -1.4404  -21.2523  -50.3209 H         1 UNK         0.0600 
    225 H225       -5.2566  -23.0188  -51.0634 H         1 UNK         0.3000 
    226 H226       -6.2161  -21.0948  -49.1451 H         1 UNK         0.0600 
    227 H227       -6.9969  -23.4769  -49.2262 H         1 UNK         0.0600 
    228 H228       -8.3408  -22.3569  -49.3828 H         1 UNK         0.0600 
    229 H229       -7.7224  -23.1881  -50.8047 H         1 UNK         0.0600 
    230 H230       -6.0935  -21.1144  -52.6262 H         1 UNK         0.3000 
    231 H231       -8.3510  -19.3989  -53.1467 H         1 UNK         0.0600 
    232 H232       -7.5254  -19.5075  -55.4674 H         1 UNK         0.0600 
    233 H233       -7.5122  -21.1111  -54.7546 H         1 UNK         0.0600 
    234 H234       -6.0051  -20.2140  -54.9307 H         1 UNK         0.0600 
    235 H235       -6.9770  -18.1263  -51.2054 H         1 UNK         0.3000 
    236 H236       -6.2523  -16.1459  -50.4915 H         1 UNK         0.0600 
    237 H237       -7.2728  -14.1974  -51.6522 H         1 UNK         0.0600 
    238 H238       -8.4053  -15.5347  -51.5418 H         1 UNK         0.0600 
    239 H239       -7.5986  -15.1869  -53.0697 H         1 UNK         0.0600 
    240 H240       -3.9798  -17.0664  -50.9620 H         1 UNK         0.3000 
    241 H241       -2.3643  -15.7905  -52.9407 H         1 UNK         0.0600 
    242 H242       -3.6346  -14.3463  -49.9866 H         1 UNK         0.3800 
    243 H243       -2.5508  -12.9824  -50.0028 H         1 UNK         0.3800 
    244 H244       -1.5110  -17.0373  -50.2858 H         1 UNK         0.0800 
    245 H245       -0.4228  -16.5557  -51.5599 H         1 UNK         0.0800 
    246 H246       -0.0216  -19.8266  -53.3755 H         1 UNK         0.0800 
    247 H247        0.0220  -18.1343  -53.8085 H         1 UNK         0.0800 
@<TRIPOS>BOND
     1    1    2 1    
     2    1  127 1    
     3    1  128 1    
     4    1  129 1    
     5    2    3 2    
     6    2    4 am   BACKBONE|DICT|INTERRES
     7    4    5 1    
     8    4  130 1    
     9    5    6 1    
    10    5   65 1    
    11    5  131 1    
    12    6    7 1    
    13    6  132 1    
    14    6  133 1    
    15    7    8 1    
    16    8    9 1    
    17    8  134 1    
    18    8  135 1    
    19    9   10 ar   
    20    9   14 ar   
    21   10   11 ar   
    22   10  136 1    
    23   11   12 ar   
    24   11  126 1    
    25   12   13 ar   
    26   12  137 1    
    27   13   14 ar   
    28   13   15 1    
    29   14  138 1    
    30   15   16 1    
    31   15  139 1    
    32   15  140 1    
    33   16   17 1    
    34   17   18 1    
    35   17  141 1    
    36   17  142 1    
    37   18   19 1    
    38   18   67 1    
    39   18  143 1    
    40   19   20 am   BACKBONE|DICT|INTERRES
    41   19  144 1    
    42   20   21 2    
    43   20   22 1    
    44   22   23 1    
    45   22   24 1    
    46   22  145 1    
    47   23  146 1    
    48   23  147 1    
    49   23  148 1    
    50   24   25 am   BACKBONE|DICT|INTERRES
    51   24  149 1    
    52   25   26 2    
    53   25   27 1    
    54   27   28 1    
    55   27   29 1    
    56   27  150 1    
    57   28  151 1    
    58   28  152 1    
    59   28  153 1    
    60   29   30 am   BACKBONE|DICT|INTERRES
    61   29  154 1    
    62   30   31 2    
    63   30   32 1    
    64   32   33 1    
    65   32   34 1    
    66   32  155 1    
    67   33  156 1    
    68   33  157 1    
    69   33  158 1    
    70   34   35 am   BACKBONE|DICT|INTERRES
    71   34  159 1    
    72   35   36 2    
    73   35   37 1    
    74   37   38 1    
    75   37   39 1    
    76   37  160 1    
    77   38  161 1    
    78   38  162 1    
    79   38  163 1    
    80   39   40 am   BACKBONE|DICT|INTERRES
    81   39  164 1    
    82   40   41 2    
    83   40   42 1    
    84   42   43 1    
    85   42   44 1    
    86   42  165 1    
    87   43  166 1    
    88   43  167 1    
    89   43  168 1    
    90   44   45 am   BACKBONE|DICT|INTERRES
    91   44  169 1    
    92   45   46 2    
    93   45   47 1    
    94   47   48 1    
    95   47   49 1    
    96   47  170 1    
    97   48  171 1    
    98   48  172 1    
    99   48  173 1    
   100   49   50 am   BACKBONE|DICT|INTERRES
   101   49  174 1    
   102   50   51 2    
   103   50   52 1    
   104   52   53 1    
   105   52   54 1    
   106   52  175 1    
   107   53  176 1    
   108   53  177 1    
   109   53  178 1    
   110   54   55 am   BACKBONE|DICT|INTERRES
   111   54  179 1    
   112   55   56 2    
   113   55   57 1    
   114   57   58 1    
   115   57   59 1    
   116   57  180 1    
   117   58  181 1    
   118   58  182 1    
   119   58  183 1    
   120   59   60 am   BACKBONE|DICT|INTERRES
   121   59  184 1    
   122   60   61 2    
   123   60   62 1    
   124   62   63 1    
   125   62   64 1    
   126   62  185 1    
   127   63  186 1    
   128   63  187 1    
   129   63  188 1    
   130   64   65 am   BACKBONE|DICT|INTERRES
   131   64  189 1    
   132   65   66 2    
   133   67   68 2    
   134   67   69 am   BACKBONE|DICT|INTERRES
   135   69   70 1    
   136   69  190 1    
   137   70   71 1    
   138   70   72 1    
   139   70  191 1    
   140   71  192 1    
   141   71  193 1    
   142   71  194 1    
   143   72   73 2    
   144   72   74 am   BACKBONE|DICT|INTERRES
   145   74   75 1    
   146   74  195 1    
   147   75   76 1    
   148   75   77 1    
   149   75  196 1    
   150   76  197 1    
   151   76  198 1    
   152   76  199 1    
   153   77   78 2    
   154   77   79 am   BACKBONE|DICT|INTERRES
   155   79   80 1    
   156   79  200 1    
   157   80   81 1    
   158   80   82 1    
   159   80  201 1    
   160   81  202 1    
   161   81  203 1    
   162   81  204 1    
   163   82   83 2    
   164   82   84 am   BACKBONE|DICT|INTERRES
   165   84   85 1    
   166   84  205 1    
   167   85   86 1    
   168   85   87 1    
   169   85  206 1    
   170   86  207 1    
   171   86  208 1    
   172   86  209 1    
   173   87   88 2    
   174   87   89 am   BACKBONE|DICT|INTERRES
   175   89   90 1    
   176   89  210 1    
   177   90   91 1    
   178   90   92 1    
   179   90  211 1    
   180   91  212 1    
   181   91  213 1    
   182   91  214 1    
   183   92   93 2    
   184   92   94 am   BACKBONE|DICT|INTERRES
   185   94   95 1    
   186   94  215 1    
   187   95   96 1    
   188   95   97 1    
   189   95  216 1    
   190   96  217 1    
   191   96  218 1    
   192   96  219 1    
   193   97   98 2    
   194   97   99 am   BACKBONE|DICT|INTERRES
   195   99  100 1    
   196   99  220 1    
   197  100  101 1    
   198  100  102 1    
   199  100  221 1    
   200  101  222 1    
   201  101  223 1    
   202  101  224 1    
   203  102  103 2    
   204  102  104 am   BACKBONE|DICT|INTERRES
   205  104  105 1    
   206  104  225 1    
   207  105  106 1    
   208  105  107 1    
   209  105  226 1    
   210  106  227 1    
   211  106  228 1    
   212  106  229 1    
   213  107  108 2    
   214  107  109 am   BACKBONE|DICT|INTERRES
   215  109  110 1    
   216  109  230 1    
   217  110  111 1    
   218  110  112 1    
   219  110  231 1    
   220  111  232 1    
   221  111  233 1    
   222  111  234 1    
   223  112  113 2    
   224  112  114 am   BACKBONE|DICT|INTERRES
   225  114  115 1    
   226  114  235 1    
   227  115  116 1    
   228  115  117 1    
   229  115  236 1    
   230  116  237 1    
   231  116  238 1    
   232  116  239 1    
   233  117  118 2    
   234  117  119 am   BACKBONE|DICT|INTERRES
   235  119  120 1    
   236  119  240 1    
   237  120  121 1    
   238  120  124 1    
   239  120  241 1    
   240  121  122 am   BACKBONE|DICT|INTERRES
   241  121  123 2    
   242  122  242 1    
   243  122  243 1    
   244  124  125 1    
   245  124  244 1    
   246  124  245 1    
   247  125  126 1    
   248  126  246 1    
   249  126  247 1    
@<TRIPOS>SUBSTRUCTURE
     1 UNK         1 GROUP             0       ****    0 ROOT    
