@<TRIPOS>MOLECULE
3R540
247   249    1
SMALL
USER_CHARGES


@<TRIPOS>ATOM
      1 CA          2.6298  -12.0378  -45.6895 C.3       0 UNK        -0.1800 
      2 C           3.0944  -12.8186  -46.9104 C.2       0 UNK         0.5000 
      3 O           4.1758  -12.5539  -47.4353 O.2       0 UNK        -0.5000 
      4 N           2.2912  -13.7918  -47.3563 N.am      1 UNK        -0.5000 
      5 CA          2.4894  -14.6221  -48.5558 C.3       1 UNK         0.1400 
      6 C6          1.1453  -15.2227  -49.0513 C.3       23 UNK        -0.0398 
      7 S7         -0.1079  -13.9373  -49.3822 S.3       23 UNK        -0.2404 
      8 C8         -0.3663  -14.1177  -51.1751 C.3       23 UNK        -0.0205 
      9 C9         -1.2982  -15.2779  -51.4893 C.ar      23 UNK        -0.0193 
     10 C10        -0.8144  -16.4521  -52.0737 C.ar      23 UNK        -0.1150 
     11 C11        -1.6781  -17.5134  -52.3682 C.ar      23 UNK        -0.0193 
     12 C12        -3.0362  -17.3937  -52.0447 C.ar      23 UNK        -0.1150 
     13 C13        -3.5313  -16.2218  -51.4673 C.ar      23 UNK        -0.0193 
     14 C14        -2.6591  -15.1655  -51.1999 C.ar      23 UNK        -0.1150 
     15 C15        -5.0069  -16.0941  -51.1257 C.3       23 UNK        -0.0205 
     16 S16        -5.4669  -17.1148  -49.6925 S.3       23 UNK        -0.2404 
     17 C17        -4.3547  -16.4841  -48.3795 C.3       23 UNK        -0.0398 
     18 CA         -3.0594  -17.3082  -48.1187 C.3       11 UNK         0.1400 
     19 N          -2.4158  -16.8952  -46.8675 N.am      11 UNK        -0.5000 
     20 C          -1.2310  -17.3346  -46.4172 C.2       10 UNK         0.5000 
     21 O          -0.4928  -18.0932  -47.0406 O.2       10 UNK        -0.5000 
     22 CA         -0.8160  -16.8810  -45.0073 C.3       10 UNK         0.1400 
     23 CB         -0.0639  -15.5449  -45.0780 C.3       10 UNK        -0.1800 
     24 N          -1.9318  -16.7597  -44.0659 N.am      10 UNK        -0.5000 
     25 C          -2.7793  -17.7399  -43.7234 C.2       9 UNK         0.5000 
     26 O          -2.7899  -18.8523  -44.2530 O.2       9 UNK        -0.5000 
     27 CA         -3.7463  -17.4215  -42.5651 C.3       9 UNK         0.1400 
     28 CB         -4.8209  -18.5073  -42.3769 C.3       9 UNK        -0.1800 
     29 N          -3.0009  -17.2738  -41.3162 N.am      9 UNK        -0.5000 
     30 C          -2.2845  -16.1983  -40.9617 C.2       8 UNK         0.5000 
     31 O          -2.2812  -15.1433  -41.5983 O.2       8 UNK        -0.5000 
     32 CA         -1.3861  -16.3404  -39.7174 C.3       8 UNK         0.1400 
     33 CB         -2.1115  -15.8187  -38.4678 C.3       8 UNK        -0.1800 
     34 N          -0.9268  -17.7123  -39.4703 N.am      8 UNK        -0.5000 
     35 C          -0.1354  -18.4145  -40.2930 C.2       7 UNK         0.5000 
     36 O           0.2619  -18.0044  -41.3846 O.2       7 UNK        -0.5000 
     37 CA          0.2453  -19.8255  -39.8334 C.3       7 UNK         0.1400 
     38 CB         -0.8179  -20.8485  -40.2734 C.3       7 UNK        -0.1800 
     39 N           1.5454  -20.1656  -40.4005 N.am      7 UNK        -0.5000 
     40 C           2.3728  -21.1053  -39.9296 C.2       6 UNK         0.5000 
     41 O           2.1067  -21.8374  -38.9753 O.2       6 UNK        -0.5000 
     42 CA          3.7386  -21.2341  -40.6227 C.3       6 UNK         0.1400 
     43 CB          3.6232  -22.0684  -41.9090 C.3       6 UNK        -0.1800 
     44 N           4.3116  -19.9224  -40.9295 N.am      6 UNK        -0.5000 
     45 C           5.0028  -19.1802  -40.0505 C.2       5 UNK         0.5000 
     46 O           5.2393  -19.5412  -38.8969 O.2       5 UNK        -0.5000 
     47 CA          5.5407  -17.8149  -40.5272 C.3       5 UNK         0.1400 
     48 CB          7.0129  -17.9383  -40.9494 C.3       5 UNK        -0.1800 
     49 N           4.7805  -17.2509  -41.6404 N.am      5 UNK        -0.5000 
     50 C           3.5648  -16.6971  -41.5347 C.2       4 UNK         0.5000 
     51 O           2.9950  -16.5083  -40.4599 O.2       4 UNK        -0.5000 
     52 CA          2.8679  -16.2952  -42.8530 C.3       4 UNK         0.1400 
     53 CB          3.0597  -14.7940  -43.1169 C.3       4 UNK        -0.1800 
     54 N           3.3293  -17.0376  -44.0314 N.am      4 UNK        -0.5000 
     55 C           3.3125  -18.3696  -44.1884 C.2       3 UNK         0.5000 
     56 O           2.8593  -19.1413  -43.3441 O.2       3 UNK        -0.5000 
     57 CA          3.9399  -18.9459  -45.4749 C.3       3 UNK         0.1400 
     58 CB          2.9317  -19.8165  -46.2335 C.3       3 UNK        -0.1800 
     59 N           4.4490  -17.9275  -46.3931 N.am      3 UNK        -0.5000 
     60 C           5.5772  -17.2228  -46.2620 C.2       2 UNK         0.5000 
     61 O           6.3475  -17.3495  -45.3101 O.2       2 UNK        -0.5000 
     62 CA          5.8673  -16.1648  -47.3471 C.3       2 UNK         0.1400 
     63 CB          6.5430  -16.8021  -48.5756 C.3       2 UNK        -0.1800 
     64 N           4.7012  -15.3534  -47.7348 N.am      2 UNK        -0.5000 
     65 C           3.5671  -15.7167  -48.3526 C.2       1 UNK         0.5000 
     66 O           3.3438  -16.8708  -48.7194 O.2       1 UNK        -0.5000 
     67 C          -3.2934  -18.8339  -48.1301 C.2       11 UNK         0.5000 
     68 O          -2.7902  -19.5248  -49.0153 O.2       11 UNK        -0.5000 
     69 N          -4.0193  -19.3309  -47.1184 N.am      12 UNK        -0.5000 
     70 CA         -4.3477  -20.7460  -46.9592 C.3       12 UNK         0.1400 
     71 CB         -5.3590  -20.9173  -45.8167 C.3       12 UNK        -0.1800 
     72 C          -3.1055  -21.6192  -46.7239 C.2       12 UNK         0.5000 
     73 O          -3.0356  -22.7198  -47.2699 O.2       12 UNK        -0.5000 
     74 N          -2.1415  -21.1029  -45.9508 N.am      13 UNK        -0.5000 
     75 CA         -0.8585  -21.7486  -45.6825 C.3       13 UNK         0.1400 
     76 CB         -0.1126  -20.9654  -44.5916 C.3       13 UNK        -0.1800 
     77 C           0.0046  -21.9069  -46.9493 C.2       13 UNK         0.5000 
     78 O           0.5866  -22.9731  -47.1504 O.2       13 UNK        -0.5000 
     79 N           0.0525  -20.8632  -47.7901 N.am      14 UNK        -0.5000 
     80 CA          0.7768  -20.8604  -49.0616 C.3       14 UNK         0.1400 
     81 CB          0.9208  -19.4174  -49.5723 C.3       14 UNK        -0.1800 
     82 C           0.0981  -21.7372  -50.1263 C.2       14 UNK         0.5000 
     83 O           0.7832  -22.4681  -50.8424 O.2       14 UNK        -0.5000 
     84 N          -1.2337  -21.6408  -50.2152 N.am      15 UNK        -0.5000 
     85 CA         -2.0451  -22.3230  -51.2210 C.3       15 UNK         0.1400 
     86 CB         -3.3921  -21.6004  -51.3233 C.3       15 UNK        -0.1800 
     87 C          -2.2945  -23.8121  -50.9268 C.2       15 UNK         0.5000 
     88 O          -2.7118  -24.5338  -51.8327 O.2       15 UNK        -0.5000 
     89 N          -2.0981  -24.2268  -49.6658 N.am      16 UNK        -0.5000 
     90 CA         -2.5402  -25.4973  -49.0793 C.3       16 UNK         0.1400 
     91 CB         -1.8202  -26.7026  -49.7192 C.3       16 UNK        -0.1800 
     92 C          -4.0796  -25.5986  -49.1216 C.2       16 UNK         0.5000 
     93 O          -4.6366  -26.5535  -49.6644 O.2       16 UNK        -0.5000 
     94 N          -4.7267  -24.5463  -48.6007 N.am      17 UNK        -0.5000 
     95 CA         -6.1661  -24.2577  -48.5382 C.3       17 UNK         0.1400 
     96 CB         -6.9262  -25.3605  -47.7783 C.3       17 UNK        -0.1800 
     97 C          -6.8399  -23.9495  -49.8927 C.2       17 UNK         0.5000 
     98 O          -7.8310  -23.2180  -49.9114 O.2       17 UNK        -0.5000 
     99 N          -6.3050  -24.4749  -51.0009 N.am      18 UNK        -0.5000 
    100 CA        -6.8095  -24.3158  -52.3662 C.3       18 UNK         0.1400 
    101 CB        -6.2759  -25.4813  -53.2185 C.3       18 UNK        -0.1800 
    102 C         -6.4575  -22.9380  -52.9670 C.2       18 UNK         0.5000 
    103 O         -5.7703  -22.8660  -53.9859 O.2       18 UNK        -0.5000 
    104 N         -6.9292  -21.8624  -52.3206 N.am      19 UNK        -0.5000 
    105 CA        -6.6370  -20.4533  -52.6226 C.3       19 UNK         0.1400 
    106 CB        -7.4367  -19.5661  -51.6584 C.3       19 UNK        -0.1800 
    107 C         -6.8864  -20.0215  -54.0812 C.2       19 UNK         0.5000 
    108 O         -6.1894  -19.1374  -54.5795 O.2       19 UNK        -0.5000 
    109 N         -7.8469  -20.6741  -54.7496 N.am      20 UNK        -0.5000 
    110 CA        -8.1760  -20.4746  -56.1618 C.3       20 UNK         0.1400 
    111 CB        -9.4468  -21.2717  -56.4927 C.3       20 UNK        -0.1800 
    112 C         -7.0370  -20.8525  -57.1317 C.2       20 UNK         0.5000 
    113 O         -6.9777  -20.2975  -58.2300 O.2       20 UNK        -0.5000 
    114 N         -6.1418  -21.7631  -56.7178 N.am      21 UNK        -0.5000 
    115 CA        -4.9858  -22.2029  -57.5045 C.3       21 UNK         0.1400 
    116 CB        -4.4011  -23.4792  -56.8793 C.3       21 UNK        -0.1800 
    117 C         -3.8939  -21.1233  -57.6422 C.2       21 UNK         0.5000 
    118 O         -3.0831  -21.2019  -58.5662 O.2       21 UNK        -0.5000 
    119 N         -3.8930  -20.1383  -56.7354 N.am      22 UNK        -0.5000 
    120 CA        -2.9616  -18.9992  -56.7270 C.3       22 UNK         0.1400 
    121 C         -3.3292  -17.8720  -57.7378 C.2       22 UNK         0.5000 
    122 N         -4.4670  -17.9267  -58.4221 N.am      22 UNK        -0.7600 
    123 O         -2.5595  -16.9317  -57.9151 O.2       22 UNK        -0.5000 
    124 C124       -2.7746  -18.4244  -55.2997 C.3       23 UNK        -0.0398 
    125 S125       -2.2644  -19.6942  -54.0894 S.3       23 UNK        -0.2404 
    126 C126       -1.1057  -18.7745  -53.0169 C.3       23 UNK        -0.0205 
    127 H127        2.5238  -10.9821  -45.9389 H         1 UNK         0.0600 
    128 H128        3.3608  -12.1270  -44.8859 H         1 UNK         0.0600 
    129 H129        1.6696  -12.3973  -45.3187 H         1 UNK         0.0600 
    130 H130        1.4124  -13.9408  -46.8840 H         1 UNK         0.3000 
    131 H131        2.8671  -13.9743  -49.3497 H         1 UNK         0.0600 
    132 H132        1.2980  -15.8133  -49.9562 H         1 UNK         0.0800 
    133 H133        0.7372  -15.9131  -48.3120 H         1 UNK         0.0800 
    134 H134       -0.8059  -13.1963  -51.5597 H         1 UNK         0.0800 
    135 H135        0.5932  -14.2308  -51.6823 H         1 UNK         0.0800 
    136 H136        0.2382  -16.5390  -52.3039 H         1 UNK         0.1150 
    137 H137       -3.7175  -18.2095  -52.2389 H         1 UNK         0.1150 
    138 H138       -3.0340  -14.2568  -50.7500 H         1 UNK         0.1150 
    139 H139       -5.2727  -15.0548  -50.9264 H         1 UNK         0.0800 
    140 H140       -5.6025  -16.4031  -51.9859 H         1 UNK         0.0800 
    141 H141       -4.0934  -15.4476  -48.5960 H         1 UNK         0.0800 
    142 H142       -4.9535  -16.4468  -47.4683 H         1 UNK         0.0800 
    143 H143       -2.3574  -17.0924  -48.9270 H         1 UNK         0.0600 
    144 H144       -2.9421  -16.2749  -46.2707 H         1 UNK         0.3000 
    145 H145       -0.1350  -17.6309  -44.5999 H         1 UNK         0.0600 
    146 H146        0.2007  -15.1885  -44.0828 H         1 UNK         0.0600 
    147 H147        0.8618  -15.6573  -45.6430 H         1 UNK         0.0600 
    148 H148       -0.6599  -14.7694  -45.5609 H         1 UNK         0.0600 
    149 H149       -1.9749  -15.9040  -43.5241 H         1 UNK         0.3000 
    150 H150       -4.2532  -16.4828  -42.7981 H         1 UNK         0.0600 
    151 H151       -5.4142  -18.6294  -43.2838 H         1 UNK         0.0600 
    152 H152       -5.5089  -18.2451  -41.5732 H         1 UNK         0.0600 
    153 H153       -4.3807  -19.4765  -42.1382 H         1 UNK         0.0600 
    154 H154       -2.9129  -18.1034  -40.7488 H         1 UNK         0.3000 
    155 H155       -0.5020  -15.7210  -39.8836 H         1 UNK         0.0600 
    156 H156       -1.4553  -15.8284  -37.5972 H         1 UNK         0.0600 
    157 H157       -2.9917  -16.4186  -38.2332 H         1 UNK         0.0600 
    158 H158       -2.4440  -14.7896  -38.6102 H         1 UNK         0.0600 
    159 H159       -1.2173  -18.1291  -38.5974 H         1 UNK         0.3000 
    160 H160        0.3232  -19.8249  -38.7441 H         1 UNK         0.0600 
    161 H161       -0.9192  -20.8780  -41.3581 H         1 UNK         0.0600 
    162 H162       -1.7958  -20.6008  -39.8592 H         1 UNK         0.0600 
    163 H163       -0.5694  -21.8539  -39.9337 H         1 UNK         0.0600 
    164 H164        1.8274  -19.5884  -41.1861 H         1 UNK         0.3000 
    165 H165        4.4112  -21.7655  -39.9457 H         1 UNK         0.0600 
    166 H166        2.9103  -21.6395  -42.6133 H         1 UNK         0.0600 
    167 H167        4.5856  -22.1518  -42.4141 H         1 UNK         0.0600 
    168 H168        3.2852  -23.0804  -41.6834 H         1 UNK         0.0600 
    169 H169        4.0827  -19.5366  -41.8390 H         1 UNK         0.3000 
    170 H170        5.4850  -17.1244  -39.6829 H         1 UNK         0.0600 
    171 H171        7.6217  -18.3335  -40.1351 H         1 UNK         0.0600 
    172 H172        7.1321  -18.6065  -41.8033 H         1 UNK         0.0600 
    173 H173        7.4278  -16.9677  -41.2222 H         1 UNK         0.0600 
    174 H174        5.1845  -17.3465  -42.5611 H         1 UNK         0.3000 
    175 H175        1.8018  -16.4907  -42.7390 H         1 UNK         0.0600 
    176 H176        2.6662  -14.1989  -42.2917 H         1 UNK         0.0600 
    177 H177        4.1134  -14.5378  -43.2345 H         1 UNK         0.0600 
    178 H178        2.5379  -14.4804  -44.0196 H         1 UNK         0.0600 
    179 H179        3.7384  -16.4914  -44.7737 H         1 UNK         0.3000 
    180 H180        4.7750  -19.5794  -45.1698 H         1 UNK         0.0600 
    181 H181        2.0367  -19.2508  -46.4939 H         1 UNK         0.0600 
    182 H182        2.6247  -20.6714  -45.6316 H         1 UNK         0.0600 
    183 H183        3.3605  -20.2107  -47.1547 H         1 UNK         0.0600 
    184 H184        3.8884  -17.7396  -47.2221 H         1 UNK         0.3000 
    185 H185        6.5799  -15.4621  -46.9122 H         1 UNK         0.0600 
    186 H186        6.8047  -16.0470  -49.3168 H         1 UNK         0.0600 
    187 H187        7.4646  -17.3111  -48.2908 H         1 UNK         0.0600 
    188 H188        5.9022  -17.5395  -49.0598 H         1 UNK         0.0600 
    189 H189        4.7635  -14.3692  -47.4868 H         1 UNK         0.3000 
    190 H190       -4.3338  -18.7098  -46.3884 H         1 UNK         0.3000 
    191 H191       -4.8186  -21.0830  -47.8851 H         1 UNK         0.0600 
    192 H192       -5.6441  -21.9639  -45.7020 H         1 UNK         0.0600 
    193 H193       -6.2708  -20.3513  -46.0078 H         1 UNK         0.0600 
    194 H194       -4.9488  -20.5835  -44.8629 H         1 UNK         0.0600 
    195 H195       -2.3091  -20.2075  -45.4985 H         1 UNK         0.3000 
    196 H196       -1.0685  -22.7479  -45.2955 H         1 UNK         0.0600 
    197 H197        0.7984  -21.4828  -44.2897 H         1 UNK         0.0600 
    198 H198       -0.7286  -20.8473  -43.7011 H         1 UNK         0.0600 
    199 H199        0.1695  -19.9693  -44.9312 H         1 UNK         0.0600 
    200 H200       -0.4194  -19.9988  -47.5404 H         1 UNK         0.3000 
    201 H201        1.7780  -21.2594  -48.8872 H         1 UNK         0.0600 
    202 H202        1.4752  -18.8034  -48.8639 H         1 UNK         0.0600 
    203 H203       -0.0499  -18.9450  -49.7304 H         1 UNK         0.0600 
    204 H204        1.4610  -19.3862  -50.5191 H         1 UNK         0.0600 
    205 H205       -1.7199  -20.9708  -49.6229 H         1 UNK         0.3000 
    206 H206       -1.5399  -22.2473  -52.1862 H         1 UNK         0.0600 
    207 H207       -3.2632  -20.5262  -51.4482 H         1 UNK         0.0600 
    208 H208       -3.9373  -21.9624  -52.1918 H         1 UNK         0.0600 
    209 H209       -4.0133  -21.7613  -50.4410 H         1 UNK         0.0600 
    210 H210       -1.7960  -23.5295  -48.9969 H         1 UNK         0.3000 
    211 H211       -2.2578  -25.4664  -48.0259 H         1 UNK         0.0600 
    212 H212       -2.0988  -26.8435  -50.7637 H         1 UNK         0.0600 
    213 H213       -2.0680  -27.6242  -49.1917 H         1 UNK         0.0600 
    214 H214       -0.7378  -26.5827  -49.6742 H         1 UNK         0.0600 
    215 H215       -4.1352  -23.8278  -48.1859 H         1 UNK         0.3000 
    216 H216       -6.2486  -23.3438  -47.9481 H         1 UNK         0.0600 
    217 H217       -6.4897  -25.5345  -46.7948 H         1 UNK         0.0600 
    218 H218       -7.9688  -25.0787  -47.6256 H         1 UNK         0.0600 
    219 H219       -6.9231  -26.3064  -48.3204 H         1 UNK         0.0600 
    220 H220       -5.4998  -25.0794  -50.8880 H         1 UNK         0.3000 
    221 H221       -7.8986  -24.3905  -52.3477 H         1 UNK         0.0600 
    222 H222       -6.6526  -25.4263  -54.2407 H         1 UNK         0.0600 
    223 H223       -5.1858  -25.4750  -53.2678 H         1 UNK         0.0600 
    224 H224       -6.5862  -26.4431  -52.8099 H         1 UNK         0.0600 
    225 H225       -7.4667  -22.0392  -51.4777 H         1 UNK         0.3000 
    226 H226       -5.5779  -20.2858  -52.4275 H         1 UNK         0.0600 
    227 H227       -8.5101  -19.7327  -51.7553 H         1 UNK         0.0600 
    228 H228       -7.1576  -19.7594  -50.6223 H         1 UNK         0.0600 
    229 H229       -7.2497  -18.5090  -51.8516 H         1 UNK         0.0600 
    230 H230       -8.3607  -21.3922  -54.2609 H         1 UNK         0.3000 
    231 H231       -8.3892  -19.4136  -56.3072 H         1 UNK         0.0600 
    232 H232       -9.7407  -21.1248  -57.5329 H         1 UNK         0.0600 
    233 H233      -10.2852  -20.9546  -55.8722 H         1 UNK         0.0600 
    234 H234       -9.3007  -22.3419  -56.3408 H         1 UNK         0.0600 
    235 H235       -6.2153  -22.1451  -55.7790 H         1 UNK         0.3000 
    236 H236       -5.3350  -22.4479  -58.5097 H         1 UNK         0.0600 
    237 H237       -5.1621  -24.2515  -56.7661 H         1 UNK         0.0600 
    238 H238       -3.6087  -23.8912  -57.5052 H         1 UNK         0.0600 
    239 H239       -3.9710  -23.2843  -55.8962 H         1 UNK         0.0600 
    240 H240       -4.5996  -20.1371  -56.0118 H         1 UNK         0.3000 
    241 H241       -1.9867  -19.3710  -57.0480 H         1 UNK         0.0600 
    242 H242       -5.1089  -18.6960  -58.2965 H         1 UNK         0.3800 
    243 H243       -4.6875  -17.1928  -59.0768 H         1 UNK         0.3800 
    244 H244       -3.7015  -17.9691  -54.9472 H         1 UNK         0.0800 
    245 H245       -2.0269  -17.6293  -55.3087 H         1 UNK         0.0800 
    246 H246       -0.2238  -18.5232  -53.6081 H         1 UNK         0.0800 
    247 H247       -0.7673  -19.4430  -52.2251 H         1 UNK         0.0800 
@<TRIPOS>BOND
     1    1    2 1    
     2    1  127 1    
     3    1  128 1    
     4    1  129 1    
     5    2    3 2    
     6    2    4 am   BACKBONE|DICT|INTERRES
     7    4    5 1    
     8    4  130 1    
     9    5    6 1    
    10    5   65 1    
    11    5  131 1    
    12    6    7 1    
    13    6  132 1    
    14    6  133 1    
    15    7    8 1    
    16    8    9 1    
    17    8  134 1    
    18    8  135 1    
    19    9   10 ar   
    20    9   14 ar   
    21   10   11 ar   
    22   10  136 1    
    23   11   12 ar   
    24   11  126 1    
    25   12   13 ar   
    26   12  137 1    
    27   13   14 ar   
    28   13   15 1    
    29   14  138 1    
    30   15   16 1    
    31   15  139 1    
    32   15  140 1    
    33   16   17 1    
    34   17   18 1    
    35   17  141 1    
    36   17  142 1    
    37   18   19 1    
    38   18   67 1    
    39   18  143 1    
    40   19   20 am   BACKBONE|DICT|INTERRES
    41   19  144 1    
    42   20   21 2    
    43   20   22 1    
    44   22   23 1    
    45   22   24 1    
    46   22  145 1    
    47   23  146 1    
    48   23  147 1    
    49   23  148 1    
    50   24   25 am   BACKBONE|DICT|INTERRES
    51   24  149 1    
    52   25   26 2    
    53   25   27 1    
    54   27   28 1    
    55   27   29 1    
    56   27  150 1    
    57   28  151 1    
    58   28  152 1    
    59   28  153 1    
    60   29   30 am   BACKBONE|DICT|INTERRES
    61   29  154 1    
    62   30   31 2    
    63   30   32 1    
    64   32   33 1    
    65   32   34 1    
    66   32  155 1    
    67   33  156 1    
    68   33  157 1    
    69   33  158 1    
    70   34   35 am   BACKBONE|DICT|INTERRES
    71   34  159 1    
    72   35   36 2    
    73   35   37 1    
    74   37   38 1    
    75   37   39 1    
    76   37  160 1    
    77   38  161 1    
    78   38  162 1    
    79   38  163 1    
    80   39   40 am   BACKBONE|DICT|INTERRES
    81   39  164 1    
    82   40   41 2    
    83   40   42 1    
    84   42   43 1    
    85   42   44 1    
    86   42  165 1    
    87   43  166 1    
    88   43  167 1    
    89   43  168 1    
    90   44   45 am   BACKBONE|DICT|INTERRES
    91   44  169 1    
    92   45   46 2    
    93   45   47 1    
    94   47   48 1    
    95   47   49 1    
    96   47  170 1    
    97   48  171 1    
    98   48  172 1    
    99   48  173 1    
   100   49   50 am   BACKBONE|DICT|INTERRES
   101   49  174 1    
   102   50   51 2    
   103   50   52 1    
   104   52   53 1    
   105   52   54 1    
   106   52  175 1    
   107   53  176 1    
   108   53  177 1    
   109   53  178 1    
   110   54   55 am   BACKBONE|DICT|INTERRES
   111   54  179 1    
   112   55   56 2    
   113   55   57 1    
   114   57   58 1    
   115   57   59 1    
   116   57  180 1    
   117   58  181 1    
   118   58  182 1    
   119   58  183 1    
   120   59   60 am   BACKBONE|DICT|INTERRES
   121   59  184 1    
   122   60   61 2    
   123   60   62 1    
   124   62   63 1    
   125   62   64 1    
   126   62  185 1    
   127   63  186 1    
   128   63  187 1    
   129   63  188 1    
   130   64   65 am   BACKBONE|DICT|INTERRES
   131   64  189 1    
   132   65   66 2    
   133   67   68 2    
   134   67   69 am   BACKBONE|DICT|INTERRES
   135   69   70 1    
   136   69  190 1    
   137   70   71 1    
   138   70   72 1    
   139   70  191 1    
   140   71  192 1    
   141   71  193 1    
   142   71  194 1    
   143   72   73 2    
   144   72   74 am   BACKBONE|DICT|INTERRES
   145   74   75 1    
   146   74  195 1    
   147   75   76 1    
   148   75   77 1    
   149   75  196 1    
   150   76  197 1    
   151   76  198 1    
   152   76  199 1    
   153   77   78 2    
   154   77   79 am   BACKBONE|DICT|INTERRES
   155   79   80 1    
   156   79  200 1    
   157   80   81 1    
   158   80   82 1    
   159   80  201 1    
   160   81  202 1    
   161   81  203 1    
   162   81  204 1    
   163   82   83 2    
   164   82   84 am   BACKBONE|DICT|INTERRES
   165   84   85 1    
   166   84  205 1    
   167   85   86 1    
   168   85   87 1    
   169   85  206 1    
   170   86  207 1    
   171   86  208 1    
   172   86  209 1    
   173   87   88 2    
   174   87   89 am   BACKBONE|DICT|INTERRES
   175   89   90 1    
   176   89  210 1    
   177   90   91 1    
   178   90   92 1    
   179   90  211 1    
   180   91  212 1    
   181   91  213 1    
   182   91  214 1    
   183   92   93 2    
   184   92   94 am   BACKBONE|DICT|INTERRES
   185   94   95 1    
   186   94  215 1    
   187   95   96 1    
   188   95   97 1    
   189   95  216 1    
   190   96  217 1    
   191   96  218 1    
   192   96  219 1    
   193   97   98 2    
   194   97   99 am   BACKBONE|DICT|INTERRES
   195   99  100 1    
   196   99  220 1    
   197  100  101 1    
   198  100  102 1    
   199  100  221 1    
   200  101  222 1    
   201  101  223 1    
   202  101  224 1    
   203  102  103 2    
   204  102  104 am   BACKBONE|DICT|INTERRES
   205  104  105 1    
   206  104  225 1    
   207  105  106 1    
   208  105  107 1    
   209  105  226 1    
   210  106  227 1    
   211  106  228 1    
   212  106  229 1    
   213  107  108 2    
   214  107  109 am   BACKBONE|DICT|INTERRES
   215  109  110 1    
   216  109  230 1    
   217  110  111 1    
   218  110  112 1    
   219  110  231 1    
   220  111  232 1    
   221  111  233 1    
   222  111  234 1    
   223  112  113 2    
   224  112  114 am   BACKBONE|DICT|INTERRES
   225  114  115 1    
   226  114  235 1    
   227  115  116 1    
   228  115  117 1    
   229  115  236 1    
   230  116  237 1    
   231  116  238 1    
   232  116  239 1    
   233  117  118 2    
   234  117  119 am   BACKBONE|DICT|INTERRES
   235  119  120 1    
   236  119  240 1    
   237  120  121 1    
   238  120  124 1    
   239  120  241 1    
   240  121  122 am   BACKBONE|DICT|INTERRES
   241  121  123 2    
   242  122  242 1    
   243  122  243 1    
   244  124  125 1    
   245  124  244 1    
   246  124  245 1    
   247  125  126 1    
   248  126  246 1    
   249  126  247 1    
@<TRIPOS>SUBSTRUCTURE
     1 UNK         1 GROUP             0       ****    0 ROOT    
