@<TRIPOS>MOLECULE
3R540
247   249    1
SMALL
USER_CHARGES


@<TRIPOS>ATOM
      1 CA          2.9334   -9.6316  -49.3322 C.3       0 UNK        -0.1800 
      2 C           3.1740  -11.0382  -48.8039 C.2       0 UNK         0.5000 
      3 O           4.0778  -11.2449  -47.9933 O.2       0 UNK        -0.5000 
      4 N           2.3595  -12.0060  -49.2412 N.am      1 UNK        -0.5000 
      5 CA          2.4369  -13.4339  -48.8951 C.3       1 UNK         0.1400 
      6 C6          1.7906  -14.3225  -49.9903 C.3       23 UNK        -0.0398 
      7 S7          2.4794  -14.0343  -51.6599 S.3       23 UNK        -0.2404 
      8 C8          3.8511  -15.2310  -51.7339 C.3       23 UNK        -0.0205 
      9 C9          3.3633  -16.6702  -51.6728 C.ar      23 UNK        -0.0193 
     10 C10         2.7086  -17.2422  -52.7672 C.ar      23 UNK        -0.1150 
     11 C11         2.2372  -18.5565  -52.7028 C.ar      23 UNK        -0.0193 
     12 C12         2.4213  -19.2990  -51.5325 C.ar      23 UNK        -0.1150 
     13 C13         3.0846  -18.7406  -50.4360 C.ar      23 UNK        -0.0193 
     14 C14         3.5634  -17.4302  -50.5177 C.ar      23 UNK        -0.1150 
     15 C15         3.3039  -19.5573  -49.1710 C.3       23 UNK        -0.0205 
     16 S16         2.5878  -18.7714  -47.6910 S.3       23 UNK        -0.2404 
     17 C17         0.7939  -18.9147  -47.9982 C.3       23 UNK        -0.0398 
     18 CA          0.2357  -20.3057  -47.6176 C.3       11 UNK         0.1400 
     19 N           0.4345  -20.6491  -46.2061 N.am      11 UNK        -0.5000 
     20 C           0.2873  -21.8861  -45.7127 C.2       10 UNK         0.5000 
     21 O          -0.0084  -22.8619  -46.4029 O.2       10 UNK        -0.5000 
     22 CA          0.4499  -22.0608  -44.1925 C.3       10 UNK         0.1400 
     23 CB          1.9337  -22.1080  -43.7988 C.3       10 UNK        -0.1800 
     24 N          -0.2404  -21.0218  -43.4267 N.am      10 UNK        -0.5000 
     25 C          -1.5694  -20.8440  -43.4257 C.2       9 UNK         0.5000 
     26 O          -2.3524  -21.5599  -44.0488 O.2       9 UNK        -0.5000 
     27 CA         -2.1196  -19.6471  -42.6297 C.3       9 UNK         0.1400 
     28 CB         -2.2095  -19.9814  -41.1335 C.3       9 UNK        -0.1800 
     29 N          -1.3343  -18.4277  -42.8167 N.am      9 UNK        -0.5000 
     30 C          -1.1719  -17.7966  -43.9892 C.2       8 UNK         0.5000 
     31 O          -1.6972  -18.1557  -45.0426 O.2       8 UNK        -0.5000 
     32 CA         -0.2097  -16.5954  -43.9950 C.3       8 UNK         0.1400 
     33 CB         -0.8792  -15.3616  -43.3706 C.3       8 UNK        -0.1800 
     34 N           1.0414  -16.8826  -43.2924 N.am      8 UNK        -0.5000 
     35 C           1.8869  -17.8740  -43.6097 C.2       7 UNK         0.5000 
     36 O           1.7180  -18.6432  -44.5528 O.2       7 UNK        -0.5000 
     37 CA          3.0854  -18.0859  -42.6716 C.3       7 UNK         0.1400 
     38 CB          4.1912  -17.0523  -42.9384 C.3       7 UNK        -0.1800 
     39 N           2.6803  -18.0408  -41.2666 N.am      7 UNK        -0.5000 
     40 C           1.9107  -18.9665  -40.6747 C.2       6 UNK         0.5000 
     41 O           1.4988  -19.9784  -41.2409 O.2       6 UNK        -0.5000 
     42 CA          1.5012  -18.6952  -39.2159 C.3       6 UNK         0.1400 
     43 CB          2.6012  -19.1585  -38.2493 C.3       6 UNK        -0.1800 
     44 N           1.2035  -17.2836  -38.9718 N.am      6 UNK        -0.5000 
     45 C           0.1600  -16.6270  -39.4987 C.2       5 UNK         0.5000 
     46 O          -0.6881  -17.1538  -40.2186 O.2       5 UNK        -0.5000 
     47 CA          0.0904  -15.1138  -39.2171 C.3       5 UNK         0.1400 
     48 CB         -0.5854  -14.8436  -37.8647 C.3       5 UNK        -0.1800 
     49 N           1.4068  -14.4657  -39.2461 N.am      5 UNK        -0.5000 
     50 C           2.1890  -14.4126  -40.3309 C.2       4 UNK         0.5000 
     51 O           1.8762  -14.9044  -41.4200 O.2       4 UNK        -0.5000 
     52 CA          3.5611  -13.7437  -40.1734 C.3       4 UNK         0.1400 
     53 CB          4.5500  -14.6715  -39.4459 C.3       4 UNK        -0.1800 
     54 N           4.0473  -13.4587  -41.5143 N.am      4 UNK        -0.5000 
     55 C           4.9259  -12.5232  -41.8813 C.2       3 UNK         0.5000 
     56 O           5.5395  -11.8075  -41.0888 O.2       3 UNK        -0.5000 
     57 CA          5.1420  -12.3516  -43.4006 C.3       3 UNK         0.1400 
     58 CB          6.4092  -13.0969  -43.8473 C.3       3 UNK        -0.1800 
     59 N           4.0098  -12.8151  -44.2143 N.am      3 UNK        -0.5000 
     60 C           2.7916  -12.2552  -44.2223 C.2       2 UNK         0.5000 
     61 O           2.5002  -11.2485  -43.5747 O.2       2 UNK        -0.5000 
     62 CA          1.7503  -12.9266  -45.1300 C.3       2 UNK         0.1400 
     63 CB          0.3637  -12.2531  -45.0645 C.3       2 UNK        -0.1800 
     64 N           2.2480  -12.9179  -46.5003 N.am      2 UNK        -0.5000 
     65 C           1.8452  -13.7193  -47.4912 C.2       1 UNK         0.5000 
     66 O           1.0263  -14.6261  -47.3316 O.2       1 UNK        -0.5000 
     67 C          -1.2398  -20.4550  -48.0407 C.2       11 UNK         0.5000 
     68 O          -1.4991  -20.9659  -49.1294 O.2       11 UNK        -0.5000 
     69 N          -2.1823  -20.0685  -47.1672 N.am      12 UNK        -0.5000 
     70 CA         -3.6198  -20.2668  -47.3699 C.3       12 UNK         0.1400 
     71 CB         -4.4123  -19.5263  -46.2834 C.3       12 UNK        -0.1800 
     72 C          -4.0163  -21.7538  -47.4146 C.2       12 UNK         0.5000 
     73 O          -4.8454  -22.1312  -48.2432 O.2       12 UNK        -0.5000 
     74 N          -3.3975  -22.5752  -46.5548 N.am      13 UNK        -0.5000 
     75 CA         -3.5547  -24.0292  -46.5391 C.3       13 UNK         0.1400 
     76 CB         -2.9171  -24.6135  -45.2699 C.3       13 UNK        -0.1800 
     77 C          -2.9818  -24.6928  -47.8038 C.2       13 UNK         0.5000 
     78 O          -3.6429  -25.5574  -48.3781 O.2       13 UNK        -0.5000 
     79 N          -1.7975  -24.2454  -48.2485 N.am      14 UNK        -0.5000 
     80 CA         -1.1551  -24.6794  -49.4943 C.3       14 UNK         0.1400 
     81 CB          0.2602  -24.0879  -49.5794 C.3       14 UNK        -0.1800 
     82 C          -1.9753  -24.3171  -50.7483 C.2       14 UNK         0.5000 
     83 O          -2.0634  -25.1227  -51.6748 O.2       14 UNK        -0.5000 
     84 N          -2.6024  -23.1339  -50.7260 N.am      15 UNK        -0.5000 
     85 CA         -3.5441  -22.6547  -51.7370 C.3       15 UNK         0.1400 
     86 CB         -3.7082  -21.1361  -51.5671 C.3       15 UNK        -0.1800 
     87 C          -4.9232  -23.3387  -51.6761 C.2       15 UNK         0.5000 
     88 O          -5.7322  -23.1196  -52.5785 O.2       15 UNK        -0.5000 
     89 N          -5.1889  -24.1082  -50.6097 N.am      16 UNK        -0.5000 
     90 CA         -6.4532  -24.7703  -50.2761 C.3       16 UNK         0.1400 
     91 CB         -6.7481  -25.9069  -51.2767 C.3       16 UNK        -0.1800 
     92 C          -7.6145  -23.7645  -50.1417 C.2       16 UNK         0.5000 
     93 O          -8.6908  -23.9847  -50.6956 O.2       16 UNK        -0.5000 
     94 N          -7.3503  -22.6388  -49.4603 N.am      17 UNK        -0.5000 
     95 CA         -8.2277  -21.4670  -49.3324 C.3       17 UNK         0.1400 
     96 CB         -9.4733  -21.7989  -48.4850 C.3       17 UNK        -0.1800 
     97 C          -8.5705  -20.8402  -50.7037 C.2       17 UNK         0.5000 
     98 O          -9.7022  -20.4119  -50.9324 O.2       17 UNK        -0.5000 
     99 N          -7.5663  -20.8342  -51.5919 N.am      18 UNK        -0.5000 
    100 CA        -7.5703  -20.3943  -52.9903 C.3       18 UNK         0.1400 
    101 CB        -8.0500  -18.9359  -53.1355 C.3       18 UNK        -0.1800 
    102 C         -8.2870  -21.3512  -53.9657 C.2       18 UNK         0.5000 
    103 O         -8.3500  -21.0400  -55.1561 O.2       18 UNK        -0.5000 
    104 N         -8.7621  -22.5173  -53.4985 N.am      19 UNK        -0.5000 
    105 CA        -9.3723  -23.5482  -54.3473 C.3       19 UNK         0.1400 
    106 CB       -10.1029  -24.5812  -53.4779 C.3       19 UNK        -0.1800 
    107 C         -8.3579  -24.2472  -55.2747 C.2       19 UNK         0.5000 
    108 O         -8.7488  -24.7304  -56.3377 O.2       19 UNK        -0.5000 
    109 N         -7.0785  -24.2593  -54.8771 N.am      20 UNK        -0.5000 
    110 CA        -5.9459  -24.7404  -55.6692 C.3       20 UNK         0.1400 
    111 CB        -5.1178  -25.7187  -54.8166 C.3       20 UNK        -0.1800 
    112 C         -5.0930  -23.5616  -56.1824 C.2       20 UNK         0.5000 
    113 O         -3.9146  -23.7560  -56.4907 O.2       20 UNK        -0.5000 
    114 N         -5.6931  -22.3611  -56.2490 N.am      21 UNK        -0.5000 
    115 CA        -5.1289  -21.0629  -56.6339 C.3       21 UNK         0.1400 
    116 CB        -4.6704  -21.0574  -58.1065 C.3       21 UNK        -0.1800 
    117 C         -4.0263  -20.5875  -55.6711 C.2       21 UNK         0.5000 
    118 O         -4.2582  -19.6689  -54.8857 O.2       21 UNK        -0.5000 
    119 N         -2.8646  -21.2409  -55.7372 N.am      22 UNK        -0.5000 
    120 CA        -1.7153  -21.0593  -54.8449 C.3       22 UNK         0.1400 
    121 C         -0.9172  -22.3780  -54.6141 C.2       22 UNK         0.5000 
    122 N         -1.3952  -23.5381  -55.0546 N.am      22 UNK        -0.7600 
    123 O          0.1480  -22.3634  -54.0065 O.2       22 UNK        -0.5000 
    124 C124       -0.8329  -19.8488  -55.2630 C.3       23 UNK        -0.0398 
    125 S125       -0.2578  -18.8776  -53.8285 S.3       23 UNK        -0.2404 
    126 C126        1.5331  -19.1769  -53.8974 C.3       23 UNK        -0.0205 
    127 H127        2.7073   -8.9550  -48.5081 H         1 UNK         0.0600 
    128 H128        2.1020   -9.6000  -50.0369 H         1 UNK         0.0600 
    129 H129        3.8247   -9.2651  -49.8414 H         1 UNK         0.0600 
    130 H130        1.6261  -11.7661  -49.8930 H         1 UNK         0.3000 
    131 H131        3.4920  -13.7104  -48.8402 H         1 UNK         0.0600 
    132 H132        1.8851  -15.3782  -49.7351 H         1 UNK         0.0800 
    133 H133        0.7178  -14.1293  -50.0433 H         1 UNK         0.0800 
    134 H134        4.5544  -15.0227  -50.9261 H         1 UNK         0.0800 
    135 H135        4.4016  -15.0790  -52.6634 H         1 UNK         0.0800 
    136 H136        2.5557  -16.6588  -53.6645 H         1 UNK         0.1150 
    137 H137        2.0502  -20.3133  -51.4808 H         1 UNK         0.1150 
    138 H138        4.0760  -16.9972  -49.6701 H         1 UNK         0.1150 
    139 H139        2.8995  -20.5646  -49.2780 H         1 UNK         0.0800 
    140 H140        4.3770  -19.6755  -49.0163 H         1 UNK         0.0800 
    141 H141        0.5994  -18.6909  -49.0487 H         1 UNK         0.0800 
    142 H142        0.2915  -18.1354  -47.4220 H         1 UNK         0.0800 
    143 H143        0.7921  -21.0421  -48.2005 H         1 UNK         0.0600 
    144 H144        0.7351  -19.8982  -45.5883 H         1 UNK         0.3000 
    145 H145        0.0027  -23.0198  -43.9230 H         1 UNK         0.0600 
    146 H146        2.0523  -22.3147  -42.7351 H         1 UNK         0.0600 
    147 H147        2.4565  -22.8951  -44.3435 H         1 UNK         0.0600 
    148 H148        2.4407  -21.1678  -44.0150 H         1 UNK         0.0600 
    149 H149        0.3400  -20.4133  -42.8589 H         1 UNK         0.3000 
    150 H150       -3.1299  -19.4465  -42.9916 H         1 UNK         0.0600 
    151 H151       -2.8050  -20.8803  -40.9689 H         1 UNK         0.0600 
    152 H152       -2.6820  -19.1718  -40.5770 H         1 UNK         0.0600 
    153 H153       -1.2248  -20.1548  -40.6991 H         1 UNK         0.0600 
    154 H154       -0.8940  -18.0404  -41.9876 H         1 UNK         0.3000 
    155 H155        0.0412  -16.3647  -45.0327 H         1 UNK         0.0600 
    156 H156       -1.2221  -15.5566  -42.3546 H         1 UNK         0.0600 
    157 H157       -1.7456  -15.0518  -43.9560 H         1 UNK         0.0600 
    158 H158       -0.1941  -14.5171  -43.3265 H         1 UNK         0.0600 
    159 H159        1.2697  -16.2787  -42.5067 H         1 UNK         0.3000 
    160 H160        3.4969  -19.0774  -42.8727 H         1 UNK         0.0600 
    161 H161        3.8432  -16.0323  -42.7854 H         1 UNK         0.0600 
    162 H162        4.5451  -17.1232  -43.9677 H         1 UNK         0.0600 
    163 H163        5.0504  -17.2152  -42.2877 H         1 UNK         0.0600 
    164 H164        2.9349  -17.2175  -40.7439 H         1 UNK         0.3000 
    165 H165        0.5986  -19.2744  -39.0099 H         1 UNK         0.0600 
    166 H166        2.2894  -19.0398  -37.2115 H         1 UNK         0.0600 
    167 H167        2.8323  -20.2140  -38.3992 H         1 UNK         0.0600 
    168 H168        3.5257  -18.5967  -38.3890 H         1 UNK         0.0600 
    169 H169        1.8506  -16.7726  -38.3900 H         1 UNK         0.3000 
    170 H170       -0.5223  -14.6618  -40.0000 H         1 UNK         0.0600 
    171 H171       -1.5744  -15.3023  -37.8245 H         1 UNK         0.0600 
    172 H172       -0.0033  -15.2450  -37.0343 H         1 UNK         0.0600 
    173 H173       -0.7178  -13.7746  -37.6967 H         1 UNK         0.0600 
    174 H174        1.7247  -14.0448  -38.3847 H         1 UNK         0.3000 
    175 H175        3.4381  -12.8106  -39.6199 H         1 UNK         0.0600 
    176 H176        4.6879  -15.6119  -39.9809 H         1 UNK         0.0600 
    177 H177        5.5282  -14.2015  -39.3436 H         1 UNK         0.0600 
    178 H178        4.2009  -14.9107  -38.4409 H         1 UNK         0.0600 
    179 H179        3.5429  -13.9610  -42.2333 H         1 UNK         0.3000 
    180 H180        5.2835  -11.2862  -43.5935 H         1 UNK         0.0600 
    181 H181        6.3176  -14.1732  -43.6948 H         1 UNK         0.0600 
    182 H182        7.2805  -12.7587  -43.2847 H         1 UNK         0.0600 
    183 H183        6.6185  -12.9225  -44.9030 H         1 UNK         0.0600 
    184 H184        4.1767  -13.6202  -44.8005 H         1 UNK         0.3000 
    185 H185        1.6540  -13.9604  -44.7918 H         1 UNK         0.0600 
    186 H186        0.0006  -12.1966  -44.0377 H         1 UNK         0.0600 
    187 H187        0.3939  -11.2368  -45.4589 H         1 UNK         0.0600 
    188 H188       -0.3765  -12.8125  -45.6366 H         1 UNK         0.0600 
    189 H189        2.9441  -12.2101  -46.7213 H         1 UNK         0.3000 
    190 H190       -1.9039  -19.6068  -46.3054 H         1 UNK         0.3000 
    191 H191       -3.8822  -19.8277  -48.3343 H         1 UNK         0.0600 
    192 H192       -4.1717  -19.8955  -45.2864 H         1 UNK         0.0600 
    193 H193       -5.4860  -19.6500  -46.4299 H         1 UNK         0.0600 
    194 H194       -4.2026  -18.4568  -46.3034 H         1 UNK         0.0600 
    195 H195       -2.7828  -22.1762  -45.8512 H         1 UNK         0.3000 
    196 H196       -4.6243  -24.2473  -46.5070 H         1 UNK         0.0600 
    197 H197       -3.0450  -25.6959  -45.2318 H         1 UNK         0.0600 
    198 H198       -3.3777  -24.1999  -44.3727 H         1 UNK         0.0600 
    199 H199       -1.8481  -24.4075  -45.2207 H         1 UNK         0.0600 
    200 H200       -1.2891  -23.5695  -47.6849 H         1 UNK         0.3000 
    201 H201       -1.0668  -25.7671  -49.4592 H         1 UNK         0.0600 
    202 H202        0.8638  -24.3818  -48.7205 H         1 UNK         0.0600 
    203 H203        0.2407  -22.9990  -49.6182 H         1 UNK         0.0600 
    204 H204        0.7749  -24.4372  -50.4753 H         1 UNK         0.0600 
    205 H205       -2.4059  -22.4982  -49.9580 H         1 UNK         0.3000 
    206 H206       -3.1280  -22.8559  -52.7245 H         1 UNK         0.0600 
    207 H207       -2.7456  -20.6256  -51.5986 H         1 UNK         0.0600 
    208 H208       -4.3227  -20.7154  -52.3623 H         1 UNK         0.0600 
    209 H209       -4.1826  -20.8860  -50.6181 H         1 UNK         0.0600 
    210 H210       -4.4576  -24.2179  -49.9187 H         1 UNK         0.3000 
    211 H211       -6.3188  -25.2192  -49.2912 H         1 UNK         0.0600 
    212 H212       -6.9435  -25.5262  -52.2787 H         1 UNK         0.0600 
    213 H213       -7.6233  -26.4803  -50.9695 H         1 UNK         0.0600 
    214 H214       -5.9103  -26.6012  -51.3409 H         1 UNK         0.0600 
    215 H215       -6.4243  -22.5364  -49.0452 H         1 UNK         0.3000 
    216 H216       -7.6527  -20.7150  -48.7902 H         1 UNK         0.0600 
    217 H217      -10.0536  -20.8996  -48.2759 H         1 UNK         0.0600 
    218 H218       -9.1921  -22.2330  -47.5256 H         1 UNK         0.0600 
    219 H219      -10.1346  -22.5028  -48.9911 H         1 UNK         0.0600 
    220 H220       -6.7071  -21.2783  -51.3014 H         1 UNK         0.3000 
    221 H221       -6.5239  -20.4131  -53.2964 H         1 UNK         0.0600 
    222 H222       -9.1195  -18.8371  -52.9493 H         1 UNK         0.0600 
    223 H223       -7.5236  -18.2761  -52.4460 H         1 UNK         0.0600 
    224 H224       -7.8625  -18.5641  -54.1435 H         1 UNK         0.0600 
    225 H225       -8.6609  -22.7392  -52.5153 H         1 UNK         0.3000 
    226 H226      -10.1162  -23.0604  -54.9807 H         1 UNK         0.0600 
    227 H227      -10.7924  -24.1013  -52.7831 H         1 UNK         0.0600 
    228 H228      -10.6859  -25.2644  -54.0966 H         1 UNK         0.0600 
    229 H229       -9.4053  -25.1863  -52.8989 H         1 UNK         0.0600 
    230 H230       -6.8318  -23.8195  -53.9931 H         1 UNK         0.3000 
    231 H231       -6.2983  -25.2806  -56.5497 H         1 UNK         0.0600 
    232 H232       -5.7388  -26.5255  -54.4274 H         1 UNK         0.0600 
    233 H233       -4.6461  -25.2211  -53.9695 H         1 UNK         0.0600 
    234 H234       -4.3245  -26.1787  -55.4069 H         1 UNK         0.0600 
    235 H235       -6.6587  -22.3178  -55.9490 H         1 UNK         0.3000 
    236 H236       -5.9463  -20.3449  -56.5492 H         1 UNK         0.0600 
    237 H237       -4.2862  -20.0765  -58.3891 H         1 UNK         0.0600 
    238 H238       -3.8824  -21.7844  -58.3030 H         1 UNK         0.0600 
    239 H239       -5.5021  -21.2835  -58.7737 H         1 UNK         0.0600 
    240 H240       -2.8044  -22.0215  -56.3797 H         1 UNK         0.3000 
    241 H241       -2.1361  -20.8418  -53.8642 H         1 UNK         0.0600 
    242 H242       -0.8622  -24.3740  -54.8755 H         1 UNK         0.3800 
    243 H243       -2.2859  -23.6171  -55.5353 H         1 UNK         0.3800 
    244 H244        0.0084  -20.1635  -55.8827 H         1 UNK         0.0800 
    245 H245       -1.4041  -19.1580  -55.8845 H         1 UNK         0.0800 
    246 H246        1.9347  -18.7662  -54.8251 H         1 UNK         0.0800 
    247 H247        1.7285  -20.2495  -53.9246 H         1 UNK         0.0800 
@<TRIPOS>BOND
     1    1    2 1    
     2    1  127 1    
     3    1  128 1    
     4    1  129 1    
     5    2    3 2    
     6    2    4 am   BACKBONE|DICT|INTERRES
     7    4    5 1    
     8    4  130 1    
     9    5    6 1    
    10    5   65 1    
    11    5  131 1    
    12    6    7 1    
    13    6  132 1    
    14    6  133 1    
    15    7    8 1    
    16    8    9 1    
    17    8  134 1    
    18    8  135 1    
    19    9   10 ar   
    20    9   14 ar   
    21   10   11 ar   
    22   10  136 1    
    23   11   12 ar   
    24   11  126 1    
    25   12   13 ar   
    26   12  137 1    
    27   13   14 ar   
    28   13   15 1    
    29   14  138 1    
    30   15   16 1    
    31   15  139 1    
    32   15  140 1    
    33   16   17 1    
    34   17   18 1    
    35   17  141 1    
    36   17  142 1    
    37   18   19 1    
    38   18   67 1    
    39   18  143 1    
    40   19   20 am   BACKBONE|DICT|INTERRES
    41   19  144 1    
    42   20   21 2    
    43   20   22 1    
    44   22   23 1    
    45   22   24 1    
    46   22  145 1    
    47   23  146 1    
    48   23  147 1    
    49   23  148 1    
    50   24   25 am   BACKBONE|DICT|INTERRES
    51   24  149 1    
    52   25   26 2    
    53   25   27 1    
    54   27   28 1    
    55   27   29 1    
    56   27  150 1    
    57   28  151 1    
    58   28  152 1    
    59   28  153 1    
    60   29   30 am   BACKBONE|DICT|INTERRES
    61   29  154 1    
    62   30   31 2    
    63   30   32 1    
    64   32   33 1    
    65   32   34 1    
    66   32  155 1    
    67   33  156 1    
    68   33  157 1    
    69   33  158 1    
    70   34   35 am   BACKBONE|DICT|INTERRES
    71   34  159 1    
    72   35   36 2    
    73   35   37 1    
    74   37   38 1    
    75   37   39 1    
    76   37  160 1    
    77   38  161 1    
    78   38  162 1    
    79   38  163 1    
    80   39   40 am   BACKBONE|DICT|INTERRES
    81   39  164 1    
    82   40   41 2    
    83   40   42 1    
    84   42   43 1    
    85   42   44 1    
    86   42  165 1    
    87   43  166 1    
    88   43  167 1    
    89   43  168 1    
    90   44   45 am   BACKBONE|DICT|INTERRES
    91   44  169 1    
    92   45   46 2    
    93   45   47 1    
    94   47   48 1    
    95   47   49 1    
    96   47  170 1    
    97   48  171 1    
    98   48  172 1    
    99   48  173 1    
   100   49   50 am   BACKBONE|DICT|INTERRES
   101   49  174 1    
   102   50   51 2    
   103   50   52 1    
   104   52   53 1    
   105   52   54 1    
   106   52  175 1    
   107   53  176 1    
   108   53  177 1    
   109   53  178 1    
   110   54   55 am   BACKBONE|DICT|INTERRES
   111   54  179 1    
   112   55   56 2    
   113   55   57 1    
   114   57   58 1    
   115   57   59 1    
   116   57  180 1    
   117   58  181 1    
   118   58  182 1    
   119   58  183 1    
   120   59   60 am   BACKBONE|DICT|INTERRES
   121   59  184 1    
   122   60   61 2    
   123   60   62 1    
   124   62   63 1    
   125   62   64 1    
   126   62  185 1    
   127   63  186 1    
   128   63  187 1    
   129   63  188 1    
   130   64   65 am   BACKBONE|DICT|INTERRES
   131   64  189 1    
   132   65   66 2    
   133   67   68 2    
   134   67   69 am   BACKBONE|DICT|INTERRES
   135   69   70 1    
   136   69  190 1    
   137   70   71 1    
   138   70   72 1    
   139   70  191 1    
   140   71  192 1    
   141   71  193 1    
   142   71  194 1    
   143   72   73 2    
   144   72   74 am   BACKBONE|DICT|INTERRES
   145   74   75 1    
   146   74  195 1    
   147   75   76 1    
   148   75   77 1    
   149   75  196 1    
   150   76  197 1    
   151   76  198 1    
   152   76  199 1    
   153   77   78 2    
   154   77   79 am   BACKBONE|DICT|INTERRES
   155   79   80 1    
   156   79  200 1    
   157   80   81 1    
   158   80   82 1    
   159   80  201 1    
   160   81  202 1    
   161   81  203 1    
   162   81  204 1    
   163   82   83 2    
   164   82   84 am   BACKBONE|DICT|INTERRES
   165   84   85 1    
   166   84  205 1    
   167   85   86 1    
   168   85   87 1    
   169   85  206 1    
   170   86  207 1    
   171   86  208 1    
   172   86  209 1    
   173   87   88 2    
   174   87   89 am   BACKBONE|DICT|INTERRES
   175   89   90 1    
   176   89  210 1    
   177   90   91 1    
   178   90   92 1    
   179   90  211 1    
   180   91  212 1    
   181   91  213 1    
   182   91  214 1    
   183   92   93 2    
   184   92   94 am   BACKBONE|DICT|INTERRES
   185   94   95 1    
   186   94  215 1    
   187   95   96 1    
   188   95   97 1    
   189   95  216 1    
   190   96  217 1    
   191   96  218 1    
   192   96  219 1    
   193   97   98 2    
   194   97   99 am   BACKBONE|DICT|INTERRES
   195   99  100 1    
   196   99  220 1    
   197  100  101 1    
   198  100  102 1    
   199  100  221 1    
   200  101  222 1    
   201  101  223 1    
   202  101  224 1    
   203  102  103 2    
   204  102  104 am   BACKBONE|DICT|INTERRES
   205  104  105 1    
   206  104  225 1    
   207  105  106 1    
   208  105  107 1    
   209  105  226 1    
   210  106  227 1    
   211  106  228 1    
   212  106  229 1    
   213  107  108 2    
   214  107  109 am   BACKBONE|DICT|INTERRES
   215  109  110 1    
   216  109  230 1    
   217  110  111 1    
   218  110  112 1    
   219  110  231 1    
   220  111  232 1    
   221  111  233 1    
   222  111  234 1    
   223  112  113 2    
   224  112  114 am   BACKBONE|DICT|INTERRES
   225  114  115 1    
   226  114  235 1    
   227  115  116 1    
   228  115  117 1    
   229  115  236 1    
   230  116  237 1    
   231  116  238 1    
   232  116  239 1    
   233  117  118 2    
   234  117  119 am   BACKBONE|DICT|INTERRES
   235  119  120 1    
   236  119  240 1    
   237  120  121 1    
   238  120  124 1    
   239  120  241 1    
   240  121  122 am   BACKBONE|DICT|INTERRES
   241  121  123 2    
   242  122  242 1    
   243  122  243 1    
   244  124  125 1    
   245  124  244 1    
   246  124  245 1    
   247  125  126 1    
   248  126  246 1    
   249  126  247 1    
@<TRIPOS>SUBSTRUCTURE
     1 UNK         1 GROUP             0       ****    0 ROOT    
