@<TRIPOS>MOLECULE
3R540
247   249    1
SMALL
USER_CHARGES


@<TRIPOS>ATOM
      1 CA          1.6318  -15.5377  -52.5680 C.3       0 UNK        -0.1800 
      2 C           1.3759  -15.4657  -51.0698 C.2       0 UNK         0.5000 
      3 O           2.2812  -15.7273  -50.2791 O.2       0 UNK        -0.5000 
      4 N           0.1501  -15.0973  -50.6762 N.am      1 UNK        -0.5000 
      5 CA         -0.3304  -15.0944  -49.2863 C.3       1 UNK         0.1400 
      6 C6         -1.8752  -15.2271  -49.1891 C.3       23 UNK        -0.0398 
      7 S7         -2.6420  -16.4596  -50.3026 S.3       23 UNK        -0.2404 
      8 C8         -2.1774  -18.0517  -49.5507 C.3       23 UNK        -0.0205 
      9 C9         -0.9106  -18.6161  -50.1751 C.ar      23 UNK        -0.0193 
     10 C10        -0.9365  -19.1203  -51.4792 C.ar      23 UNK        -0.1150 
     11 C11         0.2307  -19.6027  -52.0783 C.ar      23 UNK        -0.0193 
     12 C12         1.4269  -19.5920  -51.3585 C.ar      23 UNK        -0.1150 
     13 C13         1.4650  -19.0939  -50.0541 C.ar      23 UNK        -0.0193 
     14 C14         0.2905  -18.6206  -49.4621 C.ar      23 UNK        -0.1150 
     15 C15         2.7896  -19.0216  -49.3136 C.3       23 UNK        -0.0205 
     16 S16         3.1666  -20.5722  -48.4458 S.3       23 UNK        -0.2404 
     17 C17         2.1572  -20.3849  -46.9409 C.3       23 UNK        -0.0398 
     18 CA          1.3842  -21.6671  -46.5641 C.3       11 UNK         0.1400 
     19 N           1.0468  -21.6732  -45.1418 N.am      11 UNK        -0.5000 
     20 C           0.6474  -22.7498  -44.4556 C.2       10 UNK         0.5000 
     21 O           0.5423  -23.8725  -44.9488 O.2       10 UNK        -0.5000 
     22 CA          0.2629  -22.5203  -42.9826 C.3       10 UNK         0.1400 
     23 CB          1.5134  -22.4657  -42.0928 C.3       10 UNK        -0.1800 
     24 N          -0.5296  -21.3030  -42.7942 N.am      10 UNK        -0.5000 
     25 C          -1.7540  -21.1193  -43.3087 C.2       9 UNK         0.5000 
     26 O          -2.3540  -21.9748  -43.9591 O.2       9 UNK        -0.5000 
     27 CA         -2.4043  -19.7409  -43.0970 C.3       9 UNK         0.1400 
     28 CB         -3.0051  -19.6356  -41.6877 C.3       9 UNK        -0.1800 
     29 N          -1.4779  -18.6313  -43.3275 N.am      9 UNK        -0.5000 
     30 C          -0.9060  -18.3518  -44.5086 C.2       8 UNK         0.5000 
     31 O          -1.1175  -18.9847  -45.5405 O.2       8 UNK        -0.5000 
     32 CA          0.1208  -17.2091  -44.5368 C.3       8 UNK         0.1400 
     33 CB         -0.5800  -15.8426  -44.5532 C.3       8 UNK        -0.1800 
     34 N           1.0508  -17.2742  -43.4130 N.am      8 UNK        -0.5000 
     35 C           1.8848  -18.2897  -43.1546 C.2       7 UNK         0.5000 
     36 O           1.9939  -19.2873  -43.8655 O.2       7 UNK        -0.5000 
     37 CA          2.6925  -18.1966  -41.8512 C.3       7 UNK         0.1400 
     38 CB          3.8997  -17.2599  -42.0156 C.3       7 UNK        -0.1800 
     39 N           1.8649  -17.7452  -40.7333 N.am      7 UNK        -0.5000 
     40 C           0.8851  -18.4685  -40.1742 C.2       6 UNK         0.5000 
     41 O           0.5870  -19.6094  -40.5295 O.2       6 UNK        -0.5000 
     42 CA          0.0864  -17.7873  -39.0477 C.3       6 UNK         0.1400 
     43 CB          0.8386  -17.8874  -37.7121 C.3       6 UNK        -0.1800 
     44 N          -0.2128  -16.3823  -39.3331 N.am      6 UNK        -0.5000 
     45 C          -1.0529  -15.9769  -40.2948 C.2       5 UNK         0.5000 
     46 O          -1.6595  -16.7451  -41.0411 O.2       5 UNK        -0.5000 
     47 CA         -1.2121  -14.4560  -40.4850 C.3       5 UNK         0.1400 
     48 CB         -2.1691  -13.8779  -39.4313 C.3       5 UNK        -0.1800 
     49 N           0.0385  -13.6850  -40.4822 N.am      5 UNK        -0.5000 
     50 C           1.1132  -13.9506  -41.2363 C.2       4 UNK         0.5000 
     51 O           1.2585  -14.9895  -41.8799 O.2       4 UNK        -0.5000 
     52 CA          2.2241  -12.8847  -41.2873 C.3       4 UNK         0.1400 
     53 CB          3.2664  -13.1500  -40.1908 C.3       4 UNK        -0.1800 
     54 N           2.8934  -12.8907  -42.5926 N.am      4 UNK        -0.5000 
     55 C           2.2847  -12.6192  -43.7555 C.2       3 UNK         0.5000 
     56 O           1.1426  -12.1548  -43.8353 O.2       3 UNK        -0.5000 
     57 CA          3.0724  -12.9417  -45.0369 C.3       3 UNK         0.1400 
     58 CB          3.4274  -14.4403  -45.1267 C.3       3 UNK        -0.1800 
     59 N           2.2589  -12.5649  -46.1872 N.am      3 UNK        -0.5000 
     60 C           2.6976  -12.2355  -47.4032 C.2       2 UNK         0.5000 
     61 O           3.8864  -12.2479  -47.7291 O.2       2 UNK        -0.5000 
     62 CA          1.6114  -11.8451  -48.4269 C.3       2 UNK         0.1400 
     63 CB          2.1587  -10.9334  -49.5394 C.3       2 UNK        -0.1800 
     64 N           1.0081  -13.0244  -49.0458 N.am      2 UNK        -0.5000 
     65 C           0.1671  -13.8854  -48.4561 C.2       1 UNK         0.5000 
     66 O          -0.2406  -13.7418  -47.3030 O.2       1 UNK        -0.5000 
     67 C           0.1438  -21.9177  -47.4517 C.2       11 UNK         0.5000 
     68 O           0.2338  -22.6884  -48.4067 O.2       11 UNK        -0.5000 
     69 N          -1.0103  -21.3384  -47.0848 N.am      12 UNK        -0.5000 
     70 CA         -2.3058  -21.6036  -47.7145 C.3       12 UNK         0.1400 
     71 CB         -3.3809  -20.6661  -47.1441 C.3       12 UNK        -0.1800 
     72 C          -2.7457  -23.0686  -47.5555 C.2       12 UNK         0.5000 
     73 O          -3.2183  -23.6626  -48.5230 O.2       12 UNK        -0.5000 
     74 N          -2.5522  -23.6382  -46.3571 N.am      13 UNK        -0.5000 
     75 CA         -2.8117  -25.0480  -46.0626 C.3       13 UNK         0.1400 
     76 CB         -2.6890  -25.3006  -44.5528 C.3       13 UNK        -0.1800 
     77 C          -1.8987  -25.9957  -46.8625 C.2       13 UNK         0.5000 
     78 O          -2.3837  -26.9997  -47.3835 O.2       13 UNK        -0.5000 
     79 N          -0.6143  -25.6357  -47.0035 N.am      14 UNK        -0.5000 
     80 CA          0.3582  -26.3365  -47.8486 C.3       14 UNK         0.1400 
     81 CB          1.7657  -25.7789  -47.5892 C.3       14 UNK        -0.1800 
     82 C           0.0066  -26.2742  -49.3500 C.2       14 UNK         0.5000 
     83 O           0.2376  -27.2468  -50.0685 O.2       14 UNK        -0.5000 
     84 N          -0.5942  -25.1573  -49.7833 N.am      15 UNK        -0.5000 
     85 CA         -1.1592  -24.9539  -51.1205 C.3       15 UNK         0.1400 
     86 CB         -1.2378  -23.4428  -51.4050 C.3       15 UNK        -0.1800 
     87 C          -2.5340  -25.6348  -51.3250 C.2       15 UNK         0.5000 
     88 O          -3.0895  -25.5333  -52.4191 O.2       15 UNK        -0.5000 
     89 N          -3.0510  -26.3160  -50.2897 N.am      16 UNK        -0.5000 
     90 CA         -4.3177  -27.0546  -50.2283 C.3       16 UNK         0.1400 
     91 CB         -4.3653  -28.1833  -51.2804 C.3       16 UNK        -0.1800 
     92 C          -5.5724  -26.1554  -50.2419 C.2       16 UNK         0.5000 
     93 O          -6.6480  -26.6206  -50.6248 O.2       16 UNK        -0.5000 
     94 N          -5.4197  -24.9056  -49.7779 N.am      17 UNK        -0.5000 
     95 CA         -6.4342  -23.8544  -49.6474 C.3       17 UNK         0.1400 
     96 CB         -7.5114  -24.2724  -48.6231 C.3       17 UNK        -0.1800 
     97 C          -7.0409  -23.3993  -50.9936 C.2       17 UNK         0.5000 
     98 O          -6.5895  -23.8207  -52.0606 O.2       17 UNK        -0.5000 
     99 N          -8.0277  -22.4932  -50.9155 N.am      18 UNK        -0.5000 
    100 CA        -8.8318  -21.8886  -51.9926 C.3       18 UNK         0.1400 
    101 CB        -9.6354  -22.9626  -52.7500 C.3       18 UNK        -0.1800 
    102 C         -8.0649  -20.9813  -52.9792 C.2       18 UNK         0.5000 
    103 O         -8.6247  -19.9858  -53.4418 O.2       18 UNK        -0.5000 
    104 N         -6.8087  -21.3217  -53.2817 N.am      19 UNK        -0.5000 
    105 CA        -5.8961  -20.6154  -54.1757 C.3       19 UNK         0.1400 
    106 CB        -4.7843  -21.5924  -54.5993 C.3       19 UNK        -0.1800 
    107 C         -5.3404  -19.3289  -53.5326 C.2       19 UNK         0.5000 
    108 O         -4.1482  -19.2486  -53.2304 O.2       19 UNK        -0.5000 
    109 N         -6.2179  -18.3379  -53.3302 N.am      20 UNK        -0.5000 
    110 CA        -5.8792  -16.9917  -52.8676 C.3       20 UNK         0.1400 
    111 CB        -7.1680  -16.1765  -52.6872 C.3       20 UNK        -0.1800 
    112 C         -4.9218  -16.3018  -53.8564 C.2       20 UNK         0.5000 
    113 O         -5.2125  -16.2607  -55.0551 O.2       20 UNK        -0.5000 
    114 N         -3.7680  -15.8495  -53.3457 N.am      21 UNK        -0.5000 
    115 CA        -2.6183  -15.3221  -54.0953 C.3       21 UNK         0.1400 
    116 CB        -2.9575  -13.9514  -54.7155 C.3       21 UNK        -0.1800 
    117 C         -2.0478  -16.3237  -55.1278 C.2       21 UNK         0.5000 
    118 O         -1.4604  -15.9114  -56.1292 O.2       21 UNK        -0.5000 
    119 N         -2.2558  -17.6208  -54.8655 N.am      22 UNK        -0.5000 
    120 CA        -1.9548  -18.7631  -55.7403 C.3       22 UNK         0.1400 
    121 C         -2.8593  -18.8590  -57.0071 C.2       22 UNK         0.5000 
    122 N         -3.9780  -18.1455  -57.0861 N.am      22 UNK        -0.7600 
    123 O         -2.5639  -19.6197  -57.9246 O.2       22 UNK        -0.5000 
    124 C124       -0.4420  -18.9483  -56.0609 C.3       23 UNK        -0.0398 
    125 S125        0.6834  -18.7322  -54.6365 S.3       23 UNK        -0.2404 
    126 C126        0.2127  -20.0897  -53.5170 C.3       23 UNK        -0.0205 
    127 H127        2.3764  -14.7974  -52.8599 H         1 UNK         0.0600 
    128 H128        0.7249  -15.3596  -53.1458 H         1 UNK         0.0600 
    129 H129        2.0094  -16.5257  -52.8314 H         1 UNK         0.0600 
    130 H130       -0.5491  -14.8805  -51.3701 H         1 UNK         0.3000 
    131 H131        0.0951  -15.9672  -48.7924 H         1 UNK         0.0600 
    132 H132       -2.1706  -15.4614  -48.1648 H         1 UNK         0.0800 
    133 H133       -2.3450  -14.2692  -49.4196 H         1 UNK         0.0800 
    134 H134       -2.0627  -17.9333  -48.4724 H         1 UNK         0.0800 
    135 H135       -2.9919  -18.7617  -49.7011 H         1 UNK         0.0800 
    136 H136       -1.8615  -19.1108  -52.0368 H         1 UNK         0.1150 
    137 H137        2.3354  -19.9472  -51.8241 H         1 UNK         0.1150 
    138 H138        0.3149  -18.2288  -48.4563 H         1 UNK         0.1150 
    139 H139        3.5909  -18.8143  -50.0244 H         1 UNK         0.0800 
    140 H140        2.7926  -18.1860  -48.6116 H         1 UNK         0.0800 
    141 H141        1.4846  -19.5305  -47.0083 H         1 UNK         0.0800 
    142 H142        2.8649  -20.1371  -46.1495 H         1 UNK         0.0800 
    143 H143        2.0587  -22.5123  -46.7185 H         1 UNK         0.0600 
    144 H144        1.1543  -20.7906  -44.6479 H         1 UNK         0.3000 
    145 H145       -0.3447  -23.3692  -42.6625 H         1 UNK         0.0600 
    146 H146        1.2432  -22.3855  -41.0397 H         1 UNK         0.0600 
    147 H147        2.1143  -23.3688  -42.2072 H         1 UNK         0.0600 
    148 H148        2.1480  -21.6141  -42.3396 H         1 UNK         0.0600 
    149 H149       -0.1110  -20.5658  -42.2369 H         1 UNK         0.3000 
    150 H150       -3.2186  -19.6470  -43.8182 H         1 UNK         0.0600 
    151 H151       -3.6944  -20.4583  -41.4930 H         1 UNK         0.0600 
    152 H152       -3.5652  -18.7082  -41.5677 H         1 UNK         0.0600 
    153 H153       -2.2336  -19.6623  -40.9174 H         1 UNK         0.0600 
    154 H154       -1.2801  -18.0341  -42.5305 H         1 UNK         0.3000 
    155 H155        0.7036  -17.3048  -45.4552 H         1 UNK         0.0600 
    156 H156       -1.1603  -15.6760  -43.6454 H         1 UNK         0.0600 
    157 H157       -1.2619  -15.7634  -45.4008 H         1 UNK         0.0600 
    158 H158        0.1392  -15.0282  -44.6404 H         1 UNK         0.0600 
    159 H159        1.0524  -16.4759  -42.7783 H         1 UNK         0.3000 
    160 H160        3.0670  -19.1955  -41.6175 H         1 UNK         0.0600 
    161 H161        3.5945  -16.2366  -42.2349 H         1 UNK         0.0600 
    162 H162        4.5408  -17.5919  -42.8331 H         1 UNK         0.0600 
    163 H163        4.5089  -17.2407  -41.1119 H         1 UNK         0.0600 
    164 H164        1.9830  -16.7858  -40.4420 H         1 UNK         0.3000 
    165 H165       -0.8603  -18.3219  -38.9442 H         1 UNK         0.0600 
    166 H166        0.2435  -17.4820  -36.8936 H         1 UNK         0.0600 
    167 H167        1.0611  -18.9268  -37.4671 H         1 UNK         0.0600 
    168 H168        1.7852  -17.3464  -37.7395 H         1 UNK         0.0600 
    169 H169        0.2589  -15.6856  -38.7756 H         1 UNK         0.3000 
    170 H170       -1.6681  -14.3071  -41.4659 H         1 UNK         0.0600 
    171 H171       -3.1143  -14.4226  -39.4199 H         1 UNK         0.0600 
    172 H172       -1.7453  -13.9344  -38.4279 H         1 UNK         0.0600 
    173 H173       -2.4016  -12.8334  -39.6394 H         1 UNK         0.0600 
    174 H174        0.0190  -12.8188  -39.9637 H         1 UNK         0.3000 
    175 H175        1.7805  -11.8994  -41.1305 H         1 UNK         0.0600 
    176 H176        3.7392  -14.1257  -40.3122 H         1 UNK         0.0600 
    177 H177        4.0509  -12.3931  -40.2004 H         1 UNK         0.0600 
    178 H178        2.8081  -13.1285  -39.2012 H         1 UNK         0.0600 
    179 H179        3.8228  -13.2828  -42.6118 H         1 UNK         0.3000 
    180 H180        3.9870  -12.3455  -45.0285 H         1 UNK         0.0600 
    181 H181        2.5360  -15.0670  -45.0875 H         1 UNK         0.0600 
    182 H182        4.0789  -14.7459  -44.3079 H         1 UNK         0.0600 
    183 H183        3.9526  -14.6684  -46.0542 H         1 UNK         0.0600 
    184 H184        1.2626  -12.5387  -45.9975 H         1 UNK         0.3000 
    185 H185        0.8323  -11.2916  -47.8982 H         1 UNK         0.0600 
    186 H186        2.6244  -10.0413  -49.1185 H         1 UNK         0.0600 
    187 H187        2.9090  -11.4408  -50.1471 H         1 UNK         0.0600 
    188 H188        1.3608  -10.5999  -50.2031 H         1 UNK         0.0600 
    189 H189        1.3165  -13.2455  -49.9809 H         1 UNK         0.3000 
    190 H190       -1.0090  -20.6624  -46.3248 H         1 UNK         0.3000 
    191 H191       -2.2026  -21.3946  -48.7813 H         1 UNK         0.0600 
    192 H192       -3.1059  -19.6204  -47.2638 H         1 UNK         0.0600 
    193 H193       -4.3337  -20.8116  -47.6545 H         1 UNK         0.0600 
    194 H194       -3.5488  -20.8418  -46.0818 H         1 UNK         0.0600 
    195 H195       -2.2169  -23.0642  -45.5889 H         1 UNK         0.3000 
    196 H196       -3.8422  -25.2607  -46.3550 H         1 UNK         0.0600 
    197 H197       -2.9157  -26.3399  -44.3121 H         1 UNK         0.0600 
    198 H198       -3.3856  -24.6772  -43.9921 H         1 UNK         0.0600 
    199 H199       -1.6848  -25.0909  -44.1860 H         1 UNK         0.0600 
    200 H200       -0.2774  -24.8245  -46.4936 H         1 UNK         0.3000 
    201 H201        0.3535  -27.3878  -47.5536 H         1 UNK         0.0600 
    202 H202        2.0336  -25.8574  -46.5354 H         1 UNK         0.0600 
    203 H203        1.8456  -24.7313  -47.8775 H         1 UNK         0.0600 
    204 H204        2.5139  -26.3320  -48.1581 H         1 UNK         0.0600 
    205 H205       -0.6749  -24.3759  -49.1408 H         1 UNK         0.3000 
    206 H206       -0.4762  -25.3937  -51.8499 H         1 UNK         0.0600 
    207 H207       -0.2647  -22.9653  -51.2859 H         1 UNK         0.0600 
    208 H208       -1.5689  -23.2506  -52.4262 H         1 UNK         0.0600 
    209 H209       -1.9373  -22.9414  -50.7371 H         1 UNK         0.0600 
    210 H210       -2.5238  -26.3188  -49.4252 H         1 UNK         0.3000 
    211 H211       -4.3226  -27.5362  -49.2499 H         1 UNK         0.0600 
    212 H212       -4.4646  -27.7916  -52.2928 H         1 UNK         0.0600 
    213 H213       -5.2141  -28.8450  -51.1047 H         1 UNK         0.0600 
    214 H214       -3.4651  -28.7967  -51.2425 H         1 UNK         0.0600 
    215 H215       -4.4876  -24.6210  -49.4845 H         1 UNK         0.3000 
    216 H216       -5.9070  -22.9894  -49.2424 H         1 UNK         0.0600 
    217 H217       -8.1503  -23.4331  -48.3480 H         1 UNK         0.0600 
    218 H218       -7.0561  -24.6383  -47.7026 H         1 UNK         0.0600 
    219 H219       -8.1568  -25.0605  -49.0124 H         1 UNK         0.0600 
    220 H220       -8.2837  -22.1786  -49.9901 H         1 UNK         0.3000 
    221 H221       -9.5522  -21.2432  -51.4876 H         1 UNK         0.0600 
    222 H222       -8.9865  -23.6468  -53.2974 H         1 UNK         0.0600 
    223 H223      -10.2456  -23.5533  -52.0668 H         1 UNK         0.0600 
    224 H224      -10.3097  -22.5050  -53.4749 H         1 UNK         0.0600 
    225 H225       -6.4635  -22.1870  -52.8735 H         1 UNK         0.3000 
    226 H226       -6.4437  -20.3237  -55.0742 H         1 UNK         0.0600 
    227 H227       -5.2013  -22.4825  -55.0707 H         1 UNK         0.0600 
    228 H228       -4.1128  -21.1314  -55.3229 H         1 UNK         0.0600 
    229 H229       -4.1844  -21.9174  -53.7478 H         1 UNK         0.0600 
    230 H230       -7.1879  -18.5126  -53.5675 H         1 UNK         0.3000 
    231 H231       -5.3900  -17.0848  -51.8957 H         1 UNK         0.0600 
    232 H232       -6.9460  -15.1722  -52.3243 H         1 UNK         0.0600 
    233 H233       -7.8330  -16.6455  -51.9617 H         1 UNK         0.0600 
    234 H234       -7.7142  -16.0742  -53.6260 H         1 UNK         0.0600 
    235 H235       -3.6094  -15.9698  -52.3525 H         1 UNK         0.3000 
    236 H236       -1.8260  -15.1654  -53.3629 H         1 UNK         0.0600 
    237 H237       -3.3473  -13.2646  -53.9643 H         1 UNK         0.0600 
    238 H238       -2.0710  -13.4868  -55.1487 H         1 UNK         0.0600 
    239 H239       -3.7008  -14.0390  -55.5084 H         1 UNK         0.0600 
    240 H240       -2.7797  -17.8645  -54.0332 H         1 UNK         0.3000 
    241 H241       -2.2577  -19.6302  -55.1572 H         1 UNK         0.0600 
    242 H242       -4.5526  -18.2252  -57.9099 H         1 UNK         0.3800 
    243 H243       -4.2514  -17.5045  -56.3491 H         1 UNK         0.3800 
    244 H244       -0.2647  -19.9374  -56.4861 H         1 UNK         0.0800 
    245 H245       -0.1359  -18.2338  -56.8264 H         1 UNK         0.0800 
    246 H246        0.9105  -20.9187  -53.6436 H         1 UNK         0.0800 
    247 H247       -0.7730  -20.4851  -53.7580 H         1 UNK         0.0800 
@<TRIPOS>BOND
     1    1    2 1    
     2    1  127 1    
     3    1  128 1    
     4    1  129 1    
     5    2    3 2    
     6    2    4 am   BACKBONE|DICT|INTERRES
     7    4    5 1    
     8    4  130 1    
     9    5    6 1    
    10    5   65 1    
    11    5  131 1    
    12    6    7 1    
    13    6  132 1    
    14    6  133 1    
    15    7    8 1    
    16    8    9 1    
    17    8  134 1    
    18    8  135 1    
    19    9   10 ar   
    20    9   14 ar   
    21   10   11 ar   
    22   10  136 1    
    23   11   12 ar   
    24   11  126 1    
    25   12   13 ar   
    26   12  137 1    
    27   13   14 ar   
    28   13   15 1    
    29   14  138 1    
    30   15   16 1    
    31   15  139 1    
    32   15  140 1    
    33   16   17 1    
    34   17   18 1    
    35   17  141 1    
    36   17  142 1    
    37   18   19 1    
    38   18   67 1    
    39   18  143 1    
    40   19   20 am   BACKBONE|DICT|INTERRES
    41   19  144 1    
    42   20   21 2    
    43   20   22 1    
    44   22   23 1    
    45   22   24 1    
    46   22  145 1    
    47   23  146 1    
    48   23  147 1    
    49   23  148 1    
    50   24   25 am   BACKBONE|DICT|INTERRES
    51   24  149 1    
    52   25   26 2    
    53   25   27 1    
    54   27   28 1    
    55   27   29 1    
    56   27  150 1    
    57   28  151 1    
    58   28  152 1    
    59   28  153 1    
    60   29   30 am   BACKBONE|DICT|INTERRES
    61   29  154 1    
    62   30   31 2    
    63   30   32 1    
    64   32   33 1    
    65   32   34 1    
    66   32  155 1    
    67   33  156 1    
    68   33  157 1    
    69   33  158 1    
    70   34   35 am   BACKBONE|DICT|INTERRES
    71   34  159 1    
    72   35   36 2    
    73   35   37 1    
    74   37   38 1    
    75   37   39 1    
    76   37  160 1    
    77   38  161 1    
    78   38  162 1    
    79   38  163 1    
    80   39   40 am   BACKBONE|DICT|INTERRES
    81   39  164 1    
    82   40   41 2    
    83   40   42 1    
    84   42   43 1    
    85   42   44 1    
    86   42  165 1    
    87   43  166 1    
    88   43  167 1    
    89   43  168 1    
    90   44   45 am   BACKBONE|DICT|INTERRES
    91   44  169 1    
    92   45   46 2    
    93   45   47 1    
    94   47   48 1    
    95   47   49 1    
    96   47  170 1    
    97   48  171 1    
    98   48  172 1    
    99   48  173 1    
   100   49   50 am   BACKBONE|DICT|INTERRES
   101   49  174 1    
   102   50   51 2    
   103   50   52 1    
   104   52   53 1    
   105   52   54 1    
   106   52  175 1    
   107   53  176 1    
   108   53  177 1    
   109   53  178 1    
   110   54   55 am   BACKBONE|DICT|INTERRES
   111   54  179 1    
   112   55   56 2    
   113   55   57 1    
   114   57   58 1    
   115   57   59 1    
   116   57  180 1    
   117   58  181 1    
   118   58  182 1    
   119   58  183 1    
   120   59   60 am   BACKBONE|DICT|INTERRES
   121   59  184 1    
   122   60   61 2    
   123   60   62 1    
   124   62   63 1    
   125   62   64 1    
   126   62  185 1    
   127   63  186 1    
   128   63  187 1    
   129   63  188 1    
   130   64   65 am   BACKBONE|DICT|INTERRES
   131   64  189 1    
   132   65   66 2    
   133   67   68 2    
   134   67   69 am   BACKBONE|DICT|INTERRES
   135   69   70 1    
   136   69  190 1    
   137   70   71 1    
   138   70   72 1    
   139   70  191 1    
   140   71  192 1    
   141   71  193 1    
   142   71  194 1    
   143   72   73 2    
   144   72   74 am   BACKBONE|DICT|INTERRES
   145   74   75 1    
   146   74  195 1    
   147   75   76 1    
   148   75   77 1    
   149   75  196 1    
   150   76  197 1    
   151   76  198 1    
   152   76  199 1    
   153   77   78 2    
   154   77   79 am   BACKBONE|DICT|INTERRES
   155   79   80 1    
   156   79  200 1    
   157   80   81 1    
   158   80   82 1    
   159   80  201 1    
   160   81  202 1    
   161   81  203 1    
   162   81  204 1    
   163   82   83 2    
   164   82   84 am   BACKBONE|DICT|INTERRES
   165   84   85 1    
   166   84  205 1    
   167   85   86 1    
   168   85   87 1    
   169   85  206 1    
   170   86  207 1    
   171   86  208 1    
   172   86  209 1    
   173   87   88 2    
   174   87   89 am   BACKBONE|DICT|INTERRES
   175   89   90 1    
   176   89  210 1    
   177   90   91 1    
   178   90   92 1    
   179   90  211 1    
   180   91  212 1    
   181   91  213 1    
   182   91  214 1    
   183   92   93 2    
   184   92   94 am   BACKBONE|DICT|INTERRES
   185   94   95 1    
   186   94  215 1    
   187   95   96 1    
   188   95   97 1    
   189   95  216 1    
   190   96  217 1    
   191   96  218 1    
   192   96  219 1    
   193   97   98 2    
   194   97   99 am   BACKBONE|DICT|INTERRES
   195   99  100 1    
   196   99  220 1    
   197  100  101 1    
   198  100  102 1    
   199  100  221 1    
   200  101  222 1    
   201  101  223 1    
   202  101  224 1    
   203  102  103 2    
   204  102  104 am   BACKBONE|DICT|INTERRES
   205  104  105 1    
   206  104  225 1    
   207  105  106 1    
   208  105  107 1    
   209  105  226 1    
   210  106  227 1    
   211  106  228 1    
   212  106  229 1    
   213  107  108 2    
   214  107  109 am   BACKBONE|DICT|INTERRES
   215  109  110 1    
   216  109  230 1    
   217  110  111 1    
   218  110  112 1    
   219  110  231 1    
   220  111  232 1    
   221  111  233 1    
   222  111  234 1    
   223  112  113 2    
   224  112  114 am   BACKBONE|DICT|INTERRES
   225  114  115 1    
   226  114  235 1    
   227  115  116 1    
   228  115  117 1    
   229  115  236 1    
   230  116  237 1    
   231  116  238 1    
   232  116  239 1    
   233  117  118 2    
   234  117  119 am   BACKBONE|DICT|INTERRES
   235  119  120 1    
   236  119  240 1    
   237  120  121 1    
   238  120  124 1    
   239  120  241 1    
   240  121  122 am   BACKBONE|DICT|INTERRES
   241  121  123 2    
   242  122  242 1    
   243  122  243 1    
   244  124  125 1    
   245  124  244 1    
   246  124  245 1    
   247  125  126 1    
   248  126  246 1    
   249  126  247 1    
@<TRIPOS>SUBSTRUCTURE
     1 UNK         1 GROUP             0       ****    0 ROOT    
