@<TRIPOS>MOLECULE
3R540
247   249    1
SMALL
USER_CHARGES


@<TRIPOS>ATOM
      1 CA          5.6868  -11.7840  -47.0466 C.3       0 UNK        -0.1800 
      2 C           4.6653  -12.9056  -46.9355 C.2       0 UNK         0.5000 
      3 O           4.3104  -13.3047  -45.8258 O.2       0 UNK        -0.5000 
      4 N           4.1729  -13.4069  -48.0767 N.am      1 UNK        -0.5000 
      5 CA          3.1858  -14.4915  -48.1548 C.3       1 UNK         0.1400 
      6 C6          2.9867  -15.0251  -49.5951 C.3       23 UNK        -0.0398 
      7 S7          2.5248  -13.7571  -50.8318 S.3       23 UNK        -0.2404 
      8 C8          0.7061  -13.8872  -50.8933 C.3       23 UNK        -0.0205 
      9 C9          0.2273  -15.2129  -51.4648 C.ar      23 UNK        -0.0193 
     10 C10         0.2387  -15.4256  -52.8447 C.ar      23 UNK        -0.1150 
     11 C11        -0.2284  -16.6275  -53.3830 C.ar      23 UNK        -0.0193 
     12 C12        -0.7149  -17.6208  -52.5265 C.ar      23 UNK        -0.1150 
     13 C13        -0.7331  -17.4233  -51.1416 C.ar      23 UNK        -0.0193 
     14 C14        -0.2527  -16.2170  -50.6191 C.ar      23 UNK        -0.1150 
     15 C15        -1.2411  -18.5173  -50.2075 C.3       23 UNK        -0.0205 
     16 S16        -2.5341  -17.8914  -49.0807 S.3       23 UNK        -0.2404 
     17 C17        -2.9769  -19.2477  -47.9286 C.3       23 UNK        -0.0398 
     18 CA         -2.0086  -20.4475  -47.7717 C.3       11 UNK         0.1400 
     19 N          -0.6599  -20.0318  -47.3769 N.am      11 UNK        -0.5000 
     20 C           0.3895  -20.8496  -47.2157 C.2       10 UNK         0.5000 
     21 O           0.3302  -22.0713  -47.3686 O.2       10 UNK        -0.5000 
     22 CA          1.7157  -20.2095  -46.7581 C.3       10 UNK         0.1400 
     23 CB          1.7802  -18.6819  -46.9818 C.3       10 UNK        -0.1800 
     24 N           2.0385  -20.5366  -45.3628 N.am      10 UNK        -0.5000 
     25 C           1.2570  -20.3622  -44.2861 C.2       9 UNK         0.5000 
     26 O           0.1077  -19.9171  -44.3371 O.2       9 UNK        -0.5000 
     27 CA          1.8578  -20.7840  -42.9348 C.3       9 UNK         0.1400 
     28 CB          3.0766  -19.9308  -42.5395 C.3       9 UNK        -0.1800 
     29 N           0.8428  -20.6946  -41.8903 N.am      9 UNK        -0.5000 
     30 C           0.7559  -21.4886  -40.8185 C.2       8 UNK         0.5000 
     31 O           1.5554  -22.3973  -40.5855 O.2       8 UNK        -0.5000 
     32 CA         -0.3995  -21.2013  -39.8331 C.3       8 UNK         0.1400 
     33 CB         -0.3836  -22.1336  -38.6079 C.3       8 UNK        -0.1800 
     34 N          -0.3723  -19.8135  -39.3652 N.am      8 UNK        -0.5000 
     35 C          -0.8865  -18.7713  -40.0284 C.2       7 UNK         0.5000 
     36 O          -1.5009  -18.8951  -41.0898 O.2       7 UNK        -0.5000 
     37 CA         -0.6690  -17.3762  -39.4088 C.3       7 UNK         0.1400 
     38 CB          0.8033  -17.1446  -39.0192 C.3       7 UNK        -0.1800 
     39 N          -1.0472  -16.3562  -40.3807 N.am      7 UNK        -0.5000 
     40 C          -2.0920  -15.5244  -40.2946 C.2       6 UNK         0.5000 
     41 O          -2.8197  -15.4430  -39.3037 O.2       6 UNK        -0.5000 
     42 CA         -2.3851  -14.6297  -41.5190 C.3       6 UNK         0.1400 
     43 CB         -2.0073  -13.1679  -41.2333 C.3       6 UNK        -0.1800 
     44 N          -1.6891  -15.0765  -42.7272 N.am      6 UNK        -0.5000 
     45 C          -2.0691  -16.1196  -43.4782 C.2       5 UNK         0.5000 
     46 O          -3.1244  -16.7302  -43.3055 O.2       5 UNK        -0.5000 
     47 CA         -1.1190  -16.5656  -44.6076 C.3       5 UNK         0.1400 
     48 CB         -1.6507  -16.0966  -45.9697 C.3       5 UNK        -0.1800 
     49 N           0.2678  -16.1132  -44.4552 N.am      5 UNK        -0.5000 
     50 C           1.0996  -16.4791  -43.4695 C.2       4 UNK         0.5000 
     51 O           0.7788  -17.2267  -42.5494 O.2       4 UNK        -0.5000 
     52 CA          2.5067  -15.8535  -43.4721 C.3       4 UNK         0.1400 
     53 CB          3.4209  -16.5338  -44.5000 C.3       4 UNK        -0.1800 
     54 N           2.4726  -14.4142  -43.7263 N.am      4 UNK        -0.5000 
     55 C           1.9072  -13.5138  -42.9099 C.2       3 UNK         0.5000 
     56 O           1.4229  -13.7933  -41.8140 O.2       3 UNK        -0.5000 
     57 CA          1.8274  -12.0679  -43.4272 C.3       3 UNK         0.1400 
     58 CB          3.1333  -11.3077  -43.1504 C.3       3 UNK        -0.1800 
     59 N           1.5252  -12.0275  -44.8578 N.am      3 UNK        -0.5000 
     60 C           0.3236  -12.3094  -45.3820 C.2       2 UNK         0.5000 
     61 O          -0.6738  -12.5657  -44.7079 O.2       2 UNK        -0.5000 
     62 CA          0.2299  -12.3397  -46.9185 C.3       2 UNK         0.1400 
     63 CB         -0.0673  -10.9394  -47.4742 C.3       2 UNK        -0.1800 
     64 N           1.4463  -12.8581  -47.5452 N.am      2 UNK        -0.5000 
     65 C           1.8412  -14.1379  -47.4865 C.2       1 UNK         0.5000 
     66 O           1.2085  -15.0182  -46.9079 O.2       1 UNK        -0.5000 
     67 C          -2.6102  -21.4591  -46.7702 C.2       11 UNK         0.5000 
     68 O          -3.2701  -22.4094  -47.1897 O.2       11 UNK        -0.5000 
     69 N          -2.3411  -21.2569  -45.4719 N.am      12 UNK        -0.5000 
     70 CA         -2.8252  -22.1072  -44.3850 C.3       12 UNK         0.1400 
     71 CB         -2.8251  -21.3004  -43.0798 C.3       12 UNK        -0.1800 
     72 C          -2.0100  -23.4029  -44.2222 C.2       12 UNK         0.5000 
     73 O          -2.5217  -24.3561  -43.6358 O.2       12 UNK        -0.5000 
     74 N          -0.7750  -23.4327  -44.7453 N.am      13 UNK        -0.5000 
     75 CA          0.0393  -24.6470  -44.8233 C.3       13 UNK         0.1400 
     76 CB          1.5284  -24.2884  -44.9376 C.3       13 UNK        -0.1800 
     77 C          -0.4045  -25.5351  -45.9966 C.2       13 UNK         0.5000 
     78 O          -0.4594  -26.7560  -45.8458 O.2       13 UNK        -0.5000 
     79 N          -0.7344  -24.9049  -47.1338 N.am      14 UNK        -0.5000 
     80 CA         -1.2889  -25.5708  -48.3122 C.3       14 UNK         0.1400 
     81 CB         -1.2592  -24.6020  -49.5020 C.3       14 UNK        -0.1800 
     82 C          -2.7171  -26.0945  -48.0711 C.2       14 UNK         0.5000 
     83 O          -3.0277  -27.2117  -48.4831 O.2       14 UNK        -0.5000 
     84 N          -3.5387  -25.2693  -47.4046 N.am      15 UNK        -0.5000 
     85 CA         -4.9206  -25.5049  -46.9725 C.3       15 UNK         0.1400 
     86 CB         -4.9120  -26.4008  -45.7172 C.3       15 UNK        -0.1800 
     87 C          -5.8521  -26.0519  -48.0836 C.2       15 UNK         0.5000 
     88 O          -6.3513  -27.1703  -47.9581 O.2       15 UNK        -0.5000 
     89 N          -6.1002  -25.3196  -49.1781 N.am      16 UNK        -0.5000 
     90 CA         -5.6326  -23.9747  -49.5203 C.3       16 UNK         0.1400 
     91 CB         -6.7245  -22.9458  -49.1798 C.3       16 UNK        -0.1800 
     92 C          -5.2138  -23.9518  -51.0000 C.2       16 UNK         0.5000 
     93 O          -5.5196  -23.0015  -51.7211 O.2       16 UNK        -0.5000 
     94 N          -4.5221  -25.0173  -51.4320 N.am      17 UNK        -0.5000 
     95 CA         -4.1036  -25.2614  -52.8161 C.3       17 UNK         0.1400 
     96 CB         -3.3595  -26.6030  -52.8890 C.3       17 UNK        -0.1800 
     97 C          -3.2485  -24.1366  -53.4279 C.2       17 UNK         0.5000 
     98 O          -3.4163  -23.8237  -54.6056 O.2       17 UNK        -0.5000 
     99 N          -2.3843  -23.5194  -52.6099 N.am      18 UNK        -0.5000 
    100 CA        -1.5625  -22.3718  -52.9951 C.3       18 UNK         0.1400 
    101 CB        -0.5371  -22.0715  -51.8908 C.3       18 UNK        -0.1800 
    102 C         -2.4041  -21.1224  -53.3018 C.2       18 UNK         0.5000 
    103 O         -2.1172  -20.4262  -54.2733 O.2       18 UNK        -0.5000 
    104 N         -3.4403  -20.8757  -52.4871 N.am      19 UNK        -0.5000 
    105 CA        -4.3775  -19.7655  -52.6635 C.3       19 UNK         0.1400 
    106 CB        -5.2233  -19.5888  -51.3948 C.3       19 UNK        -0.1800 
    107 C         -5.2794  -19.9709  -53.8907 C.2       19 UNK         0.5000 
    108 O         -5.5385  -19.0120  -54.6167 O.2       19 UNK        -0.5000 
    109 N         -5.7007  -21.2233  -54.1214 N.am      20 UNK        -0.5000 
    110 CA        -6.4511  -21.6445  -55.3046 C.3       20 UNK         0.1400 
    111 CB        -6.9246  -23.0950  -55.1277 C.3       20 UNK        -0.1800 
    112 C         -5.6333  -21.4769  -56.5990 C.2       20 UNK         0.5000 
    113 O         -6.1404  -20.9123  -57.5696 O.2       20 UNK        -0.5000 
    114 N         -4.3627  -21.9073  -56.5694 N.am      21 UNK        -0.5000 
    115 CA        -3.3901  -21.7320  -57.6531 C.3       21 UNK         0.1400 
    116 CB        -2.1089  -22.5111  -57.3196 C.3       21 UNK        -0.1800 
    117 C         -3.0629  -20.2553  -57.9544 C.2       21 UNK         0.5000 
    118 O         -2.7250  -19.9319  -59.0938 O.2       21 UNK        -0.5000 
    119 N         -3.1983  -19.3881  -56.9430 N.am      22 UNK        -0.5000 
    120 CA        -3.1090  -17.9253  -57.0599 C.3       22 UNK         0.1400 
    121 C         -4.2995  -17.2579  -57.8168 C.2       22 UNK         0.5000 
    122 N         -5.3890  -17.9583  -58.1141 N.am      22 UNK        -0.7600 
    123 O         -4.2296  -16.0795  -58.1545 O.2       22 UNK        -0.5000 
    124 C124       -2.8613  -17.2573  -55.6755 C.3       23 UNK        -0.0398 
    125 S125       -1.5458  -15.9956  -55.7420 S.3       23 UNK        -0.2404 
    126 C126       -0.1799  -16.8466  -54.8884 C.3       23 UNK        -0.0205 
    127 H127        5.8868  -11.5191  -48.0851 H         1 UNK         0.0600 
    128 H128        6.6263  -12.0872  -46.5847 H         1 UNK         0.0600 
    129 H129        5.3238  -10.8948  -46.5313 H         1 UNK         0.0600 
    130 H130        4.4849  -13.0353  -48.9632 H         1 UNK         0.3000 
    131 H131        3.5993  -15.3187  -47.5748 H         1 UNK         0.0600 
    132 H132        3.9227  -15.4705  -49.9343 H         1 UNK         0.0800 
    133 H133        2.2694  -15.8457  -49.6049 H         1 UNK         0.0800 
    134 H134        0.3237  -13.0748  -51.5130 H         1 UNK         0.0800 
    135 H135        0.2817  -13.7256  -49.9029 H         1 UNK         0.0800 
    136 H136        0.6113  -14.6525  -53.5023 H         1 UNK         0.1150 
    137 H137       -1.0691  -18.5514  -52.9401 H         1 UNK         0.1150 
    138 H138       -0.2616  -16.0572  -49.5495 H         1 UNK         0.1150 
    139 H139       -1.6445  -19.3559  -50.7748 H         1 UNK         0.0800 
    140 H140       -0.3845  -18.8910  -49.6515 H         1 UNK         0.0800 
    141 H141       -3.9575  -19.6117  -48.2401 H         1 UNK         0.0800 
    142 H142       -3.1424  -18.7802  -46.9561 H         1 UNK         0.0800 
    143 H143       -1.9288  -20.9555  -48.7344 H         1 UNK         0.0600 
    144 H144       -0.5330  -19.0485  -47.1882 H         1 UNK         0.3000 
    145 H145        2.4933  -20.6635  -47.3740 H         1 UNK         0.0600 
    146 H146        1.5251  -18.4155  -48.0083 H         1 UNK         0.0600 
    147 H147        1.1099  -18.1357  -46.3180 H         1 UNK         0.0600 
    148 H148        2.7905  -18.3149  -46.8063 H         1 UNK         0.0600 
    149 H149        2.9511  -20.9471  -45.2246 H         1 UNK         0.3000 
    150 H150        2.1791  -21.8202  -43.0375 H         1 UNK         0.0600 
    151 H151        3.8447  -19.9421  -43.3131 H         1 UNK         0.0600 
    152 H152        3.5369  -20.3090  -41.6267 H         1 UNK         0.0600 
    153 H153        2.8008  -18.8927  -42.3601 H         1 UNK         0.0600 
    154 H154        0.1359  -19.9801  -42.0430 H         1 UNK         0.3000 
    155 H155       -1.3332  -21.3847  -40.3683 H         1 UNK         0.0600 
    156 H156        0.5275  -22.0134  -38.0205 H         1 UNK         0.0600 
    157 H157       -0.4453  -23.1796  -38.9109 H         1 UNK         0.0600 
    158 H158       -1.2329  -21.9376  -37.9531 H         1 UNK         0.0600 
    159 H159        0.1442  -19.6421  -38.5148 H         1 UNK         0.3000 
    160 H160       -1.2891  -17.3075  -38.5132 H         1 UNK         0.0600 
    161 H161        1.4746  -17.3191  -39.8614 H         1 UNK         0.0600 
    162 H162        1.1120  -17.8031  -38.2071 H         1 UNK         0.0600 
    163 H163        0.9615  -16.1216  -38.6769 H         1 UNK         0.0600 
    164 H164       -0.5532  -16.4238  -41.2650 H         1 UNK         0.3000 
    165 H165       -3.4608  -14.6678  -41.7030 H         1 UNK         0.0600 
    166 H166       -2.2072  -12.5312  -42.0955 H         1 UNK         0.0600 
    167 H167       -2.5848  -12.7737  -40.3963 H         1 UNK         0.0600 
    168 H168       -0.9531  -13.0654  -40.9775 H         1 UNK         0.0600 
    169 H169       -0.8206  -14.6107  -42.9513 H         1 UNK         0.3000 
    170 H170       -1.1148  -17.6561  -44.6038 H         1 UNK         0.0600 
    171 H171       -2.6788  -16.4244  -46.1268 H         1 UNK         0.0600 
    172 H172       -1.6373  -15.0095  -46.0505 H         1 UNK         0.0600 
    173 H173       -1.0530  -16.5007  -46.7863 H         1 UNK         0.0600 
    174 H174        0.6287  -15.5310  -45.2070 H         1 UNK         0.3000 
    175 H175        2.9389  -16.0100  -42.4815 H         1 UNK         0.0600 
    176 H176        3.0792  -16.3529  -45.5170 H         1 UNK         0.0600 
    177 H177        4.4435  -16.1643  -44.4224 H         1 UNK         0.0600 
    178 H178        3.4503  -17.6130  -44.3518 H         1 UNK         0.0600 
    179 H179        2.9035  -14.0877  -44.5849 H         1 UNK         0.3000 
    180 H180        1.0220  -11.5635  -42.8886 H         1 UNK         0.0600 
    181 H181        3.0633  -10.2710  -43.4802 H         1 UNK         0.0600 
    182 H182        3.9852  -11.7635  -43.6554 H         1 UNK         0.0600 
    183 H183        3.3554  -11.2947  -42.0826 H         1 UNK         0.0600 
    184 H184        2.3043  -11.8762  -45.4818 H         1 UNK         0.3000 
    185 H185       -0.6000  -12.9961  -47.1890 H         1 UNK         0.0600 
    186 H186       -0.2040  -10.9658  -48.5555 H         1 UNK         0.0600 
    187 H187       -0.9831  -10.5347  -47.0412 H         1 UNK         0.0600 
    188 H188        0.7384  -10.2380  -47.2539 H         1 UNK         0.0600 
    189 H189        2.0266  -12.1976  -48.0415 H         1 UNK         0.3000 
    190 H190       -1.7165  -20.5027  -45.2048 H         1 UNK         0.3000 
    191 H191       -3.8563  -22.3956  -44.6012 H         1 UNK         0.0600 
    192 H192       -3.2252  -21.8883  -42.2529 H         1 UNK         0.0600 
    193 H193       -3.4368  -20.4022  -43.1673 H         1 UNK         0.0600 
    194 H194       -1.8186  -20.9899  -42.8051 H         1 UNK         0.0600 
    195 H195       -0.4419  -22.6229  -45.2493 H         1 UNK         0.3000 
    196 H196       -0.0902  -25.2236  -43.9047 H         1 UNK         0.0600 
    197 H197        1.7299  -23.6228  -45.7763 H         1 UNK         0.0600 
    198 H198        1.8834  -23.8093  -44.0276 H         1 UNK         0.0600 
    199 H199        2.1342  -25.1843  -45.0801 H         1 UNK         0.0600 
    200 H200       -0.5914  -23.9027  -47.1951 H         1 UNK         0.3000 
    201 H201       -0.6516  -26.4246  -48.5522 H         1 UNK         0.0600 
    202 H202       -0.2463  -24.2438  -49.6865 H         1 UNK         0.0600 
    203 H203       -1.8963  -23.7328  -49.3340 H         1 UNK         0.0600 
    204 H204       -1.5983  -25.1016  -50.4089 H         1 UNK         0.0600 
    205 H205       -3.1900  -24.3404  -47.1866 H         1 UNK         0.3000 
    206 H206       -5.3248  -24.5360  -46.6760 H         1 UNK         0.0600 
    207 H207       -4.3211  -25.9531  -44.9187 H         1 UNK         0.0600 
    208 H208       -5.9212  -26.5455  -45.3299 H         1 UNK         0.0600 
    209 H209       -4.4938  -27.3859  -45.9273 H         1 UNK         0.0600 
    210 H210       -6.6912  -25.7361  -49.8837 H         1 UNK         0.3000 
    211 H211       -4.7402  -23.7012  -48.9644 H         1 UNK         0.0600 
    212 H212       -6.3798  -21.9300  -49.3751 H         1 UNK         0.0600 
    213 H213       -6.9976  -22.9941  -48.1257 H         1 UNK         0.0600 
    214 H214       -7.6279  -23.1086  -49.7686 H         1 UNK         0.0600 
    215 H215       -4.3403  -25.7619  -50.7738 H         1 UNK         0.3000 
    216 H216       -5.0103  -25.3434  -53.4184 H         1 UNK         0.0600 
    217 H217       -2.4613  -26.6019  -52.2705 H         1 UNK         0.0600 
    218 H218       -3.0533  -26.8249  -53.9123 H         1 UNK         0.0600 
    219 H219       -3.9942  -27.4247  -52.5568 H         1 UNK         0.0600 
    220 H220       -2.3080  -23.8414  -51.6582 H         1 UNK         0.3000 
    221 H221       -1.0169  -22.6349  -53.9039 H         1 UNK         0.0600 
    222 H222        0.1436  -22.9108  -51.7491 H         1 UNK         0.0600 
    223 H223       -1.0174  -21.8615  -50.9348 H         1 UNK         0.0600 
    224 H224        0.0719  -21.2039  -52.1486 H         1 UNK         0.0600 
    225 H225       -3.6682  -21.5470  -51.7686 H         1 UNK         0.3000 
    226 H226       -3.7982  -18.8519  -52.8141 H         1 UNK         0.0600 
    227 H227       -5.8932  -20.4322  -51.2306 H         1 UNK         0.0600 
    228 H228       -4.5946  -19.4835  -50.5135 H         1 UNK         0.0600 
    229 H229       -5.8401  -18.6921  -51.4635 H         1 UNK         0.0600 
    230 H230       -5.4809  -21.9384  -53.4354 H         1 UNK         0.3000 
    231 H231       -7.3343  -21.0072  -55.3823 H         1 UNK         0.0600 
    232 H232       -6.0877  -23.7890  -55.0558 H         1 UNK         0.0600 
    233 H233       -7.5383  -23.4091  -55.9727 H         1 UNK         0.0600 
    234 H234       -7.5283  -23.2057  -54.2266 H         1 UNK         0.0600 
    235 H235       -4.0330  -22.4069  -55.7478 H         1 UNK         0.3000 
    236 H236       -3.8233  -22.1614  -58.5586 H         1 UNK         0.0600 
    237 H237       -1.6450  -22.1468  -56.4027 H         1 UNK         0.0600 
    238 H238       -2.3157  -23.5736  -57.1912 H         1 UNK         0.0600 
    239 H239       -1.3738  -22.4175  -58.1198 H         1 UNK         0.0600 
    240 H240       -3.4354  -19.7519  -56.0298 H         1 UNK         0.3000 
    241 H241       -2.2352  -17.7407  -57.6877 H         1 UNK         0.0600 
    242 H242       -6.1438  -17.5091  -58.6077 H         1 UNK         0.3800 
    243 H243       -5.4788  -18.9307  -57.8451 H         1 UNK         0.3800 
    244 H244       -3.7687  -16.7971  -55.2795 H         1 UNK         0.0800 
    245 H245       -2.5822  -17.9975  -54.9278 H         1 UNK         0.0800 
    246 H246        0.7650  -16.4614  -55.2744 H         1 UNK         0.0800 
    247 H247       -0.1904  -17.9113  -55.1291 H         1 UNK         0.0800 
@<TRIPOS>BOND
     1    1    2 1    
     2    1  127 1    
     3    1  128 1    
     4    1  129 1    
     5    2    3 2    
     6    2    4 am   BACKBONE|DICT|INTERRES
     7    4    5 1    
     8    4  130 1    
     9    5    6 1    
    10    5   65 1    
    11    5  131 1    
    12    6    7 1    
    13    6  132 1    
    14    6  133 1    
    15    7    8 1    
    16    8    9 1    
    17    8  134 1    
    18    8  135 1    
    19    9   10 ar   
    20    9   14 ar   
    21   10   11 ar   
    22   10  136 1    
    23   11   12 ar   
    24   11  126 1    
    25   12   13 ar   
    26   12  137 1    
    27   13   14 ar   
    28   13   15 1    
    29   14  138 1    
    30   15   16 1    
    31   15  139 1    
    32   15  140 1    
    33   16   17 1    
    34   17   18 1    
    35   17  141 1    
    36   17  142 1    
    37   18   19 1    
    38   18   67 1    
    39   18  143 1    
    40   19   20 am   BACKBONE|DICT|INTERRES
    41   19  144 1    
    42   20   21 2    
    43   20   22 1    
    44   22   23 1    
    45   22   24 1    
    46   22  145 1    
    47   23  146 1    
    48   23  147 1    
    49   23  148 1    
    50   24   25 am   BACKBONE|DICT|INTERRES
    51   24  149 1    
    52   25   26 2    
    53   25   27 1    
    54   27   28 1    
    55   27   29 1    
    56   27  150 1    
    57   28  151 1    
    58   28  152 1    
    59   28  153 1    
    60   29   30 am   BACKBONE|DICT|INTERRES
    61   29  154 1    
    62   30   31 2    
    63   30   32 1    
    64   32   33 1    
    65   32   34 1    
    66   32  155 1    
    67   33  156 1    
    68   33  157 1    
    69   33  158 1    
    70   34   35 am   BACKBONE|DICT|INTERRES
    71   34  159 1    
    72   35   36 2    
    73   35   37 1    
    74   37   38 1    
    75   37   39 1    
    76   37  160 1    
    77   38  161 1    
    78   38  162 1    
    79   38  163 1    
    80   39   40 am   BACKBONE|DICT|INTERRES
    81   39  164 1    
    82   40   41 2    
    83   40   42 1    
    84   42   43 1    
    85   42   44 1    
    86   42  165 1    
    87   43  166 1    
    88   43  167 1    
    89   43  168 1    
    90   44   45 am   BACKBONE|DICT|INTERRES
    91   44  169 1    
    92   45   46 2    
    93   45   47 1    
    94   47   48 1    
    95   47   49 1    
    96   47  170 1    
    97   48  171 1    
    98   48  172 1    
    99   48  173 1    
   100   49   50 am   BACKBONE|DICT|INTERRES
   101   49  174 1    
   102   50   51 2    
   103   50   52 1    
   104   52   53 1    
   105   52   54 1    
   106   52  175 1    
   107   53  176 1    
   108   53  177 1    
   109   53  178 1    
   110   54   55 am   BACKBONE|DICT|INTERRES
   111   54  179 1    
   112   55   56 2    
   113   55   57 1    
   114   57   58 1    
   115   57   59 1    
   116   57  180 1    
   117   58  181 1    
   118   58  182 1    
   119   58  183 1    
   120   59   60 am   BACKBONE|DICT|INTERRES
   121   59  184 1    
   122   60   61 2    
   123   60   62 1    
   124   62   63 1    
   125   62   64 1    
   126   62  185 1    
   127   63  186 1    
   128   63  187 1    
   129   63  188 1    
   130   64   65 am   BACKBONE|DICT|INTERRES
   131   64  189 1    
   132   65   66 2    
   133   67   68 2    
   134   67   69 am   BACKBONE|DICT|INTERRES
   135   69   70 1    
   136   69  190 1    
   137   70   71 1    
   138   70   72 1    
   139   70  191 1    
   140   71  192 1    
   141   71  193 1    
   142   71  194 1    
   143   72   73 2    
   144   72   74 am   BACKBONE|DICT|INTERRES
   145   74   75 1    
   146   74  195 1    
   147   75   76 1    
   148   75   77 1    
   149   75  196 1    
   150   76  197 1    
   151   76  198 1    
   152   76  199 1    
   153   77   78 2    
   154   77   79 am   BACKBONE|DICT|INTERRES
   155   79   80 1    
   156   79  200 1    
   157   80   81 1    
   158   80   82 1    
   159   80  201 1    
   160   81  202 1    
   161   81  203 1    
   162   81  204 1    
   163   82   83 2    
   164   82   84 am   BACKBONE|DICT|INTERRES
   165   84   85 1    
   166   84  205 1    
   167   85   86 1    
   168   85   87 1    
   169   85  206 1    
   170   86  207 1    
   171   86  208 1    
   172   86  209 1    
   173   87   88 2    
   174   87   89 am   BACKBONE|DICT|INTERRES
   175   89   90 1    
   176   89  210 1    
   177   90   91 1    
   178   90   92 1    
   179   90  211 1    
   180   91  212 1    
   181   91  213 1    
   182   91  214 1    
   183   92   93 2    
   184   92   94 am   BACKBONE|DICT|INTERRES
   185   94   95 1    
   186   94  215 1    
   187   95   96 1    
   188   95   97 1    
   189   95  216 1    
   190   96  217 1    
   191   96  218 1    
   192   96  219 1    
   193   97   98 2    
   194   97   99 am   BACKBONE|DICT|INTERRES
   195   99  100 1    
   196   99  220 1    
   197  100  101 1    
   198  100  102 1    
   199  100  221 1    
   200  101  222 1    
   201  101  223 1    
   202  101  224 1    
   203  102  103 2    
   204  102  104 am   BACKBONE|DICT|INTERRES
   205  104  105 1    
   206  104  225 1    
   207  105  106 1    
   208  105  107 1    
   209  105  226 1    
   210  106  227 1    
   211  106  228 1    
   212  106  229 1    
   213  107  108 2    
   214  107  109 am   BACKBONE|DICT|INTERRES
   215  109  110 1    
   216  109  230 1    
   217  110  111 1    
   218  110  112 1    
   219  110  231 1    
   220  111  232 1    
   221  111  233 1    
   222  111  234 1    
   223  112  113 2    
   224  112  114 am   BACKBONE|DICT|INTERRES
   225  114  115 1    
   226  114  235 1    
   227  115  116 1    
   228  115  117 1    
   229  115  236 1    
   230  116  237 1    
   231  116  238 1    
   232  116  239 1    
   233  117  118 2    
   234  117  119 am   BACKBONE|DICT|INTERRES
   235  119  120 1    
   236  119  240 1    
   237  120  121 1    
   238  120  124 1    
   239  120  241 1    
   240  121  122 am   BACKBONE|DICT|INTERRES
   241  121  123 2    
   242  122  242 1    
   243  122  243 1    
   244  124  125 1    
   245  124  244 1    
   246  124  245 1    
   247  125  126 1    
   248  126  246 1    
   249  126  247 1    
@<TRIPOS>SUBSTRUCTURE
     1 UNK         1 GROUP             0       ****    0 ROOT    
