@<TRIPOS>MOLECULE
3R540
247   249    1
SMALL
USER_CHARGES


@<TRIPOS>ATOM
      1 CA         -2.1568  -12.5956  -41.6510 C.3       0 UNK        -0.1800 
      2 C          -1.8974  -11.9105  -42.9848 C.2       0 UNK         0.5000 
      3 O          -1.2463  -10.8658  -43.0192 O.2       0 UNK        -0.5000 
      4 N          -2.4177  -12.4849  -44.0761 N.am      1 UNK        -0.5000 
      5 CA         -2.2211  -12.0059  -45.4471 C.3       1 UNK         0.1400 
      6 C6         -3.3785  -12.4599  -46.3762 C.3       23 UNK        -0.0398 
      7 S7         -3.4225  -14.2468  -46.7700 S.3       23 UNK        -0.2404 
      8 C8         -3.2182  -14.1756  -48.5780 C.3       23 UNK        -0.0205 
      9 C9         -3.1942  -15.5614  -49.2009 C.ar      23 UNK        -0.0193 
     10 C10        -4.3845  -16.1789  -49.5986 C.ar      23 UNK        -0.1150 
     11 C11        -4.3646  -17.4503  -50.1807 C.ar      23 UNK        -0.0193 
     12 C12        -3.1419  -18.0983  -50.3707 C.ar      23 UNK        -0.1150 
     13 C13        -1.9474  -17.4970  -49.9645 C.ar      23 UNK        -0.0193 
     14 C14        -1.9788  -16.2256  -49.3864 C.ar      23 UNK        -0.1150 
     15 C15        -0.6275  -18.2370  -50.1230 C.3       23 UNK        -0.0205 
     16 S16         0.0560  -18.7954  -48.5251 S.3       23 UNK        -0.2404 
     17 C17        -1.3495  -19.6454  -47.7206 C.3       23 UNK        -0.0398 
     18 CA         -1.0102  -21.0790  -47.2533 C.3       11 UNK         0.1400 
     19 N           0.0259  -21.1167  -46.2182 N.am      11 UNK        -0.5000 
     20 C           0.6013  -22.2370  -45.7597 C.2       10 UNK         0.5000 
     21 O           0.3691  -23.3572  -46.2146 O.2       10 UNK        -0.5000 
     22 CA          1.5401  -22.0925  -44.5476 C.3       10 UNK         0.1400 
     23 CB          2.9475  -21.6532  -44.9782 C.3       10 UNK        -0.1800 
     24 N           1.0076  -21.1665  -43.5458 N.am      10 UNK        -0.5000 
     25 C          -0.1056  -21.3951  -42.8339 C.2       9 UNK         0.5000 
     26 O          -0.7537  -22.4397  -42.9040 O.2       9 UNK        -0.5000 
     27 CA         -0.6042  -20.2581  -41.9227 C.3       9 UNK         0.1400 
     28 CB          0.1346  -20.2778  -40.5766 C.3       9 UNK        -0.1800 
     29 N          -0.4755  -18.9358  -42.5366 N.am      9 UNK        -0.5000 
     30 C          -1.1342  -18.5344  -43.6335 C.2       8 UNK         0.5000 
     31 O          -1.9689  -19.2249  -44.2155 O.2       8 UNK        -0.5000 
     32 CA         -0.7601  -17.1552  -44.2114 C.3       8 UNK         0.1400 
     33 CB         -1.5006  -16.0351  -43.4688 C.3       8 UNK        -0.1800 
     34 N           0.6821  -16.9000  -44.1853 N.am      8 UNK        -0.5000 
     35 C           1.5945  -17.6593  -44.8094 C.2       7 UNK         0.5000 
     36 O           1.3137  -18.6421  -45.4911 O.2       7 UNK        -0.5000 
     37 CA          3.0713  -17.3131  -44.5687 C.3       7 UNK         0.1400 
     38 CB          3.5213  -16.1331  -45.4452 C.3       7 UNK        -0.1800 
     39 N           3.3160  -17.0236  -43.1564 N.am      7 UNK        -0.5000 
     40 C           3.3254  -17.9572  -42.1929 C.2       6 UNK         0.5000 
     41 O           3.1970  -19.1625  -42.4100 O.2       6 UNK        -0.5000 
     42 CA          3.4624  -17.4586  -40.7409 C.3       6 UNK         0.1400 
     43 CB          4.9417  -17.2793  -40.3689 C.3       6 UNK        -0.1800 
     44 N           2.7498  -16.2019  -40.5041 N.am      6 UNK        -0.5000 
     45 C           1.4170  -16.0646  -40.5521 C.2       5 UNK         0.5000 
     46 O           0.6434  -17.0039  -40.7271 O.2       5 UNK        -0.5000 
     47 CA          0.8539  -14.6334  -40.4423 C.3       5 UNK         0.1400 
     48 CB          0.5089  -14.2985  -38.9841 C.3       5 UNK        -0.1800 
     49 N           1.7492  -13.6034  -40.9796 N.am      5 UNK        -0.5000 
     50 C           2.1827  -13.5565  -42.2463 C.2       4 UNK         0.5000 
     51 O           1.8494  -14.3710  -43.1100 O.2       4 UNK        -0.5000 
     52 CA          3.2333  -12.4857  -42.5670 C.3       4 UNK         0.1400 
     53 CB          4.5691  -12.8552  -41.8829 C.3       4 UNK        -0.1800 
     54 N           3.4073  -12.4022  -44.0158 N.am      4 UNK        -0.5000 
     55 C           4.1636  -11.5074  -44.6633 C.2       3 UNK         0.5000 
     56 O           4.7546  -10.5801  -44.1081 O.2       3 UNK        -0.5000 
     57 CA          4.3023  -11.6747  -46.1880 C.3       3 UNK         0.1400 
     58 CB          5.4413  -12.6515  -46.5194 C.3       3 UNK        -0.1800 
     59 N           3.0789  -12.1225  -46.8537 N.am      3 UNK        -0.5000 
     60 C           1.9764  -11.3756  -46.9958 C.2       2 UNK         0.5000 
     61 O           1.8591  -10.2402  -46.5294 O.2       2 UNK        -0.5000 
     62 CA          0.8195  -11.9589  -47.8359 C.3       2 UNK         0.1400 
     63 CB          1.0354  -13.4149  -48.3140 C.3       2 UNK        -0.1800 
     64 N          -0.4681  -11.8074  -47.1521 N.am      2 UNK        -0.5000 
     65 C          -0.8185  -12.3735  -45.9885 C.2       1 UNK         0.5000 
     66 O          -0.0952  -13.1552  -45.3672 O.2       1 UNK        -0.5000 
     67 C          -2.2892  -21.8183  -46.8058 C.2       11 UNK         0.5000 
     68 O          -2.8358  -22.5959  -47.5839 O.2       11 UNK        -0.5000 
     69 N          -2.7275  -21.6105  -45.5564 N.am      12 UNK        -0.5000 
     70 CA         -3.8798  -22.2964  -44.9652 C.3       12 UNK         0.1400 
     71 CB         -4.1954  -21.6930  -43.5886 C.3       12 UNK        -0.1800 
     72 C          -3.6918  -23.8231  -44.8674 C.2       12 UNK         0.5000 
     73 O          -4.6478  -24.5641  -45.0980 O.2       12 UNK        -0.5000 
     74 N          -2.4630  -24.2641  -44.5630 N.am      13 UNK        -0.5000 
     75 CA         -2.0690  -25.6729  -44.5505 C.3       13 UNK         0.1400 
     76 CB         -0.7149  -25.8208  -43.8399 C.3       13 UNK        -0.1800 
     77 C          -2.0228  -26.2907  -45.9622 C.2       13 UNK         0.5000 
     78 O          -2.4628  -27.4276  -46.1378 O.2       13 UNK        -0.5000 
     79 N          -1.5033  -25.5353  -46.9409 N.am      14 UNK        -0.5000 
     80 CA         -1.4334  -25.9307  -48.3511 C.3       14 UNK         0.1400 
     81 CB         -0.4574  -25.0027  -49.0865 C.3       14 UNK        -0.1800 
     82 C          -2.8070  -25.9496  -49.0524 C.2       14 UNK         0.5000 
     83 O          -3.0019  -26.7383  -49.9790 O.2       14 UNK        -0.5000 
     84 N          -3.7323  -25.0974  -48.5902 N.am      15 UNK        -0.5000 
     85 CA         -5.1279  -24.9750  -49.0108 C.3       15 UNK         0.1400 
     86 CB         -5.9348  -26.2108  -48.5548 C.3       15 UNK        -0.1800 
     87 C          -5.2454  -24.6608  -50.5149 C.2       15 UNK         0.5000 
     88 O          -4.8387  -23.5789  -50.9354 O.2       15 UNK        -0.5000 
     89 N          -5.7782  -25.5972  -51.3091 N.am      16 UNK        -0.5000 
     90 CA         -5.9497  -25.4666  -52.7588 C.3       16 UNK         0.1400 
     91 CB         -6.8619  -26.6023  -53.2486 C.3       16 UNK        -0.1800 
     92 C          -4.6275  -25.4525  -53.5560 C.2       16 UNK         0.5000 
     93 O          -4.6374  -25.0548  -54.7208 O.2       16 UNK        -0.5000 
     94 N          -3.5252  -25.8929  -52.9338 N.am      17 UNK        -0.5000 
     95 CA         -2.1865  -25.9257  -53.5249 C.3       17 UNK         0.1400 
     96 CB         -1.5145  -27.2520  -53.1285 C.3       17 UNK        -0.1800 
     97 C          -1.3207  -24.7216  -53.1004 C.2       17 UNK         0.5000 
     98 O          -0.1306  -24.7020  -53.4181 O.2       17 UNK        -0.5000 
     99 N          -1.8984  -23.7593  -52.3662 N.am      18 UNK        -0.5000 
    100 CA        -1.1924  -22.6071  -51.8026 C.3       18 UNK         0.1400 
    101 CB        -2.1217  -21.8982  -50.8137 C.3       18 UNK        -0.1800 
    102 C         -0.6693  -21.6121  -52.8532 C.2       18 UNK         0.5000 
    103 O          0.3946  -21.0244  -52.6544 O.2       18 UNK        -0.5000 
    104 N         -1.4198  -21.4431  -53.9437 N.am      19 UNK        -0.5000 
    105 CA        -1.1052  -20.5735  -55.0691 C.3       19 UNK         0.1400 
    106 CB        -1.6686  -19.1652  -54.7921 C.3       19 UNK        -0.1800 
    107 C         -1.6621  -21.1929  -56.3634 C.2       19 UNK         0.5000 
    108 O         -2.0911  -22.3493  -56.3671 O.2       19 UNK        -0.5000 
    109 N         -1.6461  -20.4105  -57.4505 N.am      20 UNK        -0.5000 
    110 CA        -2.1340  -20.8021  -58.7777 C.3       20 UNK         0.1400 
    111 CB        -1.6081  -19.7925  -59.8106 C.3       20 UNK        -0.1800 
    112 C         -3.6703  -20.9235  -58.8779 C.2       20 UNK         0.5000 
    113 O         -4.1645  -21.5018  -59.8470 O.2       20 UNK        -0.5000 
    114 N         -4.3940  -20.3785  -57.8929 N.am      21 UNK        -0.5000 
    115 CA        -5.8505  -20.4437  -57.7840 C.3       21 UNK         0.1400 
    116 CB        -6.4949  -19.2604  -58.5269 C.3       21 UNK        -0.1800 
    117 C         -6.2852  -20.4862  -56.3120 C.2       21 UNK         0.5000 
    118 O         -7.1695  -21.2712  -55.9674 O.2       21 UNK        -0.5000 
    119 N         -5.6555  -19.6531  -55.4704 N.am      22 UNK        -0.5000 
    120 CA        -5.8539  -19.6394  -54.0117 C.3       22 UNK         0.1400 
    121 C         -5.3298  -20.9334  -53.3243 C.2       22 UNK         0.5000 
    122 N         -5.9550  -21.3676  -52.2408 N.am      22 UNK        -0.7600 
    123 O         -4.3341  -21.5200  -53.7401 O.2       22 UNK        -0.5000 
    124 C124       -5.2341  -18.3645  -53.3676 C.3       23 UNK        -0.0398 
    125 S125       -6.3407  -17.5781  -52.1467 S.3       23 UNK        -0.2404 
    126 C126       -5.6645  -18.1472  -50.5544 C.3       23 UNK        -0.0205 
    127 H127       -2.9845  -12.1092  -41.1352 H         1 UNK         0.0600 
    128 H128       -1.2745  -12.5263  -41.0156 H         1 UNK         0.0600 
    129 H129       -2.4032  -13.6495  -41.7802 H         1 UNK         0.0600 
    130 H130       -2.9156  -13.3590  -43.9930 H         1 UNK         0.3000 
    131 H131       -2.2582  -10.9146  -45.4150 H         1 UNK         0.0600 
    132 H132       -4.3337  -12.1986  -45.9184 H         1 UNK         0.0800 
    133 H133       -3.3493  -11.8850  -47.3028 H         1 UNK         0.0800 
    134 H134       -4.0318  -13.5919  -49.0117 H         1 UNK         0.0800 
    135 H135       -2.2960  -13.6448  -48.8185 H         1 UNK         0.0800 
    136 H136       -5.3285  -15.6744  -49.4463 H         1 UNK         0.1150 
    137 H137       -3.1236  -19.0854  -50.8092 H         1 UNK         0.1150 
    138 H138       -1.0565  -15.7638  -49.0642 H         1 UNK         0.1150 
    139 H139       -0.7358  -19.0887  -50.7938 H         1 UNK         0.0800 
    140 H140        0.0971  -17.5753  -50.5994 H         1 UNK         0.0800 
    141 H141       -1.6784  -19.0324  -46.8809 H         1 UNK         0.0800 
    142 H142       -2.1917  -19.6813  -48.4100 H         1 UNK         0.0800 
    143 H143       -0.6156  -21.6236  -48.1132 H         1 UNK         0.0600 
    144 H144        0.3250  -20.2211  -45.8391 H         1 UNK         0.3000 
    145 H145        1.6267  -23.0749  -44.0788 H         1 UNK         0.0600 
    146 H146        3.6179  -21.5838  -44.1214 H         1 UNK         0.0600 
    147 H147        3.3812  -22.3719  -45.6745 H         1 UNK         0.0600 
    148 H148        2.9391  -20.6835  -45.4746 H         1 UNK         0.0600 
    149 H149        1.4983  -20.2891  -43.4253 H         1 UNK         0.3000 
    150 H150       -1.6644  -20.4311  -41.7278 H         1 UNK         0.0600 
    151 H151        0.0429  -21.2518  -40.0944 H         1 UNK         0.0600 
    152 H152       -0.2760  -19.5361  -39.8914 H         1 UNK         0.0600 
    153 H153        1.1978  -20.0689  -40.6974 H         1 UNK         0.0600 
    154 H154        0.1399  -18.2762  -42.0689 H         1 UNK         0.3000 
    155 H155       -1.0730  -17.1322  -45.2575 H         1 UNK         0.0600 
    156 H156       -1.1968  -15.0553  -43.8342 H         1 UNK         0.0600 
    157 H157       -1.3119  -16.0675  -42.3965 H         1 UNK         0.0600 
    158 H158       -2.5779  -16.1206  -43.6146 H         1 UNK         0.0600 
    159 H159        0.9990  -16.0794  -43.6780 H         1 UNK         0.3000 
    160 H160        3.6708  -18.1823  -44.8482 H         1 UNK         0.0600 
    161 H161        2.9158  -15.2425  -45.2814 H         1 UNK         0.0600 
    162 H162        3.4388  -16.3874  -46.5026 H         1 UNK         0.0600 
    163 H163        4.5624  -15.8750  -45.2525 H         1 UNK         0.0600 
    164 H164        3.3384  -16.0484  -42.8944 H         1 UNK         0.3000 
    165 H165        3.0342  -18.2205  -40.0859 H         1 UNK         0.0600 
    166 H166        5.4200  -16.5086  -40.9747 H         1 UNK         0.0600 
    167 H167        5.0538  -17.0009  -39.3209 H         1 UNK         0.0600 
    168 H168        5.4965  -18.2065  -40.5189 H         1 UNK         0.0600 
    169 H169        3.3127  -15.3802  -40.3444 H         1 UNK         0.3000 
    170 H170       -0.0663  -14.6058  -41.0263 H         1 UNK         0.0600 
    171 H171       -0.1804  -15.0344  -38.5676 H         1 UNK         0.0600 
    172 H172        1.3979  -14.2867  -38.3525 H         1 UNK         0.0600 
    173 H173        0.0270  -13.3239  -38.9052 H         1 UNK         0.0600 
    174 H174        2.0783  -12.9099  -40.3234 H         1 UNK         0.3000 
    175 H175        2.8735  -11.5238  -42.1969 H         1 UNK         0.0600 
    176 H176        5.3276  -12.0872  -42.0302 H         1 UNK         0.0600 
    177 H177        4.4493  -12.9678  -40.8049 H         1 UNK         0.0600 
    178 H178        4.9689  -13.7942  -42.2683 H         1 UNK         0.0600 
    179 H179        2.8883  -13.1002  -44.5351 H         1 UNK         0.3000 
    180 H180        4.5690  -10.6990  -46.6002 H         1 UNK         0.0600 
    181 H181        5.6136  -12.7079  -47.5944 H         1 UNK         0.0600 
    182 H182        6.3766  -12.3315  -46.0582 H         1 UNK         0.0600 
    183 H183        5.2269  -13.6580  -46.1598 H         1 UNK         0.0600 
    184 H184        3.0941  -13.0448  -47.2631 H         1 UNK         0.3000 
    185 H185        0.7609  -11.3344  -48.7284 H         1 UNK         0.0600 
    186 H186        0.1980  -13.7466  -48.9263 H         1 UNK         0.0600 
    187 H187        1.9288  -13.4999  -48.9335 H         1 UNK         0.0600 
    188 H188        1.1364  -14.1166  -47.4852 H         1 UNK         0.0600 
    189 H189       -1.1002  -11.1436  -47.5760 H         1 UNK         0.3000 
    190 H190       -2.2721  -20.9039  -44.9835 H         1 UNK         0.3000 
    191 H191       -4.7373  -22.1137  -45.6162 H         1 UNK         0.0600 
    192 H192       -5.0822  -22.1563  -43.1545 H         1 UNK         0.0600 
    193 H193       -4.3901  -20.6229  -43.6616 H         1 UNK         0.0600 
    194 H194       -3.3746  -21.8373  -42.8868 H         1 UNK         0.0600 
    195 H195       -1.7483  -23.5850  -44.3244 H         1 UNK         0.3000 
    196 H196       -2.8126  -26.2248  -43.9716 H         1 UNK         0.0600 
    197 H197       -0.4167  -26.8684  -43.7833 H         1 UNK         0.0600 
    198 H198       -0.7620  -25.4395  -42.8197 H         1 UNK         0.0600 
    199 H199        0.0770  -25.2821  -44.3602 H         1 UNK         0.0600 
    200 H200       -1.1058  -24.6325  -46.7006 H         1 UNK         0.3000 
    201 H201       -1.0317  -26.9449  -48.3987 H         1 UNK         0.0600 
    202 H202        0.5434  -25.0664  -48.6592 H         1 UNK         0.0600 
    203 H203       -0.7770  -23.9628  -49.0283 H         1 UNK         0.0600 
    204 H204       -0.3795  -25.2715  -50.1404 H         1 UNK         0.0600 
    205 H205       -3.4223  -24.3913  -47.9284 H         1 UNK         0.3000 
    206 H206       -5.5288  -24.1064  -48.4865 H         1 UNK         0.0600 
    207 H207       -5.8804  -26.3259  -47.4719 H         1 UNK         0.0600 
    208 H208       -6.9898  -26.1106  -48.8129 H         1 UNK         0.0600 
    209 H209       -5.5662  -27.1356  -48.9998 H         1 UNK         0.0600 
    210 H210       -6.0639  -26.4729  -50.8959 H         1 UNK         0.3000 
    211 H211       -6.4520  -24.5167  -52.9547 H         1 UNK         0.0600 
    212 H212       -6.4175  -27.5814  -53.0653 H         1 UNK         0.0600 
    213 H213       -7.0472  -26.5213  -54.3205 H         1 UNK         0.0600 
    214 H214       -7.8312  -26.5733  -52.7505 H         1 UNK         0.0600 
    215 H215       -3.5936  -26.1981  -51.9686 H         1 UNK         0.3000 
    216 H216       -2.2558  -25.8997  -54.6142 H         1 UNK         0.0600 
    217 H217       -0.5464  -27.3645  -53.6180 H         1 UNK         0.0600 
    218 H218       -2.1246  -28.1065  -53.4214 H         1 UNK         0.0600 
    219 H219       -1.3462  -27.3128  -52.0528 H         1 UNK         0.0600 
    220 H220       -2.8880  -23.8249  -52.1622 H         1 UNK         0.3000 
    221 H221       -0.3287  -22.9823  -51.2508 H         1 UNK         0.0600 
    222 H222       -2.9721  -21.4372  -51.3159 H         1 UNK         0.0600 
    223 H223       -2.5140  -22.5996  -50.0812 H         1 UNK         0.0600 
    224 H224       -1.5910  -21.1207  -50.2702 H         1 UNK         0.0600 
    225 H225       -2.2971  -21.9493  -54.0261 H         1 UNK         0.3000 
    226 H226       -0.0216  -20.5102  -55.1868 H         1 UNK         0.0600 
    227 H227       -1.3217  -18.7817  -53.8321 H         1 UNK         0.0600 
    228 H228       -1.3538  -18.4491  -55.5513 H         1 UNK         0.0600 
    229 H229       -2.7575  -19.1719  -54.7717 H         1 UNK         0.0600 
    230 H230       -1.2672  -19.4775  -57.3744 H         1 UNK         0.3000 
    231 H231       -1.7171  -21.7825  -59.0178 H         1 UNK         0.0600 
    232 H232       -1.9158  -20.0681  -60.8203 H         1 UNK         0.0600 
    233 H233       -0.5187  -19.7530  -59.8055 H         1 UNK         0.0600 
    234 H234       -1.9830  -18.7867  -59.6168 H         1 UNK         0.0600 
    235 H235       -3.8964  -19.9862  -57.1091 H         1 UNK         0.3000 
    236 H236       -6.2022  -21.3708  -58.2424 H         1 UNK         0.0600 
    237 H237       -6.1530  -18.3026  -58.1334 H         1 UNK         0.0600 
    238 H238       -6.2588  -19.2881  -59.5908 H         1 UNK         0.0600 
    239 H239       -7.5813  -19.2865  -58.4347 H         1 UNK         0.0600 
    240 H240       -4.9790  -19.0021  -55.8346 H         1 UNK         0.3000 
    241 H241       -6.9356  -19.6133  -53.8640 H         1 UNK         0.0600 
    242 H242       -5.5753  -22.1845  -51.7651 H         1 UNK         0.3800 
    243 H243       -6.7779  -20.9136  -51.8797 H         1 UNK         0.3800 
    244 H244       -5.0521  -17.6041  -54.1281 H         1 UNK         0.0800 
    245 H245       -4.2558  -18.5584  -52.9263 H         1 UNK         0.0800 
    246 H246       -6.4056  -17.9576  -49.7766 H         1 UNK         0.0800 
    247 H247       -5.5247  -19.2281  -50.5745 H         1 UNK         0.0800 
@<TRIPOS>BOND
     1    1    2 1    
     2    1  127 1    
     3    1  128 1    
     4    1  129 1    
     5    2    3 2    
     6    2    4 am   BACKBONE|DICT|INTERRES
     7    4    5 1    
     8    4  130 1    
     9    5    6 1    
    10    5   65 1    
    11    5  131 1    
    12    6    7 1    
    13    6  132 1    
    14    6  133 1    
    15    7    8 1    
    16    8    9 1    
    17    8  134 1    
    18    8  135 1    
    19    9   10 ar   
    20    9   14 ar   
    21   10   11 ar   
    22   10  136 1    
    23   11   12 ar   
    24   11  126 1    
    25   12   13 ar   
    26   12  137 1    
    27   13   14 ar   
    28   13   15 1    
    29   14  138 1    
    30   15   16 1    
    31   15  139 1    
    32   15  140 1    
    33   16   17 1    
    34   17   18 1    
    35   17  141 1    
    36   17  142 1    
    37   18   19 1    
    38   18   67 1    
    39   18  143 1    
    40   19   20 am   BACKBONE|DICT|INTERRES
    41   19  144 1    
    42   20   21 2    
    43   20   22 1    
    44   22   23 1    
    45   22   24 1    
    46   22  145 1    
    47   23  146 1    
    48   23  147 1    
    49   23  148 1    
    50   24   25 am   BACKBONE|DICT|INTERRES
    51   24  149 1    
    52   25   26 2    
    53   25   27 1    
    54   27   28 1    
    55   27   29 1    
    56   27  150 1    
    57   28  151 1    
    58   28  152 1    
    59   28  153 1    
    60   29   30 am   BACKBONE|DICT|INTERRES
    61   29  154 1    
    62   30   31 2    
    63   30   32 1    
    64   32   33 1    
    65   32   34 1    
    66   32  155 1    
    67   33  156 1    
    68   33  157 1    
    69   33  158 1    
    70   34   35 am   BACKBONE|DICT|INTERRES
    71   34  159 1    
    72   35   36 2    
    73   35   37 1    
    74   37   38 1    
    75   37   39 1    
    76   37  160 1    
    77   38  161 1    
    78   38  162 1    
    79   38  163 1    
    80   39   40 am   BACKBONE|DICT|INTERRES
    81   39  164 1    
    82   40   41 2    
    83   40   42 1    
    84   42   43 1    
    85   42   44 1    
    86   42  165 1    
    87   43  166 1    
    88   43  167 1    
    89   43  168 1    
    90   44   45 am   BACKBONE|DICT|INTERRES
    91   44  169 1    
    92   45   46 2    
    93   45   47 1    
    94   47   48 1    
    95   47   49 1    
    96   47  170 1    
    97   48  171 1    
    98   48  172 1    
    99   48  173 1    
   100   49   50 am   BACKBONE|DICT|INTERRES
   101   49  174 1    
   102   50   51 2    
   103   50   52 1    
   104   52   53 1    
   105   52   54 1    
   106   52  175 1    
   107   53  176 1    
   108   53  177 1    
   109   53  178 1    
   110   54   55 am   BACKBONE|DICT|INTERRES
   111   54  179 1    
   112   55   56 2    
   113   55   57 1    
   114   57   58 1    
   115   57   59 1    
   116   57  180 1    
   117   58  181 1    
   118   58  182 1    
   119   58  183 1    
   120   59   60 am   BACKBONE|DICT|INTERRES
   121   59  184 1    
   122   60   61 2    
   123   60   62 1    
   124   62   63 1    
   125   62   64 1    
   126   62  185 1    
   127   63  186 1    
   128   63  187 1    
   129   63  188 1    
   130   64   65 am   BACKBONE|DICT|INTERRES
   131   64  189 1    
   132   65   66 2    
   133   67   68 2    
   134   67   69 am   BACKBONE|DICT|INTERRES
   135   69   70 1    
   136   69  190 1    
   137   70   71 1    
   138   70   72 1    
   139   70  191 1    
   140   71  192 1    
   141   71  193 1    
   142   71  194 1    
   143   72   73 2    
   144   72   74 am   BACKBONE|DICT|INTERRES
   145   74   75 1    
   146   74  195 1    
   147   75   76 1    
   148   75   77 1    
   149   75  196 1    
   150   76  197 1    
   151   76  198 1    
   152   76  199 1    
   153   77   78 2    
   154   77   79 am   BACKBONE|DICT|INTERRES
   155   79   80 1    
   156   79  200 1    
   157   80   81 1    
   158   80   82 1    
   159   80  201 1    
   160   81  202 1    
   161   81  203 1    
   162   81  204 1    
   163   82   83 2    
   164   82   84 am   BACKBONE|DICT|INTERRES
   165   84   85 1    
   166   84  205 1    
   167   85   86 1    
   168   85   87 1    
   169   85  206 1    
   170   86  207 1    
   171   86  208 1    
   172   86  209 1    
   173   87   88 2    
   174   87   89 am   BACKBONE|DICT|INTERRES
   175   89   90 1    
   176   89  210 1    
   177   90   91 1    
   178   90   92 1    
   179   90  211 1    
   180   91  212 1    
   181   91  213 1    
   182   91  214 1    
   183   92   93 2    
   184   92   94 am   BACKBONE|DICT|INTERRES
   185   94   95 1    
   186   94  215 1    
   187   95   96 1    
   188   95   97 1    
   189   95  216 1    
   190   96  217 1    
   191   96  218 1    
   192   96  219 1    
   193   97   98 2    
   194   97   99 am   BACKBONE|DICT|INTERRES
   195   99  100 1    
   196   99  220 1    
   197  100  101 1    
   198  100  102 1    
   199  100  221 1    
   200  101  222 1    
   201  101  223 1    
   202  101  224 1    
   203  102  103 2    
   204  102  104 am   BACKBONE|DICT|INTERRES
   205  104  105 1    
   206  104  225 1    
   207  105  106 1    
   208  105  107 1    
   209  105  226 1    
   210  106  227 1    
   211  106  228 1    
   212  106  229 1    
   213  107  108 2    
   214  107  109 am   BACKBONE|DICT|INTERRES
   215  109  110 1    
   216  109  230 1    
   217  110  111 1    
   218  110  112 1    
   219  110  231 1    
   220  111  232 1    
   221  111  233 1    
   222  111  234 1    
   223  112  113 2    
   224  112  114 am   BACKBONE|DICT|INTERRES
   225  114  115 1    
   226  114  235 1    
   227  115  116 1    
   228  115  117 1    
   229  115  236 1    
   230  116  237 1    
   231  116  238 1    
   232  116  239 1    
   233  117  118 2    
   234  117  119 am   BACKBONE|DICT|INTERRES
   235  119  120 1    
   236  119  240 1    
   237  120  121 1    
   238  120  124 1    
   239  120  241 1    
   240  121  122 am   BACKBONE|DICT|INTERRES
   241  121  123 2    
   242  122  242 1    
   243  122  243 1    
   244  124  125 1    
   245  124  244 1    
   246  124  245 1    
   247  125  126 1    
   248  126  246 1    
   249  126  247 1    
@<TRIPOS>SUBSTRUCTURE
     1 UNK         1 GROUP             0       ****    0 ROOT    
