@<TRIPOS>MOLECULE
3R540
247   249    1
SMALL
USER_CHARGES


@<TRIPOS>ATOM
      1 CA          1.5959   -9.5523  -48.1550 C.3       0 UNK        -0.1800 
      2 C           1.3948  -10.9556  -47.6010 C.2       0 UNK         0.5000 
      3 O           1.0229  -11.1067  -46.4375 O.2       0 UNK        -0.5000 
      4 N           1.6383  -11.9807  -48.4293 N.am      1 UNK        -0.5000 
      5 CA          1.4821  -13.3980  -48.0734 C.3       1 UNK         0.1400 
      6 C6          2.2757  -14.3155  -49.0387 C.3       23 UNK        -0.0398 
      7 S7          3.0033  -15.7547  -48.1884 S.3       23 UNK        -0.2404 
      8 C8          3.3699  -16.8518  -49.5966 C.3       23 UNK        -0.0205 
      9 C9          2.4120  -18.0331  -49.6757 C.ar      23 UNK        -0.0193 
     10 C10         1.0497  -17.8289  -49.9208 C.ar      23 UNK        -0.1150 
     11 C11         0.1750  -18.9153  -50.0040 C.ar      23 UNK        -0.0193 
     12 C12         0.6706  -20.2099  -49.8455 C.ar      23 UNK        -0.1150 
     13 C13         2.0280  -20.4325  -49.6081 C.ar      23 UNK        -0.0193 
     14 C14         2.8945  -19.3389  -49.5255 C.ar      23 UNK        -0.1150 
     15 C15         2.5528  -21.8562  -49.4684 C.3       23 UNK        -0.0205 
     16 S16         2.6854  -22.3888  -47.7308 S.3       23 UNK        -0.2404 
     17 C17         0.9565  -22.2373  -47.1672 C.3       23 UNK        -0.0398 
     18 CA          0.5820  -23.2221  -46.0343 C.3       11 UNK         0.1400 
     19 N           1.4668  -23.0940  -44.8719 N.am      11 UNK        -0.5000 
     20 C           1.7163  -24.0750  -43.9931 C.2       10 UNK         0.5000 
     21 O           1.2001  -25.1910  -44.0604 O.2       10 UNK        -0.5000 
     22 CA          2.6896  -23.7621  -42.8371 C.3       10 UNK         0.1400 
     23 CB          4.1048  -24.2473  -43.1854 C.3       10 UNK        -0.1800 
     24 N           2.7491  -22.3416  -42.4868 N.am      10 UNK        -0.5000 
     25 C           1.7355  -21.6390  -41.9627 C.2       9 UNK         0.5000 
     26 O           0.6532  -22.1385  -41.6591 O.2       9 UNK        -0.5000 
     27 CA          1.9484  -20.1221  -41.7790 C.3       9 UNK         0.1400 
     28 CB          2.3722  -19.8184  -40.3342 C.3       9 UNK        -0.1800 
     29 N           2.9222  -19.5195  -42.6968 N.am      9 UNK        -0.5000 
     30 C           2.8561  -19.5545  -44.0358 C.2       8 UNK         0.5000 
     31 O           2.0008  -20.1844  -44.6600 O.2       8 UNK        -0.5000 
     32 CA          3.9269  -18.7447  -44.7809 C.3       8 UNK         0.1400 
     33 CB          3.7326  -18.7534  -46.3056 C.3       8 UNK        -0.1800 
     34 N           3.9283  -17.3720  -44.2830 N.am      8 UNK        -0.5000 
     35 C           5.0031  -16.5757  -44.2140 C.2       7 UNK         0.5000 
     36 O           6.1286  -16.9215  -44.5764 O.2       7 UNK        -0.5000 
     37 CA          4.8074  -15.1543  -43.6406 C.3       7 UNK         0.1400 
     38 CB          4.6589  -14.1379  -44.7844 C.3       7 UNK        -0.1800 
     39 N           3.6554  -15.0201  -42.7474 N.am      7 UNK        -0.5000 
     40 C           3.4918  -15.6517  -41.5766 C.2       6 UNK         0.5000 
     41 O           4.3571  -16.3552  -41.0544 O.2       6 UNK        -0.5000 
     42 CA          2.1151  -15.5090  -40.8882 C.3       6 UNK         0.1400 
     43 CB          2.1922  -14.4756  -39.7540 C.3       6 UNK        -0.1800 
     44 N           0.9910  -15.1605  -41.7707 N.am      6 UNK        -0.5000 
     45 C           0.6287  -15.8106  -42.8864 C.2       5 UNK         0.5000 
     46 O           1.2685  -16.7581  -43.3473 O.2       5 UNK        -0.5000 
     47 CA         -0.6238  -15.2798  -43.6200 C.3       5 UNK         0.1400 
     48 CB         -0.4541  -13.7987  -44.0044 C.3       5 UNK        -0.1800 
     49 N          -0.9064  -16.0383  -44.8382 N.am      5 UNK        -0.5000 
     50 C          -1.3026  -17.3152  -44.8849 C.2       4 UNK         0.5000 
     51 O          -1.6962  -17.9493  -43.9032 O.2       4 UNK        -0.5000 
     52 CA         -1.2282  -17.9688  -46.2765 C.3       4 UNK         0.1400 
     53 CB         -1.3812  -19.4996  -46.2247 C.3       4 UNK        -0.1800 
     54 N          -2.1694  -17.3508  -47.2143 N.am      4 UNK        -0.5000 
     55 C          -3.5084  -17.4192  -47.1982 C.2       3 UNK         0.5000 
     56 O          -4.1562  -18.0894  -46.3945 O.2       3 UNK        -0.5000 
     57 CA         -4.2413  -16.5649  -48.2516 C.3       3 UNK         0.1400 
     58 CB         -5.7694  -16.5728  -48.0644 C.3       3 UNK        -0.1800 
     59 N          -3.7638  -15.1848  -48.1917 N.am      3 UNK        -0.5000 
     60 C          -2.8262  -14.6490  -48.9821 C.2       2 UNK         0.5000 
     61 O          -2.3137  -15.2445  -49.9299 O.2       2 UNK        -0.5000 
     62 CA         -2.3541  -13.2164  -48.6476 C.3       2 UNK         0.1400 
     63 CB         -2.9151  -12.6648  -47.3176 C.3       2 UNK        -0.1800 
     64 N          -0.8925  -13.0880  -48.6549 N.am      2 UNK        -0.5000 
     65 C          -0.0008  -13.8235  -47.9692 C.2       1 UNK         0.5000 
     66 O          -0.3023  -14.7842  -47.2605 O.2       1 UNK        -0.5000 
     67 C          -0.9075  -23.0624  -45.6545 C.2       11 UNK         0.5000 
     68 O          -1.7735  -23.3704  -46.4760 O.2       11 UNK        -0.5000 
     69 N          -1.1999  -22.6069  -44.4250 N.am      12 UNK        -0.5000 
     70 CA         -2.5481  -22.3430  -43.9060 C.3       12 UNK         0.1400 
     71 CB         -2.4399  -21.6019  -42.5661 C.3       12 UNK        -0.1800 
     72 C          -3.4469  -23.5897  -43.7733 C.2       12 UNK         0.5000 
     73 O          -4.6535  -23.4423  -43.5798 O.2       12 UNK        -0.5000 
     74 N          -2.8644  -24.7890  -43.9133 N.am      13 UNK        -0.5000 
     75 CA         -3.5840  -26.0551  -44.0563 C.3       13 UNK         0.1400 
     76 CB         -2.5748  -27.2116  -43.9994 C.3       13 UNK        -0.1800 
     77 C          -4.4185  -26.1268  -45.3535 C.2       13 UNK         0.5000 
     78 O          -5.4639  -26.7780  -45.3588 O.2       13 UNK        -0.5000 
     79 N          -3.9539  -25.4481  -46.4128 N.am      14 UNK        -0.5000 
     80 CA         -4.6662  -25.2842  -47.6808 C.3       14 UNK         0.1400 
     81 CB         -3.7345  -25.6732  -48.8370 C.3       14 UNK        -0.1800 
     82 C          -5.1844  -23.8444  -47.8470 C.2       14 UNK         0.5000 
     83 O          -6.2672  -23.6569  -48.4031 O.2       14 UNK        -0.5000 
     84 N          -4.4259  -22.8580  -47.3432 N.am      15 UNK        -0.5000 
     85 CA         -4.7480  -21.4292  -47.2999 C.3       15 UNK         0.1400 
     86 CB         -5.8623  -21.1620  -46.2635 C.3       15 UNK        -0.1800 
     87 C          -5.0414  -20.8602  -48.7010 C.2       15 UNK         0.5000 
     88 O          -4.1461  -20.8490  -49.5444 O.2       15 UNK        -0.5000 
     89 N          -6.2874  -20.4364  -48.9473 N.am      16 UNK        -0.5000 
     90 CA         -6.7605  -19.9192  -50.2323 C.3       16 UNK         0.1400 
     91 CB         -8.1843  -19.3714  -50.0543 C.3       16 UNK        -0.1800 
     92 C          -6.7144  -20.9457  -51.3837 C.2       16 UNK         0.5000 
     93 O          -6.6900  -20.5400  -52.5445 O.2       16 UNK        -0.5000 
     94 N          -6.6967  -22.2448  -51.0537 N.am      17 UNK        -0.5000 
     95 CA         -6.6188  -23.3447  -52.0147 C.3       17 UNK         0.1400 
     96 CB         -7.4610  -24.5194  -51.4885 C.3       17 UNK        -0.1800 
     97 C          -5.1722  -23.7964  -52.3010 C.2       17 UNK         0.5000 
     98 O          -4.9909  -24.7139  -53.1027 O.2       17 UNK        -0.5000 
     99 N          -4.1693  -23.1875  -51.6463 N.am      18 UNK        -0.5000 
    100 CA        -2.7564  -23.5641  -51.7720 C.3       18 UNK         0.1400 
    101 CB        -1.9384  -22.8337  -50.6992 C.3       18 UNK        -0.1800 
    102 C         -2.1626  -23.2993  -53.1699 C.2       18 UNK         0.5000 
    103 O         -1.3043  -24.0608  -53.6179 O.2       18 UNK        -0.5000 
    104 N         -2.6419  -22.2443  -53.8354 N.am      19 UNK        -0.5000 
    105 CA        -2.2885  -21.8388  -55.1907 C.3       19 UNK         0.1400 
    106 CB        -0.8881  -21.1960  -55.2146 C.3       19 UNK        -0.1800 
    107 C         -3.3495  -20.8437  -55.6765 C.2       19 UNK         0.5000 
    108 O         -4.0606  -20.2623  -54.8543 O.2       19 UNK        -0.5000 
    109 N         -3.4168  -20.6226  -56.9958 N.am      20 UNK        -0.5000 
    110 CA        -4.3412  -19.6723  -57.6288 C.3       20 UNK         0.1400 
    111 CB        -4.2368  -19.8063  -59.1555 C.3       20 UNK        -0.1800 
    112 C         -4.1117  -18.2088  -57.1969 C.2       20 UNK         0.5000 
    113 O         -5.0657  -17.4328  -57.1305 O.2       20 UNK        -0.5000 
    114 N         -2.8555  -17.8736  -56.8716 N.am      21 UNK        -0.5000 
    115 CA        -2.4368  -16.5745  -56.3427 C.3       21 UNK         0.1400 
    116 CB        -0.9036  -16.4914  -56.4059 C.3       21 UNK        -0.1800 
    117 C         -2.9294  -16.2992  -54.9063 C.2       21 UNK         0.5000 
    118 O         -2.9610  -15.1378  -54.4980 O.2       21 UNK        -0.5000 
    119 N         -3.2976  -17.3548  -54.1686 N.am      22 UNK        -0.5000 
    120 CA        -3.7943  -17.2832  -52.7853 C.3       22 UNK         0.1400 
    121 C         -5.2968  -16.8916  -52.6715 C.2       22 UNK         0.5000 
    122 N         -6.0485  -16.7872  -53.7617 N.am      22 UNK        -0.7600 
    123 O         -5.7882  -16.6627  -51.5710 O.2       22 UNK        -0.5000 
    124 C124       -3.4994  -18.5887  -52.0034 C.3       23 UNK        -0.0398 
    125 S125       -1.7273  -19.0221  -51.9990 S.3       23 UNK        -0.2404 
    126 C126       -1.3051  -18.7002  -50.2628 C.3       23 UNK        -0.0205 
    127 H127        2.3427   -9.0201  -47.5659 H         1 UNK         0.0600 
    128 H128        0.6613   -8.9933  -48.1079 H         1 UNK         0.0600 
    129 H129        1.9303   -9.5691  -49.1926 H         1 UNK         0.0600 
    130 H130        1.9489  -11.7901  -49.3717 H         1 UNK         0.3000 
    131 H131        1.9050  -13.5099  -47.0722 H         1 UNK         0.0600 
    132 H132        1.6624  -14.6403  -49.8813 H         1 UNK         0.0800 
    133 H133        3.1132  -13.7709  -49.4773 H         1 UNK         0.0800 
    134 H134        3.3399  -16.2973  -50.5353 H         1 UNK         0.0800 
    135 H135        4.3968  -17.2040  -49.4896 H         1 UNK         0.0800 
    136 H136        0.6692  -16.8251  -50.0441 H         1 UNK         0.1150 
    137 H137       -0.0042  -21.0473  -49.9153 H         1 UNK         0.1150 
    138 H138        3.9462  -19.5080  -49.3423 H         1 UNK         0.1150 
    139 H139        1.9110  -22.5524  -50.0106 H         1 UNK         0.0800 
    140 H140        3.5369  -21.9289  -49.9335 H         1 UNK         0.0800 
    141 H141        0.8111  -21.2044  -46.8543 H         1 UNK         0.0800 
    142 H142        0.2979  -22.4002  -48.0214 H         1 UNK         0.0800 
    143 H143        0.6903  -24.2318  -46.4362 H         1 UNK         0.0600 
    144 H144        1.8915  -22.1807  -44.7414 H         1 UNK         0.3000 
    145 H145        2.3444  -24.3121  -41.9592 H         1 UNK         0.0600 
    146 H146        4.7893  -24.1028  -42.3494 H         1 UNK         0.0600 
    147 H147        4.1053  -25.3118  -43.4238 H         1 UNK         0.0600 
    148 H148        4.5100  -23.7176  -44.0488 H         1 UNK         0.0600 
    149 H149        3.6032  -21.8525  -42.7095 H         1 UNK         0.3000 
    150 H150        0.9882  -19.6360  -41.9655 H         1 UNK         0.0600 
    151 H151        1.6426  -20.2073  -39.6226 H         1 UNK         0.0600 
    152 H152        2.4533  -18.7463  -40.1606 H         1 UNK         0.0600 
    153 H153        3.3364  -20.2692  -40.0961 H         1 UNK         0.0600 
    154 H154        3.6532  -18.9667  -42.2721 H         1 UNK         0.3000 
    155 H155        4.8854  -19.2159  -44.5547 H         1 UNK         0.0600 
    156 H156        4.5063  -18.1752  -46.8103 H         1 UNK         0.0600 
    157 H157        2.7636  -18.3389  -46.5862 H         1 UNK         0.0600 
    158 H158        3.7809  -19.7693  -46.6970 H         1 UNK         0.0600 
    159 H159        3.0289  -17.0339  -43.9437 H         1 UNK         0.3000 
    160 H160        5.7041  -14.9043  -43.0700 H         1 UNK         0.0600 
    161 H161        3.7592  -14.3250  -45.3722 H         1 UNK         0.0600 
    162 H162        5.5098  -14.1869  -45.4652 H         1 UNK         0.0600 
    163 H163        4.6066  -13.1176  -44.4041 H         1 UNK         0.0600 
    164 H164        2.8819  -14.4735  -43.0946 H         1 UNK         0.3000 
    165 H165        1.8800  -16.4781  -40.4462 H         1 UNK         0.0600 
    166 H166        2.3809  -13.4722  -40.1380 H         1 UNK         0.0600 
    167 H167        1.2659  -14.4481  -39.1797 H         1 UNK         0.0600 
    168 H168        2.9960  -14.7169  -39.0570 H         1 UNK         0.0600 
    169 H169        0.4253  -14.3812  -41.4671 H         1 UNK         0.3000 
    170 H170       -1.4768  -15.3773  -42.9459 H         1 UNK         0.0600 
    171 H171       -0.3150  -13.1662  -43.1274 H         1 UNK         0.0600 
    172 H172        0.4060  -13.6484  -44.6586 H         1 UNK         0.0600 
    173 H173       -1.3349  -13.4247  -44.5247 H         1 UNK         0.0600 
    174 H174       -0.6231  -15.5960  -45.7116 H         1 UNK         0.3000 
    175 H175       -0.2299  -17.7621  -46.6675 H         1 UNK         0.0600 
    176 H176       -1.3179  -19.9473  -47.2161 H         1 UNK         0.0600 
    177 H177       -0.5940  -19.9313  -45.6075 H         1 UNK         0.0600 
    178 H178       -2.3251  -19.7938  -45.7720 H         1 UNK         0.0600 
    179 H179       -1.7470  -16.7041  -47.8679 H         1 UNK         0.3000 
    180 H180       -4.0258  -16.9969  -49.2294 H         1 UNK         0.0600 
    181 H181       -6.2625  -15.9838  -48.8378 H         1 UNK         0.0600 
    182 H182       -6.1655  -17.5864  -48.1305 H         1 UNK         0.0600 
    183 H183       -6.0610  -16.1668  -47.0951 H         1 UNK         0.0600 
    184 H184       -4.1041  -14.6342  -47.4165 H         1 UNK         0.3000 
    185 H185       -2.7230  -12.5804  -49.4534 H         1 UNK         0.0600 
    186 H186       -2.5329  -11.6632  -47.1190 H         1 UNK         0.0600 
    187 H187       -4.0027  -12.5889  -47.3446 H         1 UNK         0.0600 
    188 H188       -2.6418  -13.2937  -46.4703 H         1 UNK         0.0600 
    189 H189       -0.5288  -12.3395  -49.2264 H         1 UNK         0.3000 
    190 H190       -0.4348  -22.4056  -43.7946 H         1 UNK         0.3000 
    191 H191       -3.0450  -21.6790  -44.6141 H         1 UNK         0.0600 
    192 H192       -3.4230  -21.2891  -42.2124 H         1 UNK         0.0600 
    193 H193       -1.8287  -20.7034  -42.6584 H         1 UNK         0.0600 
    194 H194       -2.0008  -22.2335  -41.7934 H         1 UNK         0.0600 
    195 H195       -1.8632  -24.8188  -44.0406 H         1 UNK         0.3000 
    196 H196       -4.2699  -26.1535  -43.2123 H         1 UNK         0.0600 
    197 H197       -3.0796  -28.1750  -44.0825 H         1 UNK         0.0600 
    198 H198       -2.0281  -27.2123  -43.0561 H         1 UNK         0.0600 
    199 H199       -1.8464  -27.1509  -44.8091 H         1 UNK         0.0600 
    200 H200       -3.0937  -24.9221  -46.3110 H         1 UNK         0.3000 
    201 H201       -5.5357  -25.9436  -47.7204 H         1 UNK         0.0600 
    202 H202       -3.4662  -26.7282  -48.7823 H         1 UNK         0.0600 
    203 H203       -2.8100  -25.0968  -48.8224 H         1 UNK         0.0600 
    204 H204       -4.2186  -25.5122  -49.8006 H         1 UNK         0.0600 
    205 H205       -3.5014  -23.0965  -46.9941 H         1 UNK         0.3000 
    206 H206       -3.8478  -20.9228  -46.9586 H         1 UNK         0.0600 
    207 H207       -5.5535  -21.4867  -45.2706 H         1 UNK         0.0600 
    208 H208       -6.0869  -20.0971  -46.1905 H         1 UNK         0.0600 
    209 H209       -6.7880  -21.6854  -46.5047 H         1 UNK         0.0600 
    210 H210       -6.9734  -20.5129  -48.2107 H         1 UNK         0.3000 
    211 H211       -6.1113  -19.0893  -50.5108 H         1 UNK         0.0600 
    212 H212       -8.8816  -20.1539  -49.7525 H         1 UNK         0.0600 
    213 H213       -8.5548  -18.9410  -50.9857 H         1 UNK         0.0600 
    214 H214       -8.2142  -18.5832  -49.3020 H         1 UNK         0.0600 
    215 H215       -6.6921  -22.5082  -50.0732 H         1 UNK         0.3000 
    216 H216       -7.0505  -23.0294  -52.9669 H         1 UNK         0.0600 
    217 H217       -7.5208  -25.3197  -52.2272 H         1 UNK         0.0600 
    218 H218       -8.4819  -24.2071  -51.2683 H         1 UNK         0.0600 
    219 H219       -7.0368  -24.9473  -50.5801 H         1 UNK         0.0600 
    220 H220       -4.3800  -22.4280  -51.0093 H         1 UNK         0.3000 
    221 H221       -2.6798  -24.6365  -51.5826 H         1 UNK         0.0600 
    222 H222       -1.9571  -21.7572  -50.8631 H         1 UNK         0.0600 
    223 H223       -2.3235  -23.0187  -49.6973 H         1 UNK         0.0600 
    224 H224       -0.8966  -23.1557  -50.7157 H         1 UNK         0.0600 
    225 H225       -3.3673  -21.6758  -53.4155 H         1 UNK         0.3000 
    226 H226       -2.3081  -22.7155  -55.8410 H         1 UNK         0.0600 
    227 H227       -0.1228  -21.8895  -54.8667 H         1 UNK         0.0600 
    228 H228       -0.6105  -20.8943  -56.2250 H         1 UNK         0.0600 
    229 H229       -0.8431  -20.3079  -54.5836 H         1 UNK         0.0600 
    230 H230       -2.7998  -21.1306  -57.6134 H         1 UNK         0.3000 
    231 H231       -5.3557  -19.9449  -57.3302 H         1 UNK         0.0600 
    232 H232       -4.9298  -19.1280  -59.6554 H         1 UNK         0.0600 
    233 H233       -4.4830  -20.8172  -59.4810 H         1 UNK         0.0600 
    234 H234       -3.2332  -19.5722  -59.5129 H         1 UNK         0.0600 
    235 H235       -2.1383  -18.5783  -56.9566 H         1 UNK         0.3000 
    236 H236       -2.8502  -15.7951  -56.9863 H         1 UNK         0.0600 
    237 H237       -0.4343  -17.2585  -55.7883 H         1 UNK         0.0600 
    238 H238       -0.5425  -16.6133  -57.4274 H         1 UNK         0.0600 
    239 H239       -0.5492  -15.5227  -56.0511 H         1 UNK         0.0600 
    240 H240       -3.2881  -18.2795  -54.5800 H         1 UNK         0.3000 
    241 H241       -3.2484  -16.4841  -52.2800 H         1 UNK         0.0600 
    242 H242       -7.0178  -16.5285  -53.6709 H         1 UNK         0.3800 
    243 H243       -5.6616  -16.9761  -54.6744 H         1 UNK         0.3800 
    244 H244       -4.0557  -19.4251  -52.4260 H         1 UNK         0.0800 
    245 H245       -3.8415  -18.5031  -50.9727 H         1 UNK         0.0800 
    246 H246       -1.5850  -17.6791  -50.0121 H         1 UNK         0.0800 
    247 H247       -1.8912  -19.3546  -49.6161 H         1 UNK         0.0800 
@<TRIPOS>BOND
     1    1    2 1    
     2    1  127 1    
     3    1  128 1    
     4    1  129 1    
     5    2    3 2    
     6    2    4 am   BACKBONE|DICT|INTERRES
     7    4    5 1    
     8    4  130 1    
     9    5    6 1    
    10    5   65 1    
    11    5  131 1    
    12    6    7 1    
    13    6  132 1    
    14    6  133 1    
    15    7    8 1    
    16    8    9 1    
    17    8  134 1    
    18    8  135 1    
    19    9   10 ar   
    20    9   14 ar   
    21   10   11 ar   
    22   10  136 1    
    23   11   12 ar   
    24   11  126 1    
    25   12   13 ar   
    26   12  137 1    
    27   13   14 ar   
    28   13   15 1    
    29   14  138 1    
    30   15   16 1    
    31   15  139 1    
    32   15  140 1    
    33   16   17 1    
    34   17   18 1    
    35   17  141 1    
    36   17  142 1    
    37   18   19 1    
    38   18   67 1    
    39   18  143 1    
    40   19   20 am   BACKBONE|DICT|INTERRES
    41   19  144 1    
    42   20   21 2    
    43   20   22 1    
    44   22   23 1    
    45   22   24 1    
    46   22  145 1    
    47   23  146 1    
    48   23  147 1    
    49   23  148 1    
    50   24   25 am   BACKBONE|DICT|INTERRES
    51   24  149 1    
    52   25   26 2    
    53   25   27 1    
    54   27   28 1    
    55   27   29 1    
    56   27  150 1    
    57   28  151 1    
    58   28  152 1    
    59   28  153 1    
    60   29   30 am   BACKBONE|DICT|INTERRES
    61   29  154 1    
    62   30   31 2    
    63   30   32 1    
    64   32   33 1    
    65   32   34 1    
    66   32  155 1    
    67   33  156 1    
    68   33  157 1    
    69   33  158 1    
    70   34   35 am   BACKBONE|DICT|INTERRES
    71   34  159 1    
    72   35   36 2    
    73   35   37 1    
    74   37   38 1    
    75   37   39 1    
    76   37  160 1    
    77   38  161 1    
    78   38  162 1    
    79   38  163 1    
    80   39   40 am   BACKBONE|DICT|INTERRES
    81   39  164 1    
    82   40   41 2    
    83   40   42 1    
    84   42   43 1    
    85   42   44 1    
    86   42  165 1    
    87   43  166 1    
    88   43  167 1    
    89   43  168 1    
    90   44   45 am   BACKBONE|DICT|INTERRES
    91   44  169 1    
    92   45   46 2    
    93   45   47 1    
    94   47   48 1    
    95   47   49 1    
    96   47  170 1    
    97   48  171 1    
    98   48  172 1    
    99   48  173 1    
   100   49   50 am   BACKBONE|DICT|INTERRES
   101   49  174 1    
   102   50   51 2    
   103   50   52 1    
   104   52   53 1    
   105   52   54 1    
   106   52  175 1    
   107   53  176 1    
   108   53  177 1    
   109   53  178 1    
   110   54   55 am   BACKBONE|DICT|INTERRES
   111   54  179 1    
   112   55   56 2    
   113   55   57 1    
   114   57   58 1    
   115   57   59 1    
   116   57  180 1    
   117   58  181 1    
   118   58  182 1    
   119   58  183 1    
   120   59   60 am   BACKBONE|DICT|INTERRES
   121   59  184 1    
   122   60   61 2    
   123   60   62 1    
   124   62   63 1    
   125   62   64 1    
   126   62  185 1    
   127   63  186 1    
   128   63  187 1    
   129   63  188 1    
   130   64   65 am   BACKBONE|DICT|INTERRES
   131   64  189 1    
   132   65   66 2    
   133   67   68 2    
   134   67   69 am   BACKBONE|DICT|INTERRES
   135   69   70 1    
   136   69  190 1    
   137   70   71 1    
   138   70   72 1    
   139   70  191 1    
   140   71  192 1    
   141   71  193 1    
   142   71  194 1    
   143   72   73 2    
   144   72   74 am   BACKBONE|DICT|INTERRES
   145   74   75 1    
   146   74  195 1    
   147   75   76 1    
   148   75   77 1    
   149   75  196 1    
   150   76  197 1    
   151   76  198 1    
   152   76  199 1    
   153   77   78 2    
   154   77   79 am   BACKBONE|DICT|INTERRES
   155   79   80 1    
   156   79  200 1    
   157   80   81 1    
   158   80   82 1    
   159   80  201 1    
   160   81  202 1    
   161   81  203 1    
   162   81  204 1    
   163   82   83 2    
   164   82   84 am   BACKBONE|DICT|INTERRES
   165   84   85 1    
   166   84  205 1    
   167   85   86 1    
   168   85   87 1    
   169   85  206 1    
   170   86  207 1    
   171   86  208 1    
   172   86  209 1    
   173   87   88 2    
   174   87   89 am   BACKBONE|DICT|INTERRES
   175   89   90 1    
   176   89  210 1    
   177   90   91 1    
   178   90   92 1    
   179   90  211 1    
   180   91  212 1    
   181   91  213 1    
   182   91  214 1    
   183   92   93 2    
   184   92   94 am   BACKBONE|DICT|INTERRES
   185   94   95 1    
   186   94  215 1    
   187   95   96 1    
   188   95   97 1    
   189   95  216 1    
   190   96  217 1    
   191   96  218 1    
   192   96  219 1    
   193   97   98 2    
   194   97   99 am   BACKBONE|DICT|INTERRES
   195   99  100 1    
   196   99  220 1    
   197  100  101 1    
   198  100  102 1    
   199  100  221 1    
   200  101  222 1    
   201  101  223 1    
   202  101  224 1    
   203  102  103 2    
   204  102  104 am   BACKBONE|DICT|INTERRES
   205  104  105 1    
   206  104  225 1    
   207  105  106 1    
   208  105  107 1    
   209  105  226 1    
   210  106  227 1    
   211  106  228 1    
   212  106  229 1    
   213  107  108 2    
   214  107  109 am   BACKBONE|DICT|INTERRES
   215  109  110 1    
   216  109  230 1    
   217  110  111 1    
   218  110  112 1    
   219  110  231 1    
   220  111  232 1    
   221  111  233 1    
   222  111  234 1    
   223  112  113 2    
   224  112  114 am   BACKBONE|DICT|INTERRES
   225  114  115 1    
   226  114  235 1    
   227  115  116 1    
   228  115  117 1    
   229  115  236 1    
   230  116  237 1    
   231  116  238 1    
   232  116  239 1    
   233  117  118 2    
   234  117  119 am   BACKBONE|DICT|INTERRES
   235  119  120 1    
   236  119  240 1    
   237  120  121 1    
   238  120  124 1    
   239  120  241 1    
   240  121  122 am   BACKBONE|DICT|INTERRES
   241  121  123 2    
   242  122  242 1    
   243  122  243 1    
   244  124  125 1    
   245  124  244 1    
   246  124  245 1    
   247  125  126 1    
   248  126  246 1    
   249  126  247 1    
@<TRIPOS>SUBSTRUCTURE
     1 UNK         1 GROUP             0       ****    0 ROOT    
