@<TRIPOS>MOLECULE
3R540
247   249    1
SMALL
USER_CHARGES


@<TRIPOS>ATOM
      1 CA          4.7284  -17.4916  -45.9959 C.3       0 UNK        -0.1800 
      2 C           3.5132  -16.5809  -46.0800 C.2       0 UNK         0.5000 
      3 O           3.1445  -15.9649  -45.0838 O.2       0 UNK        -0.5000 
      4 N           2.8997  -16.4802  -47.2663 N.am      1 UNK        -0.5000 
      5 CA          1.6583  -15.7384  -47.5442 C.3       1 UNK         0.1400 
      6 C6          1.1861  -15.9560  -49.0031 C.3       23 UNK        -0.0398 
      7 S7          0.8393  -17.7119  -49.3700 S.3       23 UNK        -0.2404 
      8 C8         -0.1292  -17.5802  -50.9110 C.3       23 UNK        -0.0205 
      9 C9         -1.6436  -17.6127  -50.7096 C.ar      23 UNK        -0.0193 
     10 C10        -2.4382  -18.3204  -51.6166 C.ar      23 UNK        -0.1150 
     11 C11        -3.8301  -18.3581  -51.4863 C.ar      23 UNK        -0.0193 
     12 C12        -4.4297  -17.6719  -50.4216 C.ar      23 UNK        -0.1150 
     13 C13        -3.6532  -16.9549  -49.5075 C.ar      23 UNK        -0.0193 
     14 C14        -2.2650  -16.9229  -49.6635 C.ar      23 UNK        -0.1150 
     15 C15        -4.3142  -16.1933  -48.3655 C.3       23 UNK        -0.0205 
     16 S16        -3.6726  -16.6791  -46.7299 S.3       23 UNK        -0.2404 
     17 C17        -4.3790  -18.3476  -46.5115 C.3       23 UNK        -0.0398 
     18 CA         -3.4385  -19.4804  -46.9957 C.3       11 UNK         0.1400 
     19 N          -2.1706  -19.5336  -46.2497 N.am      11 UNK        -0.5000 
     20 C          -1.0986  -20.2498  -46.6181 C.2       10 UNK         0.5000 
     21 O          -1.0608  -20.9309  -47.6424 O.2       10 UNK        -0.5000 
     22 CA          0.0889  -20.3198  -45.6405 C.3       10 UNK         0.1400 
     23 CB          1.0814  -19.1855  -45.9061 C.3       10 UNK        -0.1800 
     24 N          -0.2985  -20.3178  -44.2281 N.am      10 UNK        -0.5000 
     25 C          -1.0713  -21.2405  -43.6362 C.2       9 UNK         0.5000 
     26 O          -1.6011  -22.1740  -44.2390 O.2       9 UNK        -0.5000 
     27 CA         -1.3064  -21.0861  -42.1256 C.3       9 UNK         0.1400 
     28 CB         -0.0921  -21.5867  -41.3285 C.3       9 UNK        -0.1800 
     29 N          -1.5828  -19.6942  -41.7810 N.am      9 UNK        -0.5000 
     30 C          -2.7927  -19.1255  -41.8739 C.2       8 UNK         0.5000 
     31 O          -3.8215  -19.7447  -42.1474 O.2       8 UNK        -0.5000 
     32 CA         -2.8675  -17.6023  -41.6501 C.3       8 UNK         0.1400 
     33 CB         -3.1651  -17.2856  -40.1771 C.3       8 UNK        -0.1800 
     34 N          -1.6557  -16.8910  -42.0635 N.am      8 UNK        -0.5000 
     35 C          -1.2021  -16.8375  -43.3247 C.2       7 UNK         0.5000 
     36 O          -1.7469  -17.4066  -44.2678 O.2       7 UNK        -0.5000 
     37 CA          0.1153  -16.0782  -43.5630 C.3       7 UNK         0.1400 
     38 CB         -0.1600  -14.5829  -43.7737 C.3       7 UNK        -0.1800 
     39 N           1.1023  -16.2562  -42.4964 N.am      7 UNK        -0.5000 
     40 C           1.5516  -17.4386  -42.0483 C.2       6 UNK         0.5000 
     41 O           1.1847  -18.5253  -42.4979 O.2       6 UNK        -0.5000 
     42 CA          2.5293  -17.4161  -40.8600 C.3       6 UNK         0.1400 
     43 CB          3.9806  -17.3960  -41.3559 C.3       6 UNK        -0.1800 
     44 N           2.3200  -16.2928  -39.9455 N.am      6 UNK        -0.5000 
     45 C           1.2106  -16.0462  -39.2380 C.2       5 UNK         0.5000 
     46 O           0.2073  -16.7586  -39.2793 O.2       5 UNK        -0.5000 
     47 CA          1.1973  -14.7763  -38.3615 C.3       5 UNK         0.1400 
     48 CB          1.8532  -15.0363  -36.9920 C.3       5 UNK        -0.1800 
     49 N           1.7546  -13.5813  -39.0144 N.am      5 UNK        -0.5000 
     50 C           3.0176  -13.3388  -39.3913 C.2       4 UNK         0.5000 
     51 O           3.9632  -14.1047  -39.1891 O.2       4 UNK        -0.5000 
     52 CA          3.2570  -12.0246  -40.1560 C.3       4 UNK         0.1400 
     53 CB          3.9198  -10.9808  -39.2445 C.3       4 UNK        -0.1800 
     54 N           4.0893  -12.2250  -41.3439 N.am      4 UNK        -0.5000 
     55 C           3.7724  -13.0115  -42.3812 C.2       3 UNK         0.5000 
     56 O           2.7289  -13.6648  -42.4522 O.2       3 UNK        -0.5000 
     57 CA          4.8095  -13.0911  -43.5131 C.3       3 UNK         0.1400 
     58 CB          5.7075  -14.3276  -43.3577 C.3       3 UNK        -0.1800 
     59 N           4.1553  -13.1364  -44.8198 N.am      3 UNK        -0.5000 
     60 C           3.8457  -12.0503  -45.5418 C.2       2 UNK         0.5000 
     61 O           4.0663  -10.9014  -45.1545 O.2       2 UNK        -0.5000 
     62 CA          3.2190  -12.2526  -46.9370 C.3       2 UNK         0.1400 
     63 CB          4.1488  -11.6968  -48.0294 C.3       2 UNK        -0.1800 
     64 N           2.9474  -13.6579  -47.2422 N.am      2 UNK        -0.5000 
     65 C           1.7352  -14.2266  -47.2290 C.2       1 UNK         0.5000 
     66 O           0.6964  -13.6126  -46.9844 O.2       1 UNK        -0.5000 
     67 C          -4.1916  -20.8348  -47.0667 C.2       11 UNK         0.5000 
     68 O          -5.2061  -20.9126  -47.7602 O.2       11 UNK        -0.5000 
     69 N          -3.6862  -21.8787  -46.3957 N.am      12 UNK        -0.5000 
     70 CA         -4.0565  -23.2731  -46.6145 C.3       12 UNK         0.1400 
     71 CB         -4.6254  -23.8636  -45.3141 C.3       12 UNK        -0.1800 
     72 C          -2.8334  -24.0721  -47.1002 C.2       12 UNK         0.5000 
     73 O          -2.9069  -24.7233  -48.1425 O.2       12 UNK        -0.5000 
     74 N          -1.7328  -24.0134  -46.3370 N.am      13 UNK        -0.5000 
     75 CA         -0.5487  -24.8579  -46.5028 C.3       13 UNK         0.1400 
     76 CB          0.3493  -24.7131  -45.2641 C.3       13 UNK        -0.1800 
     77 C           0.2577  -24.5897  -47.7852 C.2       13 UNK         0.5000 
     78 O           0.6968  -25.5437  -48.4281 O.2       13 UNK        -0.5000 
     79 N           0.4441  -23.3104  -48.1335 N.am      14 UNK        -0.5000 
     80 CA          1.1324  -22.8905  -49.3551 C.3       14 UNK         0.1400 
     81 CB          1.8428  -21.5467  -49.1286 C.3       14 UNK        -0.1800 
     82 C           0.1421  -22.8010  -50.5243 C.2       14 UNK         0.5000 
     83 O           0.4877  -23.1972  -51.6368 O.2       14 UNK        -0.5000 
     84 N          -1.0854  -22.3389  -50.2354 N.am      15 UNK        -0.5000 
     85 CA         -2.2184  -22.2346  -51.1601 C.3       15 UNK         0.1400 
     86 CB         -3.4550  -21.7696  -50.3875 C.3       15 UNK        -0.1800 
     87 C          -2.5350  -23.5373  -51.9128 C.2       15 UNK         0.5000 
     88 O          -2.8583  -23.4845  -53.0979 O.2       15 UNK        -0.5000 
     89 N          -2.3552  -24.6831  -51.2405 N.am      16 UNK        -0.5000 
     90 CA         -2.4559  -26.0350  -51.7981 C.3       16 UNK         0.1400 
     91 CB         -2.1411  -27.0469  -50.6860 C.3       16 UNK        -0.1800 
     92 C          -1.5626  -26.3021  -53.0315 C.2       16 UNK         0.5000 
     93 O          -1.8759  -27.2030  -53.8106 O.2       16 UNK        -0.5000 
     94 N          -0.4889  -25.5185  -53.1975 N.am      17 UNK        -0.5000 
     95 CA          0.4258  -25.5527  -54.3366 C.3       17 UNK         0.1400 
     96 CB          1.7945  -26.0562  -53.8442 C.3       17 UNK        -0.1800 
     97 C           0.5339  -24.1716  -55.0182 C.2       17 UNK         0.5000 
     98 O           1.4927  -23.9410  -55.7573 O.2       17 UNK        -0.5000 
     99 N          -0.4270  -23.2707  -54.7678 N.am      18 UNK        -0.5000 
    100 CA        -0.4116  -21.8845  -55.2322 C.3       18 UNK         0.1400 
    101 CB         0.3672  -21.0035  -54.2341 C.3       18 UNK        -0.1800 
    102 C         -1.8450  -21.3927  -55.4899 C.2       18 UNK         0.5000 
    103 O         -2.2571  -20.3783  -54.9256 O.2       18 UNK        -0.5000 
    104 N         -2.5645  -22.1302  -56.3512 N.am      19 UNK        -0.5000 
    105 CA        -3.9254  -21.8650  -56.8355 C.3       19 UNK         0.1400 
    106 CB        -3.9543  -20.5908  -57.7061 C.3       19 UNK        -0.1800 
    107 C         -4.9568  -21.8245  -55.6915 C.2       19 UNK         0.5000 
    108 O         -5.4522  -20.7540  -55.3411 O.2       19 UNK        -0.5000 
    109 N         -5.2532  -23.0075  -55.1371 N.am      20 UNK        -0.5000 
    110 CA        -6.0436  -23.2477  -53.9217 C.3       20 UNK         0.1400 
    111 CB        -6.0565  -24.7603  -53.6476 C.3       20 UNK        -0.1800 
    112 C         -7.4839  -22.6906  -53.8969 C.2       20 UNK         0.5000 
    113 O         -8.0835  -22.6417  -52.8221 O.2       20 UNK        -0.5000 
    114 N         -8.0220  -22.2805  -55.0534 N.am      21 UNK        -0.5000 
    115 CA        -9.2738  -21.5257  -55.1544 C.3       21 UNK         0.1400 
    116 CB        -9.7293  -21.5030  -56.6215 C.3       21 UNK        -0.1800 
    117 C         -9.1418  -20.0885  -54.6052 C.2       21 UNK         0.5000 
    118 O        -10.1101  -19.5554  -54.0624 O.2       21 UNK        -0.5000 
    119 N         -7.9435  -19.5057  -54.7500 N.am      22 UNK        -0.5000 
    120 CA        -7.5054  -18.2007  -54.2255 C.3       22 UNK         0.1400 
    121 C         -8.2972  -16.9604  -54.7433 C.2       22 UNK         0.5000 
    122 N         -9.0053  -17.0512  -55.8623 N.am      22 UNK        -0.7600 
    123 O         -8.2467  -15.8884  -54.1459 O.2       22 UNK        -0.5000 
    124 C124       -7.3111  -18.1959  -52.6806 C.3       23 UNK        -0.0398 
    125 S125       -6.3288  -19.6070  -52.0548 S.3       23 UNK        -0.2404 
    126 C126       -4.6290  -19.1362  -52.5329 C.3       23 UNK        -0.0205 
    127 H127        5.6098  -16.9151  -45.7152 H         1 UNK         0.0600 
    128 H128        4.9306  -17.9873  -46.9456 H         1 UNK         0.0600 
    129 H129        4.5662  -18.2588  -45.2388 H         1 UNK         0.0600 
    130 H130        3.2556  -17.0152  -48.0457 H         1 UNK         0.3000 
    131 H131        0.8898  -16.1418  -46.8833 H         1 UNK         0.0600 
    132 H132        0.2895  -15.3696  -49.2078 H         1 UNK         0.0800 
    133 H133        1.9428  -15.6016  -49.7052 H         1 UNK         0.0800 
    134 H134        0.1724  -18.4103  -51.5519 H         1 UNK         0.0800 
    135 H135        0.1414  -16.6697  -51.4468 H         1 UNK         0.0800 
    136 H136       -1.9713  -18.8433  -52.4405 H         1 UNK         0.1150 
    137 H137       -5.5023  -17.6825  -50.2996 H         1 UNK         0.1150 
    138 H138       -1.6762  -16.3643  -48.9528 H         1 UNK         0.1150 
    139 H139       -4.1286  -15.1281  -48.5085 H         1 UNK         0.0800 
    140 H140       -5.3978  -16.3191  -48.3807 H         1 UNK         0.0800 
    141 H141       -5.3353  -18.3780  -47.0367 H         1 UNK         0.0800 
    142 H142       -4.6109  -18.4823  -45.4537 H         1 UNK         0.0800 
    143 H143       -3.1712  -19.2578  -48.0296 H         1 UNK         0.0600 
    144 H144       -2.1066  -18.9462  -45.4221 H         1 UNK         0.3000 
    145 H145        0.6086  -21.2621  -45.8229 H         1 UNK         0.0600 
    146 H146        1.8986  -19.1883  -45.1847 H         1 UNK         0.0600 
    147 H147        1.5231  -19.2805  -46.8978 H         1 UNK         0.0600 
    148 H148        0.5888  -18.2169  -45.8593 H         1 UNK         0.0600 
    149 H149        0.1198  -19.5952  -43.6481 H         1 UNK         0.3000 
    150 H150       -2.1633  -21.7059  -41.8528 H         1 UNK         0.0600 
    151 H151        0.1166  -22.6329  -41.5558 H         1 UNK         0.0600 
    152 H152       -0.2706  -21.5164  -40.2555 H         1 UNK         0.0600 
    153 H153        0.8093  -21.0169  -41.5554 H         1 UNK         0.0600 
    154 H154       -0.7812  -19.1028  -41.6039 H         1 UNK         0.3000 
    155 H155       -3.6944  -17.2231  -42.2542 H         1 UNK         0.0600 
    156 H156       -2.3726  -17.6461  -39.5204 H         1 UNK         0.0600 
    157 H157       -4.0950  -17.7574  -39.8573 H         1 UNK         0.0600 
    158 H158       -3.2731  -16.2128  -40.0165 H         1 UNK         0.0600 
    159 H159       -1.1124  -16.4538  -41.3315 H         1 UNK         0.3000 
    160 H160        0.5578  -16.4667  -44.4784 H         1 UNK         0.0600 
    161 H161       -0.9283  -14.4288  -44.5328 H         1 UNK         0.0600 
    162 H162        0.7351  -14.0660  -44.1191 H         1 UNK         0.0600 
    163 H163       -0.4970  -14.1000  -42.8560 H         1 UNK         0.0600 
    164 H164        1.5249  -15.4095  -42.1330 H         1 UNK         0.3000 
    165 H165        2.3733  -18.3368  -40.2944 H         1 UNK         0.0600 
    166 H166        4.6823  -17.5148  -40.5302 H         1 UNK         0.0600 
    167 H167        4.1678  -18.2040  -42.0646 H         1 UNK         0.0600 
    168 H168        4.2092  -16.4568  -41.8570 H         1 UNK         0.0600 
    169 H169        3.0898  -15.6381  -39.8364 H         1 UNK         0.3000 
    170 H170        0.1477  -14.5424  -38.1761 H         1 UNK         0.0600 
    171 H171        1.3485  -15.8502  -36.4701 H         1 UNK         0.0600 
    172 H172        2.9031  -15.3146  -37.0851 H         1 UNK         0.0600 
    173 H173        1.7946  -14.1551  -36.3532 H         1 UNK         0.0600 
    174 H174        1.0621  -12.8869  -39.2590 H         1 UNK         0.3000 
    175 H175        2.2958  -11.6290  -40.4909 H         1 UNK         0.0600 
    176 H176        3.3110  -10.7929  -38.3591 H         1 UNK         0.0600 
    177 H177        4.0450  -10.0281  -39.7595 H         1 UNK         0.0600 
    178 H178        4.9020  -11.3106  -38.9031 H         1 UNK         0.0600 
    179 H179        4.9805  -11.7511  -41.3461 H         1 UNK         0.3000 
    180 H180        5.4524  -12.2099  -43.4570 H         1 UNK         0.0600 
    181 H181        5.1525  -15.2513  -43.5118 H         1 UNK         0.0600 
    182 H182        6.1528  -14.3705  -42.3629 H         1 UNK         0.0600 
    183 H183        6.5237  -14.3103  -44.0800 H         1 UNK         0.0600 
    184 H184        3.8229  -14.0478  -45.1168 H         1 UNK         0.3000 
    185 H185        2.2944  -11.6722  -46.9571 H         1 UNK         0.0600 
    186 H186        4.3508  -10.6363  -47.8731 H         1 UNK         0.0600 
    187 H187        5.1082  -12.2155  -48.0438 H         1 UNK         0.0600 
    188 H188        3.6986  -11.7963  -49.0173 H         1 UNK         0.0600 
    189 H189        3.7475  -14.2396  -47.4453 H         1 UNK         0.3000 
    190 H190       -2.8654  -21.7266  -45.8218 H         1 UNK         0.3000 
    191 H191       -4.8241  -23.3550  -47.3868 H         1 UNK         0.0600 
    192 H192       -4.8798  -24.9165  -45.4417 H         1 UNK         0.0600 
    193 H193       -3.9160  -23.7929  -44.4887 H         1 UNK         0.0600 
    194 H194       -5.5350  -23.3428  -45.0149 H         1 UNK         0.0600 
    195 H195       -1.7434  -23.4269  -45.5047 H         1 UNK         0.3000 
    196 H196       -0.8916  -25.8938  -46.5468 H         1 UNK         0.0600 
    197 H197        1.2232  -25.3619  -45.3359 H         1 UNK         0.0600 
    198 H198       -0.1857  -24.9882  -44.3550 H         1 UNK         0.0600 
    199 H199        0.7083  -23.6906  -45.1431 H         1 UNK         0.0600 
    200 H200       -0.0291  -22.5807  -47.6133 H         1 UNK         0.3000 
    201 H201        1.8963  -23.6266  -49.6151 H         1 UNK         0.0600 
    202 H202        2.5112  -21.5908  -48.2688 H         1 UNK         0.0600 
    203 H203        1.1380  -20.7327  -48.9653 H         1 UNK         0.0600 
    204 H204        2.4453  -21.2786  -49.9972 H         1 UNK         0.0600 
    205 H205       -1.2405  -21.9855  -49.2966 H         1 UNK         0.3000 
    206 H206       -1.9725  -21.4742  -51.9026 H         1 UNK         0.0600 
    207 H207       -3.7060  -22.4604  -49.5839 H         1 UNK         0.0600 
    208 H208       -3.2966  -20.7838  -49.9524 H         1 UNK         0.0600 
    209 H209       -4.3276  -21.7039  -51.0371 H         1 UNK         0.0600 
    210 H210       -2.1289  -24.6246  -50.2550 H         1 UNK         0.3000 
    211 H211       -3.4908  -26.1828  -52.1096 H         1 UNK         0.0600 
    212 H212       -1.1320  -26.9101  -50.2947 H         1 UNK         0.0600 
    213 H213       -2.2168  -28.0715  -51.0524 H         1 UNK         0.0600 
    214 H214       -2.8387  -26.9489  -49.8540 H         1 UNK         0.0600 
    215 H215       -0.3022  -24.7840  -52.5199 H         1 UNK         0.3000 
    216 H216        0.0616  -26.2427  -55.0999 H         1 UNK         0.0600 
    217 H217        2.5012  -26.1553  -54.6689 H         1 UNK         0.0600 
    218 H218        1.7074  -27.0365  -53.3753 H         1 UNK         0.0600 
    219 H219        2.2308  -25.3732  -53.1140 H         1 UNK         0.0600 
    220 H220       -1.2187  -23.5284  -54.1847 H         1 UNK         0.3000 
    221 H221        0.0999  -21.8296  -56.1954 H         1 UNK         0.0600 
    222 H222        0.4207  -19.9710  -54.5810 H         1 UNK         0.0600 
    223 H223        1.3907  -21.3569  -54.1091 H         1 UNK         0.0600 
    224 H224       -0.1028  -20.9958  -53.2513 H         1 UNK         0.0600 
    225 H225       -2.1286  -22.9628  -56.7221 H         1 UNK         0.3000 
    226 H226       -4.1976  -22.7024  -57.4799 H         1 UNK         0.0600 
    227 H227       -4.9489  -20.4277  -58.1227 H         1 UNK         0.0600 
    228 H228       -3.6908  -19.6990  -57.1364 H         1 UNK         0.0600 
    229 H229       -3.2604  -20.6698  -58.5428 H         1 UNK         0.0600 
    230 H230       -4.7776  -23.8201  -55.5004 H         1 UNK         0.3000 
    231 H231       -5.5134  -22.7580  -53.1029 H         1 UNK         0.0600 
    232 H232       -5.0448  -25.1601  -53.5893 H         1 UNK         0.0600 
    233 H233       -6.5864  -25.3039  -54.4305 H         1 UNK         0.0600 
    234 H234       -6.5474  -24.9847  -52.6997 H         1 UNK         0.0600 
    235 H235       -7.4660  -22.3616  -55.8913 H         1 UNK         0.3000 
    236 H236      -10.0374  -22.0399  -54.5669 H         1 UNK         0.0600 
    237 H237       -9.8900  -22.5127  -57.0000 H         1 UNK         0.0600 
    238 H238      -10.6708  -20.9628  -56.7291 H         1 UNK         0.0600 
    239 H239       -8.9952  -21.0156  -57.2643 H         1 UNK         0.0600 
    240 H240       -7.1887  -20.0567  -55.1505 H         1 UNK         0.3000 
    241 H241       -6.5178  -18.0604  -54.6635 H         1 UNK         0.0600 
    242 H242       -9.5083  -16.2456  -56.2001 H         1 UNK         0.3800 
    243 H243       -9.0533  -17.9221  -56.3664 H         1 UNK         0.3800 
    244 H244       -8.2824  -18.2197  -52.1848 H         1 UNK         0.0800 
    245 H245       -6.8274  -17.2725  -52.3585 H         1 UNK         0.0800 
    246 H246       -4.6448  -18.5631  -53.4593 H         1 UNK         0.0800 
    247 H247       -4.0956  -20.0570  -52.7731 H         1 UNK         0.0800 
@<TRIPOS>BOND
     1    1    2 1    
     2    1  127 1    
     3    1  128 1    
     4    1  129 1    
     5    2    3 2    
     6    2    4 am   BACKBONE|DICT|INTERRES
     7    4    5 1    
     8    4  130 1    
     9    5    6 1    
    10    5   65 1    
    11    5  131 1    
    12    6    7 1    
    13    6  132 1    
    14    6  133 1    
    15    7    8 1    
    16    8    9 1    
    17    8  134 1    
    18    8  135 1    
    19    9   10 ar   
    20    9   14 ar   
    21   10   11 ar   
    22   10  136 1    
    23   11   12 ar   
    24   11  126 1    
    25   12   13 ar   
    26   12  137 1    
    27   13   14 ar   
    28   13   15 1    
    29   14  138 1    
    30   15   16 1    
    31   15  139 1    
    32   15  140 1    
    33   16   17 1    
    34   17   18 1    
    35   17  141 1    
    36   17  142 1    
    37   18   19 1    
    38   18   67 1    
    39   18  143 1    
    40   19   20 am   BACKBONE|DICT|INTERRES
    41   19  144 1    
    42   20   21 2    
    43   20   22 1    
    44   22   23 1    
    45   22   24 1    
    46   22  145 1    
    47   23  146 1    
    48   23  147 1    
    49   23  148 1    
    50   24   25 am   BACKBONE|DICT|INTERRES
    51   24  149 1    
    52   25   26 2    
    53   25   27 1    
    54   27   28 1    
    55   27   29 1    
    56   27  150 1    
    57   28  151 1    
    58   28  152 1    
    59   28  153 1    
    60   29   30 am   BACKBONE|DICT|INTERRES
    61   29  154 1    
    62   30   31 2    
    63   30   32 1    
    64   32   33 1    
    65   32   34 1    
    66   32  155 1    
    67   33  156 1    
    68   33  157 1    
    69   33  158 1    
    70   34   35 am   BACKBONE|DICT|INTERRES
    71   34  159 1    
    72   35   36 2    
    73   35   37 1    
    74   37   38 1    
    75   37   39 1    
    76   37  160 1    
    77   38  161 1    
    78   38  162 1    
    79   38  163 1    
    80   39   40 am   BACKBONE|DICT|INTERRES
    81   39  164 1    
    82   40   41 2    
    83   40   42 1    
    84   42   43 1    
    85   42   44 1    
    86   42  165 1    
    87   43  166 1    
    88   43  167 1    
    89   43  168 1    
    90   44   45 am   BACKBONE|DICT|INTERRES
    91   44  169 1    
    92   45   46 2    
    93   45   47 1    
    94   47   48 1    
    95   47   49 1    
    96   47  170 1    
    97   48  171 1    
    98   48  172 1    
    99   48  173 1    
   100   49   50 am   BACKBONE|DICT|INTERRES
   101   49  174 1    
   102   50   51 2    
   103   50   52 1    
   104   52   53 1    
   105   52   54 1    
   106   52  175 1    
   107   53  176 1    
   108   53  177 1    
   109   53  178 1    
   110   54   55 am   BACKBONE|DICT|INTERRES
   111   54  179 1    
   112   55   56 2    
   113   55   57 1    
   114   57   58 1    
   115   57   59 1    
   116   57  180 1    
   117   58  181 1    
   118   58  182 1    
   119   58  183 1    
   120   59   60 am   BACKBONE|DICT|INTERRES
   121   59  184 1    
   122   60   61 2    
   123   60   62 1    
   124   62   63 1    
   125   62   64 1    
   126   62  185 1    
   127   63  186 1    
   128   63  187 1    
   129   63  188 1    
   130   64   65 am   BACKBONE|DICT|INTERRES
   131   64  189 1    
   132   65   66 2    
   133   67   68 2    
   134   67   69 am   BACKBONE|DICT|INTERRES
   135   69   70 1    
   136   69  190 1    
   137   70   71 1    
   138   70   72 1    
   139   70  191 1    
   140   71  192 1    
   141   71  193 1    
   142   71  194 1    
   143   72   73 2    
   144   72   74 am   BACKBONE|DICT|INTERRES
   145   74   75 1    
   146   74  195 1    
   147   75   76 1    
   148   75   77 1    
   149   75  196 1    
   150   76  197 1    
   151   76  198 1    
   152   76  199 1    
   153   77   78 2    
   154   77   79 am   BACKBONE|DICT|INTERRES
   155   79   80 1    
   156   79  200 1    
   157   80   81 1    
   158   80   82 1    
   159   80  201 1    
   160   81  202 1    
   161   81  203 1    
   162   81  204 1    
   163   82   83 2    
   164   82   84 am   BACKBONE|DICT|INTERRES
   165   84   85 1    
   166   84  205 1    
   167   85   86 1    
   168   85   87 1    
   169   85  206 1    
   170   86  207 1    
   171   86  208 1    
   172   86  209 1    
   173   87   88 2    
   174   87   89 am   BACKBONE|DICT|INTERRES
   175   89   90 1    
   176   89  210 1    
   177   90   91 1    
   178   90   92 1    
   179   90  211 1    
   180   91  212 1    
   181   91  213 1    
   182   91  214 1    
   183   92   93 2    
   184   92   94 am   BACKBONE|DICT|INTERRES
   185   94   95 1    
   186   94  215 1    
   187   95   96 1    
   188   95   97 1    
   189   95  216 1    
   190   96  217 1    
   191   96  218 1    
   192   96  219 1    
   193   97   98 2    
   194   97   99 am   BACKBONE|DICT|INTERRES
   195   99  100 1    
   196   99  220 1    
   197  100  101 1    
   198  100  102 1    
   199  100  221 1    
   200  101  222 1    
   201  101  223 1    
   202  101  224 1    
   203  102  103 2    
   204  102  104 am   BACKBONE|DICT|INTERRES
   205  104  105 1    
   206  104  225 1    
   207  105  106 1    
   208  105  107 1    
   209  105  226 1    
   210  106  227 1    
   211  106  228 1    
   212  106  229 1    
   213  107  108 2    
   214  107  109 am   BACKBONE|DICT|INTERRES
   215  109  110 1    
   216  109  230 1    
   217  110  111 1    
   218  110  112 1    
   219  110  231 1    
   220  111  232 1    
   221  111  233 1    
   222  111  234 1    
   223  112  113 2    
   224  112  114 am   BACKBONE|DICT|INTERRES
   225  114  115 1    
   226  114  235 1    
   227  115  116 1    
   228  115  117 1    
   229  115  236 1    
   230  116  237 1    
   231  116  238 1    
   232  116  239 1    
   233  117  118 2    
   234  117  119 am   BACKBONE|DICT|INTERRES
   235  119  120 1    
   236  119  240 1    
   237  120  121 1    
   238  120  124 1    
   239  120  241 1    
   240  121  122 am   BACKBONE|DICT|INTERRES
   241  121  123 2    
   242  122  242 1    
   243  122  243 1    
   244  124  125 1    
   245  124  244 1    
   246  124  245 1    
   247  125  126 1    
   248  126  246 1    
   249  126  247 1    
@<TRIPOS>SUBSTRUCTURE
     1 UNK         1 GROUP             0       ****    0 ROOT    
