@<TRIPOS>MOLECULE
3R540
247   249    1
SMALL
USER_CHARGES


@<TRIPOS>ATOM
      1 CA          7.3740  -12.2764  -48.3895 C.3       0 UNK        -0.1800 
      2 C           6.8420  -13.6889  -48.5874 C.2       0 UNK         0.5000 
      3 O           7.5783  -14.5627  -49.0468 O.2       0 UNK        -0.5000 
      4 N           5.5653  -13.9107  -48.2529 N.am      1 UNK        -0.5000 
      5 CA          4.8860  -15.2092  -48.3207 C.3       1 UNK         0.1400 
      6 C6          3.3483  -15.0683  -48.1743 C.3       23 UNK        -0.0398 
      7 S7          2.6098  -13.8699  -49.3435 S.3       23 UNK        -0.2404 
      8 C8          2.6768  -14.7564  -50.9350 C.3       23 UNK        -0.0205 
      9 C9          1.7334  -15.9466  -50.9546 C.ar      23 UNK        -0.0193 
     10 C10         0.3913  -15.7784  -51.3014 C.ar      23 UNK        -0.1150 
     11 C11        -0.5004  -16.8619  -51.2791 C.ar      23 UNK        -0.0193 
     12 C12        -0.0233  -18.1147  -50.8747 C.ar      23 UNK        -0.1150 
     13 C13         1.3193  -18.2912  -50.5214 C.ar      23 UNK        -0.0193 
     14 C14         2.1977  -17.2113  -50.5981 C.ar      23 UNK        -0.1150 
     15 C15         1.8265  -19.6304  -50.0101 C.3       23 UNK        -0.0205 
     16 S16         2.3621  -19.5301  -48.2653 S.3       23 UNK        -0.2404 
     17 C17         0.8134  -19.0792  -47.4126 C.3       23 UNK        -0.0398 
     18 CA          0.0929  -20.2953  -46.7846 C.3       11 UNK         0.1400 
     19 N          -0.9033  -19.8889  -45.7914 N.am      11 UNK        -0.5000 
     20 C          -1.6047  -20.7293  -45.0168 C.2       10 UNK         0.5000 
     21 O          -1.4165  -21.9438  -44.9770 O.2       10 UNK        -0.5000 
     22 CA         -2.7600  -20.1200  -44.2050 C.3       10 UNK         0.1400 
     23 CB         -2.2624  -19.5584  -42.8659 C.3       10 UNK        -0.1800 
     24 N          -3.4580  -19.0784  -44.9606 N.am      10 UNK        -0.5000 
     25 C          -4.2236  -19.3171  -46.0361 C.2       9 UNK         0.5000 
     26 O          -4.4698  -20.4466  -46.4579 O.2       9 UNK        -0.5000 
     27 CA         -4.7659  -18.0880  -46.7906 C.3       9 UNK         0.1400 
     28 CB         -6.0727  -17.5956  -46.1518 C.3       9 UNK        -0.1800 
     29 N          -3.8026  -16.9857  -46.8336 N.am      9 UNK        -0.5000 
     30 C          -2.6428  -17.0182  -47.5064 C.2       8 UNK         0.5000 
     31 O          -2.3034  -17.9602  -48.2210 O.2       8 UNK        -0.5000 
     32 CA         -1.6770  -15.8339  -47.2849 C.3       8 UNK         0.1400 
     33 CB         -1.9499  -14.7058  -48.2887 C.3       8 UNK        -0.1800 
     34 N          -1.7581  -15.2952  -45.9228 N.am      8 UNK        -0.5000 
     35 C          -1.4112  -15.9797  -44.8258 C.2       7 UNK         0.5000 
     36 O          -0.9007  -17.1016  -44.8624 O.2       7 UNK        -0.5000 
     37 CA         -1.8014  -15.3531  -43.4794 C.3       7 UNK         0.1400 
     38 CB         -3.3072  -15.6038  -43.2329 C.3       7 UNK        -0.1800 
     39 N          -0.9829  -15.9399  -42.4191 N.am      7 UNK        -0.5000 
     40 C          -1.0592  -15.6813  -41.1065 C.2       6 UNK         0.5000 
     41 O          -1.8308  -14.8623  -40.6061 O.2       6 UNK        -0.5000 
     42 CA         -0.0839  -16.4407  -40.1941 C.3       6 UNK         0.1400 
     43 CB         -0.0920  -17.9588  -40.4488 C.3       6 UNK        -0.1800 
     44 N           1.2603  -15.9155  -40.3967 N.am      6 UNK        -0.5000 
     45 C           1.8339  -14.9669  -39.6438 C.2       5 UNK         0.5000 
     46 O           1.3289  -14.5071  -38.6186 O.2       5 UNK        -0.5000 
     47 CA          3.2048  -14.4319  -40.1077 C.3       5 UNK         0.1400 
     48 CB          4.3395  -15.1132  -39.3272 C.3       5 UNK        -0.1800 
     49 N           3.4451  -14.6087  -41.5406 N.am      5 UNK        -0.5000 
     50 C           2.7806  -13.9742  -42.5167 C.2       4 UNK         0.5000 
     51 O           1.9351  -13.1023  -42.3154 O.2       4 UNK        -0.5000 
     52 CA          3.1014  -14.4017  -43.9632 C.3       4 UNK         0.1400 
     53 CB          4.1724  -13.4624  -44.5418 C.3       4 UNK        -0.1800 
     54 N           3.5366  -15.8009  -44.1094 N.am      4 UNK        -0.5000 
     55 C           2.8389  -16.8769  -43.7045 C.2       3 UNK         0.5000 
     56 O           1.7437  -16.7972  -43.1485 O.2       3 UNK        -0.5000 
     57 CA          3.4734  -18.2608  -43.9311 C.3       3 UNK         0.1400 
     58 CB          2.4446  -19.4053  -43.8772 C.3       3 UNK        -0.1800 
     59 N           4.1920  -18.2935  -45.2035 N.am      3 UNK        -0.5000 
     60 C           5.4460  -18.7338  -45.3654 C.2       2 UNK         0.5000 
     61 O           6.1078  -19.2583  -44.4687 O.2       2 UNK        -0.5000 
     62 CA          6.0941  -18.5296  -46.7515 C.3       2 UNK         0.1400 
     63 CB          6.1293  -19.8488  -47.5387 C.3       2 UNK        -0.1800 
     64 N           5.4783  -17.4832  -47.5795 N.am      2 UNK        -0.5000 
     65 C           5.4535  -16.1807  -47.2622 C.2       1 UNK         0.5000 
     66 O           5.8337  -15.7440  -46.1727 O.2       1 UNK        -0.5000 
     67 C          -0.5263  -21.2085  -47.8622 C.2       11 UNK         0.5000 
     68 O           0.0155  -22.2801  -48.1270 O.2       11 UNK        -0.5000 
     69 N          -1.6664  -20.7941  -48.4347 N.am      12 UNK        -0.5000 
     70 CA         -2.4189  -21.5694  -49.4229 C.3       12 UNK         0.1400 
     71 CB         -3.5841  -20.7309  -49.9651 C.3       12 UNK        -0.1800 
     72 C          -2.9188  -22.9205  -48.8776 C.2       12 UNK         0.5000 
     73 O          -2.8575  -23.9213  -49.5932 O.2       12 UNK        -0.5000 
     74 N          -3.3692  -22.9420  -47.6160 N.am      13 UNK        -0.5000 
     75 CA         -3.7468  -24.1585  -46.8968 C.3       13 UNK         0.1400 
     76 CB         -4.4419  -23.7914  -45.5779 C.3       13 UNK        -0.1800 
     77 C          -2.5499  -25.0977  -46.6571 C.2       13 UNK         0.5000 
     78 O          -2.6596  -26.2921  -46.9331 O.2       13 UNK        -0.5000 
     79 N          -1.4184  -24.5430  -46.1978 N.am      14 UNK        -0.5000 
     80 CA         -0.1609  -25.2640  -45.9724 C.3       14 UNK         0.1400 
     81 CB          0.8417  -24.3400  -45.2642 C.3       14 UNK        -0.1800 
     82 C           0.4495  -25.8404  -47.2648 C.2       14 UNK         0.5000 
     83 O           0.9927  -26.9453  -47.2430 O.2       14 UNK        -0.5000 
     84 N           0.3102  -25.1017  -48.3731 N.am      15 UNK        -0.5000 
     85 CA          0.6958  -25.5110  -49.7250 C.3       15 UNK         0.1400 
     86 CB          0.7650  -24.2582  -50.6143 C.3       15 UNK        -0.1800 
     87 C          -0.2485  -26.5603  -50.3506 C.2       15 UNK         0.5000 
     88 O           0.0636  -27.0763  -51.4243 O.2       15 UNK        -0.5000 
     89 N          -1.3842  -26.8395  -49.6916 N.am      16 UNK        -0.5000 
     90 CA         -2.4675  -27.7396  -50.1022 C.3       16 UNK         0.1400 
     91 CB         -1.9697  -29.1936  -50.2413 C.3       16 UNK        -0.1800 
     92 C          -3.2454  -27.2465  -51.3411 C.2       16 UNK         0.5000 
     93 O          -3.9174  -28.0421  -51.9997 O.2       16 UNK        -0.5000 
     94 N          -3.1716  -25.9383  -51.6187 N.am      17 UNK        -0.5000 
     95 CA         -3.9724  -25.2539  -52.6319 C.3       17 UNK         0.1400 
     96 CB         -3.2247  -23.9953  -53.0971 C.3       17 UNK        -0.1800 
     97 C          -5.3675  -24.8963  -52.0863 C.2       17 UNK         0.5000 
     98 O          -6.3313  -24.8911  -52.8520 O.2       17 UNK        -0.5000 
     99 N          -5.4425  -24.6383  -50.7699 N.am      18 UNK        -0.5000 
    100 CA        -6.6333  -24.3269  -49.9769 C.3       18 UNK         0.1400 
    101 CB        -7.5519  -25.5637  -49.8678 C.3       18 UNK        -0.1800 
    102 C         -7.3408  -23.0578  -50.4866 C.2       18 UNK         0.5000 
    103 O         -6.8358  -21.9577  -50.2569 O.2       18 UNK        -0.5000 
    104 N         -8.4730  -23.2198  -51.1834 N.am      19 UNK        -0.5000 
    105 CA        -9.2672  -22.1573  -51.8038 C.3       19 UNK         0.1400 
    106 CB       -10.6857  -22.6943  -52.0666 C.3       19 UNK        -0.1800 
    107 C         -8.5976  -21.5908  -53.0768 C.2       19 UNK         0.5000 
    108 O         -9.1850  -21.6169  -54.1597 O.2       19 UNK        -0.5000 
    109 N         -7.3667  -21.0910  -52.9184 N.am      20 UNK        -0.5000 
    110 CA        -6.5371  -20.5097  -53.9746 C.3       20 UNK         0.1400 
    111 CB        -5.0797  -20.4885  -53.4880 C.3       20 UNK        -0.1800 
    112 C         -6.9716  -19.0890  -54.3810 C.2       20 UNK         0.5000 
    113 O         -6.5261  -18.5993  -55.4196 O.2       20 UNK        -0.5000 
    114 N         -7.7818  -18.4351  -53.5343 N.am      21 UNK        -0.5000 
    115 CA        -8.2881  -17.0562  -53.6022 C.3       21 UNK         0.1400 
    116 CB        -9.0890  -16.8029  -54.8938 C.3       21 UNK        -0.1800 
    117 C         -7.2069  -15.9773  -53.3899 C.2       21 UNK         0.5000 
    118 O         -7.4623  -15.0048  -52.6792 O.2       21 UNK        -0.5000 
    119 N         -6.0192  -16.1799  -53.9737 N.am      22 UNK        -0.5000 
    120 CA        -4.8275  -15.3238  -53.8569 C.3       22 UNK         0.1400 
    121 C         -4.9628  -13.9286  -54.5485 C.2       22 UNK         0.5000 
    122 N         -5.8841  -13.7502  -55.4881 N.am      22 UNK        -0.7600 
    123 O         -4.2172  -12.9979  -54.2562 O.2       22 UNK        -0.5000 
    124 C124       -4.3057  -15.2568  -52.3913 C.3       23 UNK        -0.0398 
    125 S125       -2.4919  -15.0921  -52.2857 S.3       23 UNK        -0.2404 
    126 C126       -1.9839  -16.7287  -51.6440 C.3       23 UNK        -0.0205 
    127 H127        7.7149  -11.8667  -49.3404 H         1 UNK         0.0600 
    128 H128        8.2173  -12.2869  -47.6990 H         1 UNK         0.0600 
    129 H129        6.6122  -11.6092  -47.9852 H         1 UNK         0.0600 
    130 H130        5.0119  -13.1503  -47.8866 H         1 UNK         0.3000 
    131 H131        5.0970  -15.6354  -49.3032 H         1 UNK         0.0600 
    132 H132        2.8538  -16.0330  -48.2847 H         1 UNK         0.0800 
    133 H133        3.0889  -14.7330  -47.1701 H         1 UNK         0.0800 
    134 H134        2.4060  -14.0631  -51.7327 H         1 UNK         0.0800 
    135 H135        3.6996  -15.0705  -51.1460 H         1 UNK         0.0800 
    136 H136        0.0561  -14.7886  -51.5717 H         1 UNK         0.1150 
    137 H137       -0.7068  -18.9503  -50.8143 H         1 UNK         0.1150 
    138 H138        3.2348  -17.3480  -50.3276 H         1 UNK         0.1150 
    139 H139        1.0677  -20.4053  -50.1228 H         1 UNK         0.0800 
    140 H140        2.6740  -19.9459  -50.6199 H         1 UNK         0.0800 
    141 H141        1.0780  -18.3621  -46.6352 H         1 UNK         0.0800 
    142 H142        0.1579  -18.5342  -48.0883 H         1 UNK         0.0800 
    143 H143        0.8375  -20.8877  -46.2483 H         1 UNK         0.0600 
    144 H144       -1.0785  -18.8937  -45.6989 H         1 UNK         0.3000 
    145 H145       -3.4736  -20.9178  -43.9888 H         1 UNK         0.0600 
    146 H146       -3.0832  -19.1479  -42.2778 H         1 UNK         0.0600 
    147 H147       -1.7932  -20.3407  -42.2681 H         1 UNK         0.0600 
    148 H148       -1.5232  -18.7719  -43.0061 H         1 UNK         0.0600 
    149 H149       -3.2641  -18.1237  -44.7030 H         1 UNK         0.3000 
    150 H150       -4.9802  -18.3943  -47.8168 H         1 UNK         0.0600 
    151 H151       -6.8166  -18.3930  -46.1228 H         1 UNK         0.0600 
    152 H152       -6.5036  -16.7718  -46.7210 H         1 UNK         0.0600 
    153 H153       -5.9186  -17.2527  -45.1278 H         1 UNK         0.0600 
    154 H154       -4.0191  -16.1688  -46.2834 H         1 UNK         0.3000 
    155 H155       -0.6604  -16.1974  -47.4496 H         1 UNK         0.0600 
    156 H156       -1.2366  -13.8902  -48.1687 H         1 UNK         0.0600 
    157 H157       -2.9545  -14.2962  -48.1774 H         1 UNK         0.0600 
    158 H158       -1.8534  -15.0646  -49.3119 H         1 UNK         0.0600 
    159 H159       -2.1731  -14.3797  -45.8238 H         1 UNK         0.3000 
    160 H160       -1.6017  -14.2809  -43.5198 H         1 UNK         0.0600 
    161 H161       -3.5152  -16.6586  -43.0522 H         1 UNK         0.0600 
    162 H162       -3.9115  -15.2905  -44.0849 H         1 UNK         0.0600 
    163 H163       -3.6768  -15.0422  -42.3760 H         1 UNK         0.0600 
    164 H164       -0.2604  -16.5702  -42.7597 H         1 UNK         0.3000 
    165 H165       -0.4014  -16.2824  -39.1612 H         1 UNK         0.0600 
    166 H166        0.2744  -18.2167  -41.4420 H         1 UNK         0.0600 
    167 H167        0.5356  -18.4769  -39.7238 H         1 UNK         0.0600 
    168 H168       -1.1000  -18.3634  -40.3516 H         1 UNK         0.0600 
    169 H169        1.7069  -16.1854  -41.2665 H         1 UNK         0.3000 
    170 H170        3.2316  -13.3624  -39.8886 H         1 UNK         0.0600 
    171 H171        4.2111  -14.9769  -38.2525 H         1 UNK         0.0600 
    172 H172        4.3726  -16.1862  -39.5202 H         1 UNK         0.0600 
    173 H173        5.3097  -14.6928  -39.5927 H         1 UNK         0.0600 
    174 H174        4.1322  -15.2995  -41.8034 H         1 UNK         0.3000 
    175 H175        2.1856  -14.2817  -44.5456 H         1 UNK         0.0600 
    176 H176        5.1378  -13.6077  -44.0556 H         1 UNK         0.0600 
    177 H177        4.3120  -13.6170  -45.6087 H         1 UNK         0.0600 
    178 H178        3.8925  -12.4164  -44.4089 H         1 UNK         0.0600 
    179 H179        4.4327  -15.9423  -44.5629 H         1 UNK         0.3000 
    180 H180        4.1721  -18.4027  -43.1045 H         1 UNK         0.0600 
    181 H181        1.6146  -19.2305  -44.5583 H         1 UNK         0.0600 
    182 H182        2.0232  -19.5021  -42.8761 H         1 UNK         0.0600 
    183 H183        2.8977  -20.3631  -44.1330 H         1 UNK         0.0600 
    184 H184        3.7229  -17.8829  -45.9973 H         1 UNK         0.3000 
    185 H185        7.1274  -18.2260  -46.5704 H         1 UNK         0.0600 
    186 H186        6.6536  -19.7309  -48.4870 H         1 UNK         0.0600 
    187 H187        6.6513  -20.6238  -46.9759 H         1 UNK         0.0600 
    188 H188        5.1284  -20.2221  -47.7511 H         1 UNK         0.0600 
    189 H189        5.1317  -17.7819  -48.4794 H         1 UNK         0.3000 
    190 H190       -2.0293  -19.8739  -48.2011 H         1 UNK         0.3000 
    191 H191       -1.7443  -21.7828  -50.2542 H         1 UNK         0.0600 
    192 H192       -4.1373  -21.2845  -50.7241 H         1 UNK         0.0600 
    193 H193       -3.2292  -19.8083  -50.4247 H         1 UNK         0.0600 
    194 H194       -4.2907  -20.4641  -49.1793 H         1 UNK         0.0600 
    195 H195       -3.4566  -22.0646  -47.1135 H         1 UNK         0.3000 
    196 H196       -4.4671  -24.7001  -47.5126 H         1 UNK         0.0600 
    197 H197       -4.7713  -24.6865  -45.0489 H         1 UNK         0.0600 
    198 H198       -5.3232  -23.1749  -45.7561 H         1 UNK         0.0600 
    199 H199       -3.7796  -23.2414  -44.9100 H         1 UNK         0.0600 
    200 H200       -1.4184  -23.5540  -45.9595 H         1 UNK         0.3000 
    201 H201       -0.3760  -26.1033  -45.3079 H         1 UNK         0.0600 
    202 H202        0.4509  -23.9948  -44.3069 H         1 UNK         0.0600 
    203 H203        1.0739  -23.4611  -45.8662 H         1 UNK         0.0600 
    204 H204        1.7797  -24.8594  -45.0647 H         1 UNK         0.0600 
    205 H205       -0.0687  -24.1621  -48.2796 H         1 UNK         0.3000 
    206 H206        1.6922  -25.9547  -49.6794 H         1 UNK         0.0600 
    207 H207       -0.2080  -23.7731  -50.6985 H         1 UNK         0.0600 
    208 H208        1.4691  -23.5282  -50.2144 H         1 UNK         0.0600 
    209 H209        1.0958  -24.5080  -51.6231 H         1 UNK         0.0600 
    210 H210       -1.5464  -26.3572  -48.8158 H         1 UNK         0.3000 
    211 H211       -3.1866  -27.7233  -49.2824 H         1 UNK         0.0600 
    212 H212       -1.3146  -29.3196  -51.1033 H         1 UNK         0.0600 
    213 H213       -2.8060  -29.8822  -50.3664 H         1 UNK         0.0600 
    214 H214       -1.4223  -29.5091  -49.3530 H         1 UNK         0.0600 
    215 H215       -2.6500  -25.3441  -50.9829 H         1 UNK         0.3000 
    216 H216       -4.1014  -25.9115  -53.4943 H         1 UNK         0.0600 
    217 H217       -3.7574  -23.5109  -53.9159 H         1 UNK         0.0600 
    218 H218       -2.2275  -24.2422  -53.4618 H         1 UNK         0.0600 
    219 H219       -3.1154  -23.2664  -52.2933 H         1 UNK         0.0600 
    220 H220       -4.5633  -24.5991  -50.2647 H         1 UNK         0.3000 
    221 H221       -6.2838  -24.0903  -48.9714 H         1 UNK         0.0600 
    222 H222       -7.8977  -25.9146  -50.8404 H         1 UNK         0.0600 
    223 H223       -7.0282  -26.3918  -49.3899 H         1 UNK         0.0600 
    224 H224       -8.4312  -25.3473  -49.2597 H         1 UNK         0.0600 
    225 H225       -8.7718  -24.1645  -51.3774 H         1 UNK         0.3000 
    226 H226       -9.3534  -21.3321  -51.0939 H         1 UNK         0.0600 
    227 H227      -11.1563  -23.0329  -51.1433 H         1 UNK         0.0600 
    228 H228      -11.3264  -21.9194  -52.4894 H         1 UNK         0.0600 
    229 H229      -10.6763  -23.5320  -52.7651 H         1 UNK         0.0600 
    230 H230       -6.9571  -21.1537  -51.9902 H         1 UNK         0.3000 
    231 H231       -6.6002  -21.1468  -54.8591 H         1 UNK         0.0600 
    232 H232       -4.4063  -20.1558  -54.2788 H         1 UNK         0.0600 
    233 H233       -4.7541  -21.4803  -53.1788 H         1 UNK         0.0600 
    234 H234       -4.9489  -19.8147  -52.6402 H         1 UNK         0.0600 
    235 H235       -8.0426  -18.9370  -52.6977 H         1 UNK         0.3000 
    236 H236       -8.9852  -16.9626  -52.7679 H         1 UNK         0.0600 
    237 H237       -9.8821  -17.5405  -55.0160 H         1 UNK         0.0600 
    238 H238       -9.5603  -15.8197  -54.8699 H         1 UNK         0.0600 
    239 H239       -8.4588  -16.8375  -55.7827 H         1 UNK         0.0600 
    240 H240       -5.9324  -16.9958  -54.5729 H         1 UNK         0.3000 
    241 H241       -4.0737  -15.8459  -54.4471 H         1 UNK         0.0600 
    242 H242       -6.5001  -14.5025  -55.7517 H         1 UNK         0.3800 
    243 H243       -5.9661  -12.8522  -55.9387 H         1 UNK         0.3800 
    244 H244       -4.7700  -14.4305  -51.8505 H         1 UNK         0.0800 
    245 H245       -4.5931  -16.1571  -51.8467 H         1 UNK         0.0800 
    246 H246       -2.2342  -17.4838  -52.3906 H         1 UNK         0.0800 
    247 H247       -2.5762  -16.9593  -50.7579 H         1 UNK         0.0800 
@<TRIPOS>BOND
     1    1    2 1    
     2    1  127 1    
     3    1  128 1    
     4    1  129 1    
     5    2    3 2    
     6    2    4 am   BACKBONE|DICT|INTERRES
     7    4    5 1    
     8    4  130 1    
     9    5    6 1    
    10    5   65 1    
    11    5  131 1    
    12    6    7 1    
    13    6  132 1    
    14    6  133 1    
    15    7    8 1    
    16    8    9 1    
    17    8  134 1    
    18    8  135 1    
    19    9   10 ar   
    20    9   14 ar   
    21   10   11 ar   
    22   10  136 1    
    23   11   12 ar   
    24   11  126 1    
    25   12   13 ar   
    26   12  137 1    
    27   13   14 ar   
    28   13   15 1    
    29   14  138 1    
    30   15   16 1    
    31   15  139 1    
    32   15  140 1    
    33   16   17 1    
    34   17   18 1    
    35   17  141 1    
    36   17  142 1    
    37   18   19 1    
    38   18   67 1    
    39   18  143 1    
    40   19   20 am   BACKBONE|DICT|INTERRES
    41   19  144 1    
    42   20   21 2    
    43   20   22 1    
    44   22   23 1    
    45   22   24 1    
    46   22  145 1    
    47   23  146 1    
    48   23  147 1    
    49   23  148 1    
    50   24   25 am   BACKBONE|DICT|INTERRES
    51   24  149 1    
    52   25   26 2    
    53   25   27 1    
    54   27   28 1    
    55   27   29 1    
    56   27  150 1    
    57   28  151 1    
    58   28  152 1    
    59   28  153 1    
    60   29   30 am   BACKBONE|DICT|INTERRES
    61   29  154 1    
    62   30   31 2    
    63   30   32 1    
    64   32   33 1    
    65   32   34 1    
    66   32  155 1    
    67   33  156 1    
    68   33  157 1    
    69   33  158 1    
    70   34   35 am   BACKBONE|DICT|INTERRES
    71   34  159 1    
    72   35   36 2    
    73   35   37 1    
    74   37   38 1    
    75   37   39 1    
    76   37  160 1    
    77   38  161 1    
    78   38  162 1    
    79   38  163 1    
    80   39   40 am   BACKBONE|DICT|INTERRES
    81   39  164 1    
    82   40   41 2    
    83   40   42 1    
    84   42   43 1    
    85   42   44 1    
    86   42  165 1    
    87   43  166 1    
    88   43  167 1    
    89   43  168 1    
    90   44   45 am   BACKBONE|DICT|INTERRES
    91   44  169 1    
    92   45   46 2    
    93   45   47 1    
    94   47   48 1    
    95   47   49 1    
    96   47  170 1    
    97   48  171 1    
    98   48  172 1    
    99   48  173 1    
   100   49   50 am   BACKBONE|DICT|INTERRES
   101   49  174 1    
   102   50   51 2    
   103   50   52 1    
   104   52   53 1    
   105   52   54 1    
   106   52  175 1    
   107   53  176 1    
   108   53  177 1    
   109   53  178 1    
   110   54   55 am   BACKBONE|DICT|INTERRES
   111   54  179 1    
   112   55   56 2    
   113   55   57 1    
   114   57   58 1    
   115   57   59 1    
   116   57  180 1    
   117   58  181 1    
   118   58  182 1    
   119   58  183 1    
   120   59   60 am   BACKBONE|DICT|INTERRES
   121   59  184 1    
   122   60   61 2    
   123   60   62 1    
   124   62   63 1    
   125   62   64 1    
   126   62  185 1    
   127   63  186 1    
   128   63  187 1    
   129   63  188 1    
   130   64   65 am   BACKBONE|DICT|INTERRES
   131   64  189 1    
   132   65   66 2    
   133   67   68 2    
   134   67   69 am   BACKBONE|DICT|INTERRES
   135   69   70 1    
   136   69  190 1    
   137   70   71 1    
   138   70   72 1    
   139   70  191 1    
   140   71  192 1    
   141   71  193 1    
   142   71  194 1    
   143   72   73 2    
   144   72   74 am   BACKBONE|DICT|INTERRES
   145   74   75 1    
   146   74  195 1    
   147   75   76 1    
   148   75   77 1    
   149   75  196 1    
   150   76  197 1    
   151   76  198 1    
   152   76  199 1    
   153   77   78 2    
   154   77   79 am   BACKBONE|DICT|INTERRES
   155   79   80 1    
   156   79  200 1    
   157   80   81 1    
   158   80   82 1    
   159   80  201 1    
   160   81  202 1    
   161   81  203 1    
   162   81  204 1    
   163   82   83 2    
   164   82   84 am   BACKBONE|DICT|INTERRES
   165   84   85 1    
   166   84  205 1    
   167   85   86 1    
   168   85   87 1    
   169   85  206 1    
   170   86  207 1    
   171   86  208 1    
   172   86  209 1    
   173   87   88 2    
   174   87   89 am   BACKBONE|DICT|INTERRES
   175   89   90 1    
   176   89  210 1    
   177   90   91 1    
   178   90   92 1    
   179   90  211 1    
   180   91  212 1    
   181   91  213 1    
   182   91  214 1    
   183   92   93 2    
   184   92   94 am   BACKBONE|DICT|INTERRES
   185   94   95 1    
   186   94  215 1    
   187   95   96 1    
   188   95   97 1    
   189   95  216 1    
   190   96  217 1    
   191   96  218 1    
   192   96  219 1    
   193   97   98 2    
   194   97   99 am   BACKBONE|DICT|INTERRES
   195   99  100 1    
   196   99  220 1    
   197  100  101 1    
   198  100  102 1    
   199  100  221 1    
   200  101  222 1    
   201  101  223 1    
   202  101  224 1    
   203  102  103 2    
   204  102  104 am   BACKBONE|DICT|INTERRES
   205  104  105 1    
   206  104  225 1    
   207  105  106 1    
   208  105  107 1    
   209  105  226 1    
   210  106  227 1    
   211  106  228 1    
   212  106  229 1    
   213  107  108 2    
   214  107  109 am   BACKBONE|DICT|INTERRES
   215  109  110 1    
   216  109  230 1    
   217  110  111 1    
   218  110  112 1    
   219  110  231 1    
   220  111  232 1    
   221  111  233 1    
   222  111  234 1    
   223  112  113 2    
   224  112  114 am   BACKBONE|DICT|INTERRES
   225  114  115 1    
   226  114  235 1    
   227  115  116 1    
   228  115  117 1    
   229  115  236 1    
   230  116  237 1    
   231  116  238 1    
   232  116  239 1    
   233  117  118 2    
   234  117  119 am   BACKBONE|DICT|INTERRES
   235  119  120 1    
   236  119  240 1    
   237  120  121 1    
   238  120  124 1    
   239  120  241 1    
   240  121  122 am   BACKBONE|DICT|INTERRES
   241  121  123 2    
   242  122  242 1    
   243  122  243 1    
   244  124  125 1    
   245  124  244 1    
   246  124  245 1    
   247  125  126 1    
   248  126  246 1    
   249  126  247 1    
@<TRIPOS>SUBSTRUCTURE
     1 UNK         1 GROUP             0       ****    0 ROOT    
