@<TRIPOS>MOLECULE
3R540
247   249    1
SMALL
USER_CHARGES


@<TRIPOS>ATOM
      1 CA         -3.1226  -11.9009  -43.4988 C.3       0 UNK        -0.1800 
      2 C          -1.8278  -11.1044  -43.4246 C.2       0 UNK         0.5000 
      3 O          -1.6212  -10.3474  -42.4752 O.2       0 UNK        -0.5000 
      4 N          -0.9528  -11.2742  -44.4216 N.am      1 UNK        -0.5000 
      5 CA          0.3770  -10.6675  -44.5152 C.3       1 UNK         0.1400 
      6 C6          0.8751  -10.5939  -45.9871 C.3       23 UNK        -0.0398 
      7 S7          0.7144  -12.1540  -46.9330 S.3       23 UNK        -0.2404 
      8 C8         -0.6523  -11.7502  -48.0623 C.3       23 UNK        -0.0205 
      9 C9         -1.1635  -13.0055  -48.7472 C.ar      23 UNK        -0.0193 
     10 C10        -0.5597  -13.4658  -49.9222 C.ar      23 UNK        -0.1150 
     11 C11        -0.9956  -14.6465  -50.5328 C.ar      23 UNK        -0.0193 
     12 C12        -2.0549  -15.3505  -49.9522 C.ar      23 UNK        -0.1150 
     13 C13        -2.6573  -14.9161  -48.7700 C.ar      23 UNK        -0.0193 
     14 C14        -2.2180  -13.7283  -48.1817 C.ar      23 UNK        -0.1150 
     15 C15        -3.6945  -15.7870  -48.0697 C.3       23 UNK        -0.0205 
     16 S16        -4.9429  -16.4893  -49.1955 S.3       23 UNK        -0.2404 
     17 C17        -5.6193  -17.8411  -48.1730 C.3       23 UNK        -0.0398 
     18 CA         -5.1016  -19.2344  -48.6163 C.3       11 UNK         0.1400 
     19 N          -3.6824  -19.4266  -48.3025 N.am      11 UNK        -0.5000 
     20 C          -2.9143  -20.3855  -48.8338 C.2       10 UNK         0.5000 
     21 O          -3.2928  -21.1225  -49.7432 O.2       10 UNK        -0.5000 
     22 CA         -1.5068  -20.5940  -48.2395 C.3       10 UNK         0.1400 
     23 CB         -0.4259  -20.2247  -49.2685 C.3       10 UNK        -0.1800 
     24 N          -1.2355  -19.9011  -46.9709 N.am      10 UNK        -0.5000 
     25 C          -1.8637  -20.1211  -45.8058 C.2       9 UNK         0.5000 
     26 O          -2.8736  -20.8178  -45.7040 O.2       9 UNK        -0.5000 
     27 CA         -1.2847  -19.4543  -44.5427 C.3       9 UNK         0.1400 
     28 CB         -0.2012  -20.3439  -43.9157 C.3       9 UNK        -0.1800 
     29 N          -0.7192  -18.1325  -44.7948 N.am      9 UNK        -0.5000 
     30 C          -1.4376  -17.0349  -45.0616 C.2       8 UNK         0.5000 
     31 O          -2.6686  -17.0067  -45.0556 O.2       8 UNK        -0.5000 
     32 CA         -0.6471  -15.7631  -45.4287 C.3       8 UNK         0.1400 
     33 CB         -0.2952  -14.9601  -44.1695 C.3       8 UNK        -0.1800 
     34 N           0.5709  -16.0285  -46.2009 N.am      8 UNK        -0.5000 
     35 C           0.5995  -16.6612  -47.3844 C.2       7 UNK         0.5000 
     36 O          -0.3959  -17.1185  -47.9390 O.2       7 UNK        -0.5000 
     37 CA          1.9800  -16.8971  -48.0123 C.3       7 UNK         0.1400 
     38 CB          2.5110  -15.6209  -48.6848 C.3       7 UNK        -0.1800 
     39 N           2.9273  -17.3713  -47.0046 N.am      7 UNK        -0.5000 
     40 C           2.9483  -18.6234  -46.5245 C.2       6 UNK         0.5000 
     41 O           2.2242  -19.5266  -46.9426 O.2       6 UNK        -0.5000 
     42 CA          3.9181  -18.9145  -45.3620 C.3       6 UNK         0.1400 
     43 CB          5.3014  -19.3106  -45.8993 C.3       6 UNK        -0.1800 
     44 N           4.0649  -17.7901  -44.4365 N.am      6 UNK        -0.5000 
     45 C           3.0831  -17.3135  -43.6586 C.2       5 UNK         0.5000 
     46 O           1.9581  -17.8083  -43.6027 O.2       5 UNK        -0.5000 
     47 CA          3.3931  -16.0450  -42.8383 C.3       5 UNK         0.1400 
     48 CB          3.9287  -16.4232  -41.4498 C.3       5 UNK        -0.1800 
     49 N           4.3224  -15.1032  -43.4723 N.am      5 UNK        -0.5000 
     50 C           4.1961  -14.5826  -44.7017 C.2       4 UNK         0.5000 
     51 O           3.3220  -14.9248  -45.4991 O.2       4 UNK        -0.5000 
     52 CA          5.1953  -13.4736  -45.0663 C.3       4 UNK         0.1400 
     53 CB          4.9937  -12.9353  -46.4947 C.3       4 UNK        -0.1800 
     54 N           5.0082  -12.3843  -44.1161 N.am      4 UNK        -0.5000 
     55 C           5.9533  -11.8074  -43.3653 C.2       3 UNK         0.5000 
     56 O           7.1476  -12.1006  -43.4295 O.2       3 UNK        -0.5000 
     57 CA          5.4939  -10.7233  -42.3643 C.3       3 UNK         0.1400 
     58 CB          5.7763   -9.3219  -42.9274 C.3       3 UNK        -0.1800 
     59 N           4.0737  -10.8109  -42.0119 N.am      3 UNK        -0.5000 
     60 C           3.5189  -11.7970  -41.2929 C.2       2 UNK         0.5000 
     61 O           4.1699  -12.6939  -40.7563 O.2       2 UNK        -0.5000 
     62 CA          1.9784  -11.8090  -41.1773 C.3       2 UNK         0.1400 
     63 CB          1.5384  -11.2073  -39.8343 C.3       2 UNK        -0.1800 
     64 N           1.2473  -11.1340  -42.2599 N.am      2 UNK        -0.5000 
     65 C           1.3623  -11.3906  -43.5703 C.2       1 UNK         0.5000 
     66 O           2.1889  -12.1758  -44.0263 O.2       1 UNK        -0.5000 
     67 C          -5.9969  -20.3555  -48.0339 C.2       11 UNK         0.5000 
     68 O          -7.1270  -20.4970  -48.5029 O.2       11 UNK        -0.5000 
     69 N          -5.5150  -21.1209  -47.0393 N.am      12 UNK        -0.5000 
     70 CA         -6.2999  -22.1613  -46.3676 C.3       12 UNK         0.1400 
     71 CB         -6.9915  -21.5667  -45.1297 C.3       12 UNK        -0.1800 
     72 C          -5.4813  -23.4051  -45.9870 C.2       12 UNK         0.5000 
     73 O          -5.9853  -24.5192  -46.1437 O.2       12 UNK        -0.5000 
     74 N          -4.2479  -23.2209  -45.4978 N.am      13 UNK        -0.5000 
     75 CA         -3.3791  -24.2957  -45.0114 C.3       13 UNK         0.1400 
     76 CB         -2.1323  -23.6871  -44.3559 C.3       13 UNK        -0.1800 
     77 C          -2.9684  -25.2700  -46.1267 C.2       13 UNK         0.5000 
     78 O          -2.7559  -24.8399  -47.2621 O.2       13 UNK        -0.5000 
     79 N          -2.8686  -26.5601  -45.7749 N.am      14 UNK        -0.5000 
     80 CA         -2.5464  -27.6875  -46.6597 C.3       14 UNK         0.1400 
     81 CB         -1.0746  -27.6128  -47.1186 C.3       14 UNK        -0.1800 
     82 C          -3.5381  -27.8162  -47.8358 C.2       14 UNK         0.5000 
     83 O          -3.1198  -28.0242  -48.9753 O.2       14 UNK        -0.5000 
     84 N          -4.8351  -27.6425  -47.5333 N.am      15 UNK        -0.5000 
     85 CA         -5.9591  -27.5846  -48.4763 C.3       15 UNK         0.1400 
     86 CB         -6.1959  -28.9605  -49.1347 C.3       15 UNK        -0.1800 
     87 C          -5.7803  -26.4466  -49.5016 C.2       15 UNK         0.5000 
     88 O          -5.8581  -26.6782  -50.7089 O.2       15 UNK        -0.5000 
     89 N          -5.4871  -25.2450  -48.9831 N.am      16 UNK        -0.5000 
     90 CA         -5.1289  -24.0270  -49.7163 C.3       16 UNK         0.1400 
     91 CB         -6.3598  -23.4563  -50.4490 C.3       16 UNK        -0.1800 
     92 C          -3.9182  -24.2527  -50.6434 C.2       16 UNK         0.5000 
     93 O          -4.0105  -24.0259  -51.8502 O.2       16 UNK        -0.5000 
     94 N          -2.8207  -24.7505  -50.0562 N.am      17 UNK        -0.5000 
     95 CA         -1.5538  -25.1056  -50.7010 C.3       17 UNK         0.1400 
     96 CB         -0.7977  -23.8257  -51.1134 C.3       17 UNK        -0.1800 
     97 C          -1.7405  -26.1031  -51.8640 C.2       17 UNK         0.5000 
     98 O          -1.2809  -25.8483  -52.9772 O.2       17 UNK        -0.5000 
     99 N          -2.4584  -27.2021  -51.5896 N.am      18 UNK        -0.5000 
    100 CA        -2.8826  -28.2392  -52.5369 C.3       18 UNK         0.1400 
    101 CB        -1.6722  -29.0659  -53.0181 C.3       18 UNK        -0.1800 
    102 C         -3.7307  -27.6667  -53.6940 C.2       18 UNK         0.5000 
    103 O         -3.4933  -27.9830  -54.8612 O.2       18 UNK        -0.5000 
    104 N         -4.6936  -26.8091  -53.3297 N.am      19 UNK        -0.5000 
    105 CA        -5.6302  -26.0746  -54.1838 C.3       19 UNK         0.1400 
    106 CB        -6.5567  -27.0450  -54.9456 C.3       19 UNK        -0.1800 
    107 C         -4.9827  -25.0212  -55.1108 C.2       19 UNK         0.5000 
    108 O         -5.6528  -24.5371  -56.0250 O.2       19 UNK        -0.5000 
    109 N         -3.7181  -24.6496  -54.8617 N.am      20 UNK        -0.5000 
    110 CA        -3.0316  -23.5634  -55.5664 C.3       20 UNK         0.1400 
    111 CB        -1.5137  -23.7042  -55.3846 C.3       20 UNK        -0.1800 
    112 C         -3.4958  -22.1730  -55.0943 C.2       20 UNK         0.5000 
    113 O         -3.4400  -21.2214  -55.8746 O.2       20 UNK        -0.5000 
    114 N         -3.9279  -22.0797  -53.8270 N.am      21 UNK        -0.5000 
    115 CA        -4.4936  -20.9109  -53.1467 C.3       21 UNK         0.1400 
    116 CB        -5.9246  -20.6498  -53.6572 C.3       21 UNK        -0.1800 
    117 C         -3.5970  -19.6568  -53.1983 C.2       21 UNK         0.5000 
    118 O         -4.1111  -18.5406  -53.2869 O.2       21 UNK        -0.5000 
    119 N         -2.2722  -19.8675  -53.1616 N.am      22 UNK        -0.5000 
    120 CA        -1.2336  -18.8311  -53.3061 C.3       22 UNK         0.1400 
    121 C         -1.1088  -18.2436  -54.7502 C.2       22 UNK         0.5000 
    122 N         -1.7186  -18.8370  -55.7707 N.am      22 UNK        -0.7600 
    123 O         -0.4234  -17.2488  -54.9675 O.2       22 UNK        -0.5000 
    124 C124       -1.3625  -17.7458  -52.2016 C.3       23 UNK        -0.0398 
    125 S125        0.1920  -16.9031  -51.7390 S.3       23 UNK        -0.2404 
    126 C126       -0.3167  -15.1463  -51.8091 C.3       23 UNK        -0.0205 
    127 H127       -3.1611  -12.5306  -44.3882 H         1 UNK         0.0600 
    128 H128       -3.9778  -11.2257  -43.5220 H         1 UNK         0.0600 
    129 H129       -3.2172  -12.5438  -42.6236 H         1 UNK         0.0600 
    130 H130       -1.1614  -11.9317  -45.1587 H         1 UNK         0.3000 
    131 H131        0.3071   -9.6373  -44.1593 H         1 UNK         0.0600 
    132 H132        0.3244   -9.8104  -46.5090 H         1 UNK         0.0800 
    133 H133        1.9192  -10.2781  -46.0231 H         1 UNK         0.0800 
    134 H134       -1.4619  -11.2707  -47.5099 H         1 UNK         0.0800 
    135 H135       -0.3105  -11.0269  -48.8042 H         1 UNK         0.0800 
    136 H136        0.2637  -12.9105  -50.3488 H         1 UNK         0.1150 
    137 H137       -2.3969  -16.2732  -50.3845 H         1 UNK         0.1150 
    138 H138       -2.6648  -13.3893  -47.2579 H         1 UNK         0.1150 
    139 H139       -3.1561  -16.6057  -47.5943 H         1 UNK         0.0800 
    140 H140       -4.1987  -15.2351  -47.2751 H         1 UNK         0.0800 
    141 H141       -6.7051  -17.7840  -48.2719 H         1 UNK         0.0800 
    142 H142       -5.4055  -17.6625  -47.1176 H         1 UNK         0.0800 
    143 H143       -5.2107  -19.2980  -49.7017 H         1 UNK         0.0600 
    144 H144       -3.2927  -18.8587  -47.5645 H         1 UNK         0.3000 
    145 H145       -1.4201  -21.6641  -48.0396 H         1 UNK         0.0600 
    146 H146        0.5676  -20.4972  -48.9135 H         1 UNK         0.0600 
    147 H147       -0.5851  -20.7439  -50.2142 H         1 UNK         0.0600 
    148 H148       -0.4234  -19.1579  -49.4860 H         1 UNK         0.0600 
    149 H149       -0.4614  -19.2496  -46.9834 H         1 UNK         0.3000 
    150 H150       -2.0972  -19.3483  -43.8209 H         1 UNK         0.0600 
    151 H151       -0.5921  -21.3310  -43.6722 H         1 UNK         0.0600 
    152 H152        0.1755  -19.9105  -42.9891 H         1 UNK         0.0600 
    153 H153        0.6465  -20.4802  -44.5888 H         1 UNK         0.0600 
    154 H154        0.2902  -18.0476  -44.7335 H         1 UNK         0.3000 
    155 H155       -1.2923  -15.1446  -46.0509 H         1 UNK         0.0600 
    156 H156       -1.1972  -14.6147  -43.6631 H         1 UNK         0.0600 
    157 H157        0.2990  -14.0816  -44.4166 H         1 UNK         0.0600 
    158 H158        0.2696  -15.5597  -43.4570 H         1 UNK         0.0600 
    159 H159        1.4439  -15.6697  -45.8278 H         1 UNK         0.3000 
    160 H160        1.8755  -17.6626  -48.7847 H         1 UNK         0.0600 
    161 H161        2.5765  -14.7849  -47.9883 H         1 UNK         0.0600 
    162 H162        1.8505  -15.3120  -49.4953 H         1 UNK         0.0600 
    163 H163        3.4999  -15.7810  -49.1137 H         1 UNK         0.0600 
    164 H164        3.4716  -16.6559  -46.5364 H         1 UNK         0.3000 
    165 H165        3.5149  -19.7605  -44.8010 H         1 UNK         0.0600 
    166 H166        5.9719  -19.5986  -45.0894 H         1 UNK         0.0600 
    167 H167        5.2272  -20.1623  -46.5768 H         1 UNK         0.0600 
    168 H168        5.7692  -18.4931  -46.4495 H         1 UNK         0.0600 
    169 H169        4.9568  -17.3180  -44.4260 H         1 UNK         0.3000 
    170 H170        2.4529  -15.5099  -42.6997 H         1 UNK         0.0600 
    171 H171        3.2465  -17.1044  -40.9392 H         1 UNK         0.0600 
    172 H172        4.8994  -16.9163  -41.5141 H         1 UNK         0.0600 
    173 H173        4.0397  -15.5430  -40.8162 H         1 UNK         0.0600 
    174 H174        5.0537  -14.7382  -42.8792 H         1 UNK         0.3000 
    175 H175        6.1990  -13.8956  -44.9881 H         1 UNK         0.0600 
    176 H176        3.9957  -12.5140  -46.6268 H         1 UNK         0.0600 
    177 H177        5.7192  -12.1560  -46.7274 H         1 UNK         0.0600 
    178 H178        5.1168  -13.7284  -47.2332 H         1 UNK         0.0600 
    179 H179        4.0331  -12.1305  -43.9666 H         1 UNK         0.3000 
    180 H180        6.0795  -10.8507  -41.4516 H         1 UNK         0.0600 
    181 H181        5.2049   -9.1316  -43.8369 H         1 UNK         0.0600 
    182 H182        6.8327   -9.2047  -43.1730 H         1 UNK         0.0600 
    183 H183        5.5250   -8.5469  -42.2030 H         1 UNK         0.0600 
    184 H184        3.4631  -10.1151  -42.4134 H         1 UNK         0.3000 
    185 H185        1.6721  -12.8569  -41.1957 H         1 UNK         0.0600 
    186 H186        2.0328  -11.7061  -38.9995 H         1 UNK         0.0600 
    187 H187        1.7800  -10.1455  -39.7729 H         1 UNK         0.0600 
    188 H188        0.4639  -11.3170  -39.6855 H         1 UNK         0.0600 
    189 H189        0.4930  -10.5207  -41.9743 H         1 UNK         0.3000 
    190 H190       -4.5709  -20.9631  -46.7003 H         1 UNK         0.3000 
    191 H191       -7.0783  -22.5211  -47.0442 H         1 UNK         0.0600 
    192 H192       -7.6794  -20.7681  -45.4082 H         1 UNK         0.0600 
    193 H193       -7.5716  -22.3245  -44.6014 H         1 UNK         0.0600 
    194 H194       -6.2673  -21.1547  -44.4258 H         1 UNK         0.0600 
    195 H195       -3.8513  -22.2850  -45.4591 H         1 UNK         0.3000 
    196 H196       -3.9345  -24.8468  -44.2495 H         1 UNK         0.0600 
    197 H197       -1.5084  -24.4608  -43.9069 H         1 UNK         0.0600 
    198 H198       -2.4043  -22.9883  -43.5648 H         1 UNK         0.0600 
    199 H199       -1.5188  -23.1551  -45.0840 H         1 UNK         0.0600 
    200 H200       -3.0611  -26.8092  -44.8144 H         1 UNK         0.3000 
    201 H201       -2.6607  -28.5950  -46.0653 H         1 UNK         0.0600 
    202 H202       -0.3993  -27.5561  -46.2650 H         1 UNK         0.0600 
    203 H203       -0.8885  -26.7438  -47.7496 H         1 UNK         0.0600 
    204 H204       -0.7975  -28.4983  -47.6918 H         1 UNK         0.0600 
    205 H205       -5.0676  -27.4449  -46.5700 H         1 UNK         0.3000 
    206 H206       -6.8472  -27.3387  -47.8922 H         1 UNK         0.0600 
    207 H207       -6.3342  -29.7379  -48.3835 H         1 UNK         0.0600 
    208 H208       -7.0928  -28.9450  -49.7549 H         1 UNK         0.0600 
    209 H209       -5.3639  -29.2566  -49.7743 H         1 UNK         0.0600 
    210 H210       -5.4485  -25.1690  -47.9721 H         1 UNK         0.3000 
    211 H211       -4.8145  -23.2940  -48.9731 H         1 UNK         0.0600 
    212 H212       -6.7049  -24.1178  -51.2441 H         1 UNK         0.0600 
    213 H213       -6.1302  -22.4915  -50.9003 H         1 UNK         0.0600 
    214 H214       -7.1886  -23.2981  -49.7591 H         1 UNK         0.0600 
    215 H215       -2.8475  -24.8905  -49.0466 H         1 UNK         0.3000 
    216 H216       -0.9536  -25.6185  -49.9489 H         1 UNK         0.0600 
    217 H217        0.1729  -24.0646  -51.5491 H         1 UNK         0.0600 
    218 H218       -0.6169  -23.1878  -50.2489 H         1 UNK         0.0600 
    219 H219       -1.3549  -23.2432  -51.8475 H         1 UNK         0.0600 
    220 H220       -2.7810  -27.3400  -50.6328 H         1 UNK         0.3000 
    221 H221       -3.5390  -28.9089  -51.9792 H         1 UNK         0.0600 
    222 H222       -0.9859  -28.4694  -53.6198 H         1 UNK         0.0600 
    223 H223       -1.1134  -29.4719  -52.1749 H         1 UNK         0.0600 
    224 H224       -1.9946  -29.9093  -53.6297 H         1 UNK         0.0600 
    225 H225       -4.8238  -26.6396  -52.3350 H         1 UNK         0.3000 
    226 H226       -6.2552  -25.5053  -53.4944 H         1 UNK         0.0600 
    227 H227       -7.0194  -27.7618  -54.2671 H         1 UNK         0.0600 
    228 H228       -7.3637  -26.5073  -55.4444 H         1 UNK         0.0600 
    229 H229       -6.0175  -27.6044  -55.7104 H         1 UNK         0.0600 
    230 H230       -3.2289  -25.0750  -54.0837 H         1 UNK         0.3000 
    231 H231       -3.2516  -23.6459  -56.6329 H         1 UNK         0.0600 
    232 H232       -1.2178  -23.5622  -54.3450 H         1 UNK         0.0600 
    233 H233       -0.9802  -22.9619  -55.9795 H         1 UNK         0.0600 
    234 H234       -1.1664  -24.6878  -55.7014 H         1 UNK         0.0600 
    235 H235       -3.9046  -22.9219  -53.2519 H         1 UNK         0.3000 
    236 H236       -4.5641  -21.1793  -52.0931 H         1 UNK         0.0600 
    237 H237       -6.5402  -21.5456  -53.5738 H         1 UNK         0.0600 
    238 H238       -6.4136  -19.8672  -53.0760 H         1 UNK         0.0600 
    239 H239       -5.9271  -20.3366  -54.7018 H         1 UNK         0.0600 
    240 H240       -1.9448  -20.8204  -53.1021 H         1 UNK         0.3000 
    241 H241       -0.2946  -19.3587  -53.1366 H         1 UNK         0.0600 
    242 H242       -1.6155  -18.4474  -56.6940 H         1 UNK         0.3800 
    243 H243       -2.3053  -19.6556  -55.6409 H         1 UNK         0.3800 
    244 H244       -2.1144  -17.0120  -52.4942 H         1 UNK         0.0800 
    245 H245       -1.7376  -18.2079  -51.2876 H         1 UNK         0.0800 
    246 H246        0.5794  -14.5561  -52.0058 H         1 UNK         0.0800 
    247 H247       -0.9765  -14.9803  -52.6616 H         1 UNK         0.0800 
@<TRIPOS>BOND
     1    1    2 1    
     2    1  127 1    
     3    1  128 1    
     4    1  129 1    
     5    2    3 2    
     6    2    4 am   BACKBONE|DICT|INTERRES
     7    4    5 1    
     8    4  130 1    
     9    5    6 1    
    10    5   65 1    
    11    5  131 1    
    12    6    7 1    
    13    6  132 1    
    14    6  133 1    
    15    7    8 1    
    16    8    9 1    
    17    8  134 1    
    18    8  135 1    
    19    9   10 ar   
    20    9   14 ar   
    21   10   11 ar   
    22   10  136 1    
    23   11   12 ar   
    24   11  126 1    
    25   12   13 ar   
    26   12  137 1    
    27   13   14 ar   
    28   13   15 1    
    29   14  138 1    
    30   15   16 1    
    31   15  139 1    
    32   15  140 1    
    33   16   17 1    
    34   17   18 1    
    35   17  141 1    
    36   17  142 1    
    37   18   19 1    
    38   18   67 1    
    39   18  143 1    
    40   19   20 am   BACKBONE|DICT|INTERRES
    41   19  144 1    
    42   20   21 2    
    43   20   22 1    
    44   22   23 1    
    45   22   24 1    
    46   22  145 1    
    47   23  146 1    
    48   23  147 1    
    49   23  148 1    
    50   24   25 am   BACKBONE|DICT|INTERRES
    51   24  149 1    
    52   25   26 2    
    53   25   27 1    
    54   27   28 1    
    55   27   29 1    
    56   27  150 1    
    57   28  151 1    
    58   28  152 1    
    59   28  153 1    
    60   29   30 am   BACKBONE|DICT|INTERRES
    61   29  154 1    
    62   30   31 2    
    63   30   32 1    
    64   32   33 1    
    65   32   34 1    
    66   32  155 1    
    67   33  156 1    
    68   33  157 1    
    69   33  158 1    
    70   34   35 am   BACKBONE|DICT|INTERRES
    71   34  159 1    
    72   35   36 2    
    73   35   37 1    
    74   37   38 1    
    75   37   39 1    
    76   37  160 1    
    77   38  161 1    
    78   38  162 1    
    79   38  163 1    
    80   39   40 am   BACKBONE|DICT|INTERRES
    81   39  164 1    
    82   40   41 2    
    83   40   42 1    
    84   42   43 1    
    85   42   44 1    
    86   42  165 1    
    87   43  166 1    
    88   43  167 1    
    89   43  168 1    
    90   44   45 am   BACKBONE|DICT|INTERRES
    91   44  169 1    
    92   45   46 2    
    93   45   47 1    
    94   47   48 1    
    95   47   49 1    
    96   47  170 1    
    97   48  171 1    
    98   48  172 1    
    99   48  173 1    
   100   49   50 am   BACKBONE|DICT|INTERRES
   101   49  174 1    
   102   50   51 2    
   103   50   52 1    
   104   52   53 1    
   105   52   54 1    
   106   52  175 1    
   107   53  176 1    
   108   53  177 1    
   109   53  178 1    
   110   54   55 am   BACKBONE|DICT|INTERRES
   111   54  179 1    
   112   55   56 2    
   113   55   57 1    
   114   57   58 1    
   115   57   59 1    
   116   57  180 1    
   117   58  181 1    
   118   58  182 1    
   119   58  183 1    
   120   59   60 am   BACKBONE|DICT|INTERRES
   121   59  184 1    
   122   60   61 2    
   123   60   62 1    
   124   62   63 1    
   125   62   64 1    
   126   62  185 1    
   127   63  186 1    
   128   63  187 1    
   129   63  188 1    
   130   64   65 am   BACKBONE|DICT|INTERRES
   131   64  189 1    
   132   65   66 2    
   133   67   68 2    
   134   67   69 am   BACKBONE|DICT|INTERRES
   135   69   70 1    
   136   69  190 1    
   137   70   71 1    
   138   70   72 1    
   139   70  191 1    
   140   71  192 1    
   141   71  193 1    
   142   71  194 1    
   143   72   73 2    
   144   72   74 am   BACKBONE|DICT|INTERRES
   145   74   75 1    
   146   74  195 1    
   147   75   76 1    
   148   75   77 1    
   149   75  196 1    
   150   76  197 1    
   151   76  198 1    
   152   76  199 1    
   153   77   78 2    
   154   77   79 am   BACKBONE|DICT|INTERRES
   155   79   80 1    
   156   79  200 1    
   157   80   81 1    
   158   80   82 1    
   159   80  201 1    
   160   81  202 1    
   161   81  203 1    
   162   81  204 1    
   163   82   83 2    
   164   82   84 am   BACKBONE|DICT|INTERRES
   165   84   85 1    
   166   84  205 1    
   167   85   86 1    
   168   85   87 1    
   169   85  206 1    
   170   86  207 1    
   171   86  208 1    
   172   86  209 1    
   173   87   88 2    
   174   87   89 am   BACKBONE|DICT|INTERRES
   175   89   90 1    
   176   89  210 1    
   177   90   91 1    
   178   90   92 1    
   179   90  211 1    
   180   91  212 1    
   181   91  213 1    
   182   91  214 1    
   183   92   93 2    
   184   92   94 am   BACKBONE|DICT|INTERRES
   185   94   95 1    
   186   94  215 1    
   187   95   96 1    
   188   95   97 1    
   189   95  216 1    
   190   96  217 1    
   191   96  218 1    
   192   96  219 1    
   193   97   98 2    
   194   97   99 am   BACKBONE|DICT|INTERRES
   195   99  100 1    
   196   99  220 1    
   197  100  101 1    
   198  100  102 1    
   199  100  221 1    
   200  101  222 1    
   201  101  223 1    
   202  101  224 1    
   203  102  103 2    
   204  102  104 am   BACKBONE|DICT|INTERRES
   205  104  105 1    
   206  104  225 1    
   207  105  106 1    
   208  105  107 1    
   209  105  226 1    
   210  106  227 1    
   211  106  228 1    
   212  106  229 1    
   213  107  108 2    
   214  107  109 am   BACKBONE|DICT|INTERRES
   215  109  110 1    
   216  109  230 1    
   217  110  111 1    
   218  110  112 1    
   219  110  231 1    
   220  111  232 1    
   221  111  233 1    
   222  111  234 1    
   223  112  113 2    
   224  112  114 am   BACKBONE|DICT|INTERRES
   225  114  115 1    
   226  114  235 1    
   227  115  116 1    
   228  115  117 1    
   229  115  236 1    
   230  116  237 1    
   231  116  238 1    
   232  116  239 1    
   233  117  118 2    
   234  117  119 am   BACKBONE|DICT|INTERRES
   235  119  120 1    
   236  119  240 1    
   237  120  121 1    
   238  120  124 1    
   239  120  241 1    
   240  121  122 am   BACKBONE|DICT|INTERRES
   241  121  123 2    
   242  122  242 1    
   243  122  243 1    
   244  124  125 1    
   245  124  244 1    
   246  124  245 1    
   247  125  126 1    
   248  126  246 1    
   249  126  247 1    
@<TRIPOS>SUBSTRUCTURE
     1 UNK         1 GROUP             0       ****    0 ROOT    
