@<TRIPOS>MOLECULE
3R540
247   249    1
SMALL
USER_CHARGES


@<TRIPOS>ATOM
      1 CA          7.1711  -12.0804  -46.1398 C.3       0 UNK        -0.1800 
      2 C           6.0393  -12.9451  -46.6756 C.2       0 UNK         0.5000 
      3 O           5.1686  -13.3592  -45.9104 O.2       0 UNK        -0.5000 
      4 N           6.0442  -13.2209  -47.9862 N.am      1 UNK        -0.5000 
      5 CA          5.0151  -13.9941  -48.6850 C.3       1 UNK         0.1400 
      6 C6          5.5946  -14.6893  -49.9463 C.3       23 UNK        -0.0398 
      7 S7          4.5536  -15.9463  -50.7879 S.3       23 UNK        -0.2404 
      8 C8          3.3936  -16.5634  -49.5249 C.3       23 UNK        -0.0205 
      9 C9          2.3988  -17.5407  -50.1286 C.ar      23 UNK        -0.0193 
     10 C10         1.2469  -17.0599  -50.7559 C.ar      23 UNK        -0.1150 
     11 C11         0.3198  -17.9416  -51.3182 C.ar      23 UNK        -0.0193 
     12 C12         0.5524  -19.3180  -51.2345 C.ar      23 UNK        -0.1150 
     13 C13         1.7048  -19.8197  -50.6183 C.ar      23 UNK        -0.0193 
     14 C14         2.6290  -18.9181  -50.0723 C.ar      23 UNK        -0.1150 
     15 C15         1.9268  -21.3347  -50.6191 C.3       23 UNK        -0.0205 
     16 S16         3.0797  -21.9986  -49.3603 S.3       23 UNK        -0.2404 
     17 C17         2.3181  -21.4678  -47.7895 C.3       23 UNK        -0.0398 
     18 CA          1.3598  -22.5076  -47.1590 C.3       11 UNK         0.1400 
     19 N           1.1281  -22.2308  -45.7379 N.am      11 UNK        -0.5000 
     20 C           0.3895  -22.9821  -44.9074 C.2       10 UNK         0.5000 
     21 O          -0.1231  -24.0568  -45.2230 O.2       10 UNK        -0.5000 
     22 CA          0.1356  -22.4051  -43.5022 C.3       10 UNK         0.1400 
     23 CB          1.3459  -22.6369  -42.5855 C.3       10 UNK        -0.1800 
     24 N          -0.1941  -20.9783  -43.5355 N.am      10 UNK        -0.5000 
     25 C          -1.2944  -20.4688  -44.1094 C.2       9 UNK         0.5000 
     26 O          -2.1798  -21.1587  -44.6140 O.2       9 UNK        -0.5000 
     27 CA         -1.4017  -18.9335  -44.1800 C.3       9 UNK         0.1400 
     28 CB         -1.9015  -18.3518  -42.8499 C.3       9 UNK        -0.1800 
     29 N          -0.1367  -18.2996  -44.5516 N.am      9 UNK        -0.5000 
     30 C           0.4839  -18.4796  -45.7254 C.2       8 UNK         0.5000 
     31 O           0.0253  -19.1564  -46.6413 O.2       8 UNK        -0.5000 
     32 CA          1.8726  -17.8444  -45.8910 C.3       8 UNK         0.1400 
     33 CB          1.7471  -16.3749  -46.3001 C.3       8 UNK        -0.1800 
     34 N           2.6713  -17.9512  -44.6717 N.am      8 UNK        -0.5000 
     35 C           3.1596  -19.1030  -44.1915 C.2       7 UNK         0.5000 
     36 O           3.0131  -20.1917  -44.7463 O.2       7 UNK        -0.5000 
     37 CA          3.8947  -19.0286  -42.8419 C.3       7 UNK         0.1400 
     38 CB          5.3425  -18.5541  -43.0370 C.3       7 UNK        -0.1800 
     39 N           3.2175  -18.1488  -41.8884 N.am      7 UNK        -0.5000 
     40 C           2.0114  -18.3962  -41.3581 C.2       6 UNK         0.5000 
     41 O           1.3579  -19.4129  -41.5906 O.2       6 UNK        -0.5000 
     42 CA          1.4180  -17.3015  -40.4518 C.3       6 UNK         0.1400 
     43 CB          1.9070  -17.4736  -39.0061 C.3       6 UNK        -0.1800 
     44 N           1.7164  -15.9402  -40.9089 N.am      6 UNK        -0.5000 
     45 C           1.3095  -15.4272  -42.0774 C.2       5 UNK         0.5000 
     46 O           0.6832  -16.0698  -42.9221 O.2       5 UNK        -0.5000 
     47 CA          1.7175  -13.9743  -42.3717 C.3       5 UNK         0.1400 
     48 CB          3.0069  -13.9430  -43.2066 C.3       5 UNK        -0.1800 
     49 N           0.6592  -13.2657  -43.0900 N.am      5 UNK        -0.5000 
     50 C          -0.4732  -12.8243  -42.5221 C.2       4 UNK         0.5000 
     51 O          -0.7045  -12.9147  -41.3151 O.2       4 UNK        -0.5000 
     52 CA         -1.5233  -12.1533  -43.4336 C.3       4 UNK         0.1400 
     53 CB         -1.3995  -10.6236  -43.3573 C.3       4 UNK        -0.1800 
     54 N          -1.4290  -12.5621  -44.8343 N.am      4 UNK        -0.5000 
     55 C          -1.7521  -13.7742  -45.3031 C.2       3 UNK         0.5000 
     56 O          -2.2806  -14.6483  -44.6162 O.2       3 UNK        -0.5000 
     57 CA         -1.4325  -14.0701  -46.7853 C.3       3 UNK         0.1400 
     58 CB         -2.7244  -14.0838  -47.6175 C.3       3 UNK        -0.1800 
     59 N          -0.4652  -13.1746  -47.4397 N.am      3 UNK        -0.5000 
     60 C           0.7899  -12.9360  -47.0372 C.2       2 UNK         0.5000 
     61 O           1.2442  -13.2918  -45.9492 O.2       2 UNK        -0.5000 
     62 CA          1.7022  -12.1743  -48.0026 C.3       2 UNK         0.1400 
     63 CB          1.8477  -10.7024  -47.5863 C.3       2 UNK        -0.1800 
     64 N           2.9996  -12.8337  -47.9475 N.am      2 UNK        -0.5000 
     65 C           3.8007  -13.0864  -48.9844 C.2       1 UNK         0.5000 
     66 O           3.6191  -12.6320  -50.1152 O.2       1 UNK        -0.5000 
     67 C           0.0313  -22.5847  -47.9364 C.2       11 UNK         0.5000 
     68 O          -0.2018  -23.5596  -48.6506 O.2       11 UNK        -0.5000 
     69 N          -0.8256  -21.5702  -47.7527 N.am      12 UNK        -0.5000 
     70 CA         -2.1499  -21.4716  -48.3552 C.3       12 UNK         0.1400 
     71 CB         -2.8024  -20.1351  -47.9794 C.3       12 UNK        -0.1800 
     72 C          -3.0571  -22.6444  -47.9663 C.2       12 UNK         0.5000 
     73 O          -3.6523  -23.2482  -48.8536 O.2       12 UNK        -0.5000 
     74 N          -3.1099  -22.9759  -46.6686 N.am      13 UNK        -0.5000 
     75 CA         -3.8719  -24.1023  -46.1273 C.3       13 UNK         0.1400 
     76 CB         -3.7775  -24.1012  -44.5945 C.3       13 UNK        -0.1800 
     77 C          -3.4326  -25.4608  -46.7038 C.2       13 UNK         0.5000 
     78 O          -4.2889  -26.2621  -47.0807 O.2       13 UNK        -0.5000 
     79 N          -2.1132  -25.6745  -46.8170 N.am      14 UNK        -0.5000 
     80 CA         -1.5168  -26.8552  -47.4493 C.3       14 UNK         0.1400 
     81 CB          0.0001  -26.8520  -47.2073 C.3       14 UNK        -0.1800 
     82 C          -1.8315  -26.9570  -48.9562 C.2       14 UNK         0.5000 
     83 O          -2.0032  -28.0625  -49.4700 O.2       14 UNK        -0.5000 
     84 N          -1.9415  -25.8012  -49.6219 N.am      15 UNK        -0.5000 
     85 CA         -2.3221  -25.6458  -51.0259 C.3       15 UNK         0.1400 
     86 CB         -1.5263  -24.4677  -51.6141 C.3       15 UNK        -0.1800 
     87 C          -3.8491  -25.5018  -51.2364 C.2       15 UNK         0.5000 
     88 O          -4.2721  -25.1019  -52.3206 O.2       15 UNK        -0.5000 
     89 N          -4.6514  -25.8430  -50.2159 N.am      16 UNK        -0.5000 
     90 CA         -6.1187  -25.9180  -50.2063 C.3       16 UNK         0.1400 
     91 CB         -6.6303  -26.9393  -51.2445 C.3       16 UNK        -0.1800 
     92 C          -6.8538  -24.5618  -50.2956 C.2       16 UNK         0.5000 
     93 O          -8.0416  -24.5414  -50.6236 O.2       16 UNK        -0.5000 
     94 N          -6.1605  -23.4666  -49.9551 N.am      17 UNK        -0.5000 
     95 CA         -6.6175  -22.0853  -49.7577 C.3       17 UNK         0.1400 
     96 CB         -7.5733  -21.9894  -48.5547 C.3       17 UNK        -0.1800 
     97 C          -7.2052  -21.3958  -51.0016 C.2       17 UNK         0.5000 
     98 O          -6.6552  -20.3875  -51.4517 O.2       17 UNK        -0.5000 
     99 N          -8.3052  -21.9380  -51.5324 N.am      18 UNK        -0.5000 
    100 CA        -9.0039  -21.4385  -52.7153 C.3       18 UNK         0.1400 
    101 CB       -10.3903  -22.0937  -52.8029 C.3       18 UNK        -0.1800 
    102 C         -8.1983  -21.6866  -53.9999 C.2       18 UNK         0.5000 
    103 O         -8.1268  -20.8037  -54.8544 O.2       18 UNK        -0.5000 
    104 N         -7.5673  -22.8664  -54.0862 N.am      19 UNK        -0.5000 
    105 CA        -6.6508  -23.2343  -55.1670 C.3       19 UNK         0.1400 
    106 CB        -6.4633  -24.7584  -55.1759 C.3       19 UNK        -0.1800 
    107 C         -5.2957  -22.5077  -55.0602 C.2       19 UNK         0.5000 
    108 O         -4.6533  -22.2709  -56.0838 O.2       19 UNK        -0.5000 
    109 N         -4.9013  -22.1431  -53.8315 N.am      20 UNK        -0.5000 
    110 CA        -3.7138  -21.3398  -53.5401 C.3       20 UNK         0.1400 
    111 CB        -3.4016  -21.4315  -52.0368 C.3       20 UNK        -0.1800 
    112 C         -3.8955  -19.8642  -53.9396 C.2       20 UNK         0.5000 
    113 O         -2.9186  -19.2129  -54.3053 O.2       20 UNK        -0.5000 
    114 N         -5.1397  -19.3742  -53.8275 N.am      21 UNK        -0.5000 
    115 CA        -5.5805  -17.9819  -53.9669 C.3       21 UNK         0.1400 
    116 CB        -5.2442  -17.4098  -55.3600 C.3       21 UNK        -0.1800 
    117 C         -5.1068  -17.0788  -52.8056 C.2       21 UNK         0.5000 
    118 O         -5.0628  -15.8573  -52.9603 O.2       21 UNK        -0.5000 
    119 N         -4.7968  -17.6957  -51.6581 N.am      22 UNK        -0.5000 
    120 CA        -4.4074  -17.0405  -50.3975 C.3       22 UNK         0.1400 
    121 C         -5.2785  -17.4912  -49.1887 C.2       22 UNK         0.5000 
    122 N         -6.2492  -18.3843  -49.3448 N.am      22 UNK        -0.7600 
    123 O         -5.0878  -17.0015  -48.0799 O.2       22 UNK        -0.5000 
    124 C124       -2.8910  -17.2050  -50.0999 C.3       23 UNK        -0.0398 
    125 S125       -1.8509  -16.1651  -51.1754 S.3       23 UNK        -0.2404 
    126 C126       -0.8868  -17.4132  -52.0879 C.3       23 UNK        -0.0205 
    127 H127        7.7260  -12.6221  -45.3739 H         1 UNK         0.0600 
    128 H128        6.7681  -11.1720  -45.6920 H         1 UNK         0.0600 
    129 H129        7.8690  -11.7920  -46.9262 H         1 UNK         0.0600 
    130 H130        6.7695  -12.8274  -48.5693 H         1 UNK         0.3000 
    131 H131        4.6866  -14.7794  -48.0025 H         1 UNK         0.0600 
    132 H132        6.5183  -15.2001  -49.6706 H         1 UNK         0.0800 
    133 H133        5.8895  -13.9456  -50.6886 H         1 UNK         0.0800 
    134 H134        3.9495  -17.0379  -48.7146 H         1 UNK         0.0800 
    135 H135        2.8347  -15.7377  -49.0868 H         1 UNK         0.0800 
    136 H136        1.0823  -15.9937  -50.8255 H         1 UNK         0.1150 
    137 H137       -0.1520  -20.0044  -51.6827 H         1 UNK         0.1150 
    138 H138        3.5358  -19.2794  -49.6096 H         1 UNK         0.1150 
    139 H139        0.9689  -21.8458  -50.5207 H         1 UNK         0.0800 
    140 H140        2.3114  -21.6132  -51.6008 H         1 UNK         0.0800 
    141 H141        1.8306  -20.5022  -47.9155 H         1 UNK         0.0800 
    142 H142        3.1500  -21.2862  -47.1090 H         1 UNK         0.0800 
    143 H143        1.8333  -23.4901  -47.2129 H         1 UNK         0.0600 
    144 H144        1.5537  -21.3851  -45.3714 H         1 UNK         0.3000 
    145 H145       -0.7183  -22.9353  -43.0756 H         1 UNK         0.0600 
    146 H146        1.5996  -23.6964  -42.5340 H         1 UNK         0.0600 
    147 H147        2.2288  -22.1036  -42.9381 H         1 UNK         0.0600 
    148 H148        1.1386  -22.3019  -41.5690 H         1 UNK         0.0600 
    149 H149        0.4617  -20.3472  -43.0851 H         1 UNK         0.3000 
    150 H150       -2.1332  -18.6863  -44.9520 H         1 UNK         0.0600 
    151 H151       -2.0212  -17.2697  -42.9147 H         1 UNK         0.0600 
    152 H152       -1.2131  -18.5639  -42.0323 H         1 UNK         0.0600 
    153 H153       -2.8711  -18.7724  -42.5809 H         1 UNK         0.0600 
    154 H154        0.2728  -17.6613  -43.8741 H         1 UNK         0.3000 
    155 H155        2.3953  -18.3747  -46.6898 H         1 UNK         0.0600 
    156 H156        1.2089  -16.2772  -47.2436 H         1 UNK         0.0600 
    157 H157        2.7237  -15.9077  -46.4270 H         1 UNK         0.0600 
    158 H158        1.1969  -15.8087  -45.5495 H         1 UNK         0.0600 
    159 H159        2.7844  -17.1098  -44.1270 H         1 UNK         0.3000 
    160 H160        3.9185  -20.0353  -42.4192 H         1 UNK         0.0600 
    161 H161        5.8741  -19.2023  -43.7350 H         1 UNK         0.0600 
    162 H162        5.8927  -18.5714  -42.0960 H         1 UNK         0.0600 
    163 H163        5.3863  -17.5388  -43.4332 H         1 UNK         0.0600 
    164 H164        3.6857  -17.2894  -41.6425 H         1 UNK         0.3000 
    165 H165        0.3329  -17.4222  -40.4591 H         1 UNK         0.0600 
    166 H166        1.4213  -16.7622  -38.3380 H         1 UNK         0.0600 
    167 H167        1.6798  -18.4736  -38.6339 H         1 UNK         0.0600 
    168 H168        2.9851  -17.3300  -38.9245 H         1 UNK         0.0600 
    169 H169        2.2376  -15.3561  -40.2708 H         1 UNK         0.3000 
    170 H170        1.9048  -13.4567  -41.4285 H         1 UNK         0.0600 
    171 H171        3.3034  -12.9200  -43.4391 H         1 UNK         0.0600 
    172 H172        3.8347  -14.4069  -42.6694 H         1 UNK         0.0600 
    173 H173        2.8916  -14.4753  -44.1512 H         1 UNK         0.0600 
    174 H174        0.7648  -13.2101  -44.0996 H         1 UNK         0.3000 
    175 H175       -2.5102  -12.4353  -43.0608 H         1 UNK         0.0600 
    176 H176       -0.4351  -10.2794  -43.7334 H         1 UNK         0.0600 
    177 H177       -2.1816  -10.1345  -43.9382 H         1 UNK         0.0600 
    178 H178       -1.4943  -10.2746  -42.3282 H         1 UNK         0.0600 
    179 H179       -0.9884  -11.9128  -45.4685 H         1 UNK         0.3000 
    180 H180       -1.0060  -15.0745  -46.8142 H         1 UNK         0.0600 
    181 H181       -2.5313  -14.3885  -48.6459 H         1 UNK         0.0600 
    182 H182       -3.1960  -13.1008  -47.6411 H         1 UNK         0.0600 
    183 H183       -3.4500  -14.7867  -47.2052 H         1 UNK         0.0600 
    184 H184       -0.7558  -12.8071  -48.3342 H         1 UNK         0.3000 
    185 H185        1.2879  -12.2336  -49.0114 H         1 UNK         0.0600 
    186 H186        2.2481  -10.6079  -46.5758 H         1 UNK         0.0600 
    187 H187        2.5161  -10.1680  -48.2615 H         1 UNK         0.0600 
    188 H188        0.8840  -10.1926  -47.6092 H         1 UNK         0.0600 
    189 H189        3.2385  -13.2112  -47.0354 H         1 UNK         0.3000 
    190 H190       -0.5341  -20.7771  -47.1838 H         1 UNK         0.3000 
    191 H191       -2.0128  -21.4928  -49.4372 H         1 UNK         0.0600 
    192 H192       -3.0337  -20.0781  -46.9161 H         1 UNK         0.0600 
    193 H193       -3.7356  -19.9941  -48.5248 H         1 UNK         0.0600 
    194 H194       -2.1475  -19.2982  -48.2156 H         1 UNK         0.0600 
    195 H195       -2.6098  -22.4002  -45.9955 H         1 UNK         0.3000 
    196 H196       -4.9177  -23.9512  -46.4030 H         1 UNK         0.0600 
    197 H197       -4.3492  -24.9253  -44.1662 H         1 UNK         0.0600 
    198 H198       -4.1762  -23.1766  -44.1767 H         1 UNK         0.0600 
    199 H199       -2.7465  -24.2032  -44.2546 H         1 UNK         0.0600 
    200 H200       -1.4699  -24.9738  -46.4612 H         1 UNK         0.3000 
    201 H201       -1.9356  -27.7397  -46.9650 H         1 UNK         0.0600 
    202 H202        0.2287  -26.8524  -46.1414 H         1 UNK         0.0600 
    203 H203        0.4773  -25.9774  -47.6500 H         1 UNK         0.0600 
    204 H204        0.4672  -27.7367  -47.6415 H         1 UNK         0.0600 
    205 H205       -1.7459  -24.9410  -49.1207 H         1 UNK         0.3000 
    206 H206       -2.0280  -26.5412  -51.5767 H         1 UNK         0.0600 
    207 H207       -1.8203  -24.2491  -52.6413 H         1 UNK         0.0600 
    208 H208       -1.6603  -23.5618  -51.0244 H         1 UNK         0.0600 
    209 H209       -0.4591  -24.6897  -51.6250 H         1 UNK         0.0600 
    210 H210       -4.2076  -26.0967  -49.3421 H         1 UNK         0.3000 
    211 H211       -6.3737  -26.3123  -49.2218 H         1 UNK         0.0600 
    212 H212       -6.4888  -26.5868  -52.2660 H         1 UNK         0.0600 
    213 H213       -7.6954  -27.1330  -51.1132 H         1 UNK         0.0600 
    214 H214       -6.1156  -27.8949  -51.1444 H         1 UNK         0.0600 
    215 H215       -5.1837  -23.6061  -49.6976 H         1 UNK         0.3000 
    216 H216       -5.7223  -21.5195  -49.4956 H         1 UNK         0.0600 
    217 H217       -7.8761  -20.9571  -48.3759 H         1 UNK         0.0600 
    218 H218       -7.0915  -22.3479  -47.6449 H         1 UNK         0.0600 
    219 H219       -8.4812  -22.5746  -48.7040 H         1 UNK         0.0600 
    220 H220       -8.6237  -22.8192  -51.1380 H         1 UNK         0.3000 
    221 H221       -9.1396  -20.3604  -52.6057 H         1 UNK         0.0600 
    222 H222      -10.3198  -23.1792  -52.8838 H         1 UNK         0.0600 
    223 H223      -10.9903  -21.8623  -51.9227 H         1 UNK         0.0600 
    224 H224      -10.9387  -21.7329  -53.6741 H         1 UNK         0.0600 
    225 H225       -7.6852  -23.5342  -53.3377 H         1 UNK         0.3000 
    226 H226       -7.1037  -22.9453  -56.1179 H         1 UNK         0.0600 
    227 H227       -7.4105  -25.2707  -55.3452 H         1 UNK         0.0600 
    228 H228       -5.7816  -25.0641  -55.9706 H         1 UNK         0.0600 
    229 H229       -6.0519  -25.1192  -54.2342 H         1 UNK         0.0600 
    230 H230       -5.4731  -22.4136  -53.0464 H         1 UNK         0.3000 
    231 H231       -2.8723  -21.7556  -54.0983 H         1 UNK         0.0600 
    232 H232       -4.0537  -20.7980  -51.4367 H         1 UNK         0.0600 
    233 H233       -3.5175  -22.4483  -51.6671 H         1 UNK         0.0600 
    234 H234       -2.3764  -21.1185  -51.8390 H         1 UNK         0.0600 
    235 H235       -5.8523  -20.0073  -53.4869 H         1 UNK         0.3000 
    236 H236       -6.6681  -18.0150  -53.8877 H         1 UNK         0.0600 
    237 H237       -4.1752  -17.2346  -55.4819 H         1 UNK         0.0600 
    238 H238       -5.5686  -18.0846  -56.1522 H         1 UNK         0.0600 
    239 H239       -5.7480  -16.4561  -55.5206 H         1 UNK         0.0600 
    240 H240       -4.9027  -18.6990  -51.6225 H         1 UNK         0.3000 
    241 H241       -4.6140  -15.9716  -50.4767 H         1 UNK         0.0600 
    242 H242       -6.8079  -18.6229  -48.5420 H         1 UNK         0.3800 
    243 H243       -6.4533  -18.8097  -50.2402 H         1 UNK         0.3800 
    244 H244       -2.6529  -16.9233  -49.0728 H         1 UNK         0.0800 
    245 H245       -2.5983  -18.2496  -50.2043 H         1 UNK         0.0800 
    246 H246       -1.5485  -18.2286  -52.3772 H         1 UNK         0.0800 
    247 H247       -0.5313  -16.9652  -53.0165 H         1 UNK         0.0800 
@<TRIPOS>BOND
     1    1    2 1    
     2    1  127 1    
     3    1  128 1    
     4    1  129 1    
     5    2    3 2    
     6    2    4 am   BACKBONE|DICT|INTERRES
     7    4    5 1    
     8    4  130 1    
     9    5    6 1    
    10    5   65 1    
    11    5  131 1    
    12    6    7 1    
    13    6  132 1    
    14    6  133 1    
    15    7    8 1    
    16    8    9 1    
    17    8  134 1    
    18    8  135 1    
    19    9   10 ar   
    20    9   14 ar   
    21   10   11 ar   
    22   10  136 1    
    23   11   12 ar   
    24   11  126 1    
    25   12   13 ar   
    26   12  137 1    
    27   13   14 ar   
    28   13   15 1    
    29   14  138 1    
    30   15   16 1    
    31   15  139 1    
    32   15  140 1    
    33   16   17 1    
    34   17   18 1    
    35   17  141 1    
    36   17  142 1    
    37   18   19 1    
    38   18   67 1    
    39   18  143 1    
    40   19   20 am   BACKBONE|DICT|INTERRES
    41   19  144 1    
    42   20   21 2    
    43   20   22 1    
    44   22   23 1    
    45   22   24 1    
    46   22  145 1    
    47   23  146 1    
    48   23  147 1    
    49   23  148 1    
    50   24   25 am   BACKBONE|DICT|INTERRES
    51   24  149 1    
    52   25   26 2    
    53   25   27 1    
    54   27   28 1    
    55   27   29 1    
    56   27  150 1    
    57   28  151 1    
    58   28  152 1    
    59   28  153 1    
    60   29   30 am   BACKBONE|DICT|INTERRES
    61   29  154 1    
    62   30   31 2    
    63   30   32 1    
    64   32   33 1    
    65   32   34 1    
    66   32  155 1    
    67   33  156 1    
    68   33  157 1    
    69   33  158 1    
    70   34   35 am   BACKBONE|DICT|INTERRES
    71   34  159 1    
    72   35   36 2    
    73   35   37 1    
    74   37   38 1    
    75   37   39 1    
    76   37  160 1    
    77   38  161 1    
    78   38  162 1    
    79   38  163 1    
    80   39   40 am   BACKBONE|DICT|INTERRES
    81   39  164 1    
    82   40   41 2    
    83   40   42 1    
    84   42   43 1    
    85   42   44 1    
    86   42  165 1    
    87   43  166 1    
    88   43  167 1    
    89   43  168 1    
    90   44   45 am   BACKBONE|DICT|INTERRES
    91   44  169 1    
    92   45   46 2    
    93   45   47 1    
    94   47   48 1    
    95   47   49 1    
    96   47  170 1    
    97   48  171 1    
    98   48  172 1    
    99   48  173 1    
   100   49   50 am   BACKBONE|DICT|INTERRES
   101   49  174 1    
   102   50   51 2    
   103   50   52 1    
   104   52   53 1    
   105   52   54 1    
   106   52  175 1    
   107   53  176 1    
   108   53  177 1    
   109   53  178 1    
   110   54   55 am   BACKBONE|DICT|INTERRES
   111   54  179 1    
   112   55   56 2    
   113   55   57 1    
   114   57   58 1    
   115   57   59 1    
   116   57  180 1    
   117   58  181 1    
   118   58  182 1    
   119   58  183 1    
   120   59   60 am   BACKBONE|DICT|INTERRES
   121   59  184 1    
   122   60   61 2    
   123   60   62 1    
   124   62   63 1    
   125   62   64 1    
   126   62  185 1    
   127   63  186 1    
   128   63  187 1    
   129   63  188 1    
   130   64   65 am   BACKBONE|DICT|INTERRES
   131   64  189 1    
   132   65   66 2    
   133   67   68 2    
   134   67   69 am   BACKBONE|DICT|INTERRES
   135   69   70 1    
   136   69  190 1    
   137   70   71 1    
   138   70   72 1    
   139   70  191 1    
   140   71  192 1    
   141   71  193 1    
   142   71  194 1    
   143   72   73 2    
   144   72   74 am   BACKBONE|DICT|INTERRES
   145   74   75 1    
   146   74  195 1    
   147   75   76 1    
   148   75   77 1    
   149   75  196 1    
   150   76  197 1    
   151   76  198 1    
   152   76  199 1    
   153   77   78 2    
   154   77   79 am   BACKBONE|DICT|INTERRES
   155   79   80 1    
   156   79  200 1    
   157   80   81 1    
   158   80   82 1    
   159   80  201 1    
   160   81  202 1    
   161   81  203 1    
   162   81  204 1    
   163   82   83 2    
   164   82   84 am   BACKBONE|DICT|INTERRES
   165   84   85 1    
   166   84  205 1    
   167   85   86 1    
   168   85   87 1    
   169   85  206 1    
   170   86  207 1    
   171   86  208 1    
   172   86  209 1    
   173   87   88 2    
   174   87   89 am   BACKBONE|DICT|INTERRES
   175   89   90 1    
   176   89  210 1    
   177   90   91 1    
   178   90   92 1    
   179   90  211 1    
   180   91  212 1    
   181   91  213 1    
   182   91  214 1    
   183   92   93 2    
   184   92   94 am   BACKBONE|DICT|INTERRES
   185   94   95 1    
   186   94  215 1    
   187   95   96 1    
   188   95   97 1    
   189   95  216 1    
   190   96  217 1    
   191   96  218 1    
   192   96  219 1    
   193   97   98 2    
   194   97   99 am   BACKBONE|DICT|INTERRES
   195   99  100 1    
   196   99  220 1    
   197  100  101 1    
   198  100  102 1    
   199  100  221 1    
   200  101  222 1    
   201  101  223 1    
   202  101  224 1    
   203  102  103 2    
   204  102  104 am   BACKBONE|DICT|INTERRES
   205  104  105 1    
   206  104  225 1    
   207  105  106 1    
   208  105  107 1    
   209  105  226 1    
   210  106  227 1    
   211  106  228 1    
   212  106  229 1    
   213  107  108 2    
   214  107  109 am   BACKBONE|DICT|INTERRES
   215  109  110 1    
   216  109  230 1    
   217  110  111 1    
   218  110  112 1    
   219  110  231 1    
   220  111  232 1    
   221  111  233 1    
   222  111  234 1    
   223  112  113 2    
   224  112  114 am   BACKBONE|DICT|INTERRES
   225  114  115 1    
   226  114  235 1    
   227  115  116 1    
   228  115  117 1    
   229  115  236 1    
   230  116  237 1    
   231  116  238 1    
   232  116  239 1    
   233  117  118 2    
   234  117  119 am   BACKBONE|DICT|INTERRES
   235  119  120 1    
   236  119  240 1    
   237  120  121 1    
   238  120  124 1    
   239  120  241 1    
   240  121  122 am   BACKBONE|DICT|INTERRES
   241  121  123 2    
   242  122  242 1    
   243  122  243 1    
   244  124  125 1    
   245  124  244 1    
   246  124  245 1    
   247  125  126 1    
   248  126  246 1    
   249  126  247 1    
@<TRIPOS>SUBSTRUCTURE
     1 UNK         1 GROUP             0       ****    0 ROOT    
