@<TRIPOS>MOLECULE
3R540
247   249    1
SMALL
USER_CHARGES


@<TRIPOS>ATOM
      1 CA         -3.9612  -16.8932  -48.3963 C.3       0 UNK        -0.1800 
      2 C          -3.0033  -15.9205  -47.7222 C.2       0 UNK         0.5000 
      3 O          -2.2433  -16.3200  -46.8433 O.2       0 UNK        -0.5000 
      4 N          -3.0445  -14.6431  -48.1208 N.am      1 UNK        -0.5000 
      5 CA         -2.2280  -13.5099  -47.6479 C.3       1 UNK         0.1400 
      6 C6         -0.6909  -13.7046  -47.7695 C.3       23 UNK        -0.0398 
      7 S7         -0.1640  -14.1897  -49.4493 S.3       23 UNK        -0.2404 
      8 C8          0.6533  -15.7855  -49.1318 C.3       23 UNK        -0.0205 
      9 C9          0.4347  -16.7522  -50.2828 C.ar      23 UNK        -0.0193 
     10 C10         1.2752  -16.7372  -51.3990 C.ar      23 UNK        -0.1150 
     11 C11         1.0736  -17.6387  -52.4492 C.ar      23 UNK        -0.0193 
     12 C12         0.0235  -18.5605  -52.3754 C.ar      23 UNK        -0.1150 
     13 C13        -0.8149  -18.5915  -51.2571 C.ar      23 UNK        -0.0193 
     14 C14        -0.6079  -17.6784  -50.2204 C.ar      23 UNK        -0.1150 
     15 C15        -1.9326  -19.6200  -51.1538 C.3       23 UNK        -0.0205 
     16 S16        -1.2994  -21.2675  -50.7023 S.3       23 UNK        -0.2404 
     17 C17        -0.4891  -20.9315  -49.0999 C.3       23 UNK        -0.0398 
     18 CA         -0.7022  -22.0597  -48.0676 C.3       11 UNK         0.1400 
     19 N           0.2089  -21.9249  -46.9359 N.am      11 UNK        -0.5000 
     20 C           1.1375  -22.8228  -46.5858 C.2       10 UNK         0.5000 
     21 O           1.4310  -23.8007  -47.2738 O.2       10 UNK        -0.5000 
     22 CA          1.8567  -22.6226  -45.2327 C.3       10 UNK         0.1400 
     23 CB          3.2983  -22.1437  -45.4637 C.3       10 UNK        -0.1800 
     24 N           1.1947  -21.6971  -44.3084 N.am      10 UNK        -0.5000 
     25 C          -0.0569  -21.8033  -43.8396 C.2       9 UNK         0.5000 
     26 O          -0.8131  -22.7421  -44.0967 O.2       9 UNK        -0.5000 
     27 CA         -0.5873  -20.6119  -43.0209 C.3       9 UNK         0.1400 
     28 CB         -0.2577  -20.7939  -41.5331 C.3       9 UNK        -0.1800 
     29 N          -0.0927  -19.3062  -43.4730 N.am      9 UNK        -0.5000 
     30 C          -0.1976  -18.8079  -44.7152 C.2       8 UNK         0.5000 
     31 O          -0.6850  -19.4206  -45.6636 O.2       8 UNK        -0.5000 
     32 CA          0.4032  -17.4162  -44.9481 C.3       8 UNK         0.1400 
     33 CB         -0.4142  -16.3283  -44.2313 C.3       8 UNK        -0.1800 
     34 N           1.7995  -17.3954  -44.5165 N.am      8 UNK        -0.5000 
     35 C           2.8022  -17.9489  -45.2159 C.2       7 UNK         0.5000 
     36 O           2.6783  -18.3679  -46.3664 O.2       7 UNK        -0.5000 
     37 CA          4.1636  -18.1004  -44.5097 C.3       7 UNK         0.1400 
     38 CB          5.1725  -17.0490  -44.9936 C.3       7 UNK        -0.1800 
     39 N           4.0586  -18.0387  -43.0515 N.am      7 UNK        -0.5000 
     40 C           3.6169  -19.0484  -42.2883 C.2       6 UNK         0.5000 
     41 O           3.2647  -20.1391  -42.7370 O.2       6 UNK        -0.5000 
     42 CA          3.4938  -18.7719  -40.7777 C.3       6 UNK         0.1400 
     43 CB          4.8356  -19.0142  -40.0712 C.3       6 UNK        -0.1800 
     44 N           3.0265  -17.4154  -40.4822 N.am      6 UNK        -0.5000 
     45 C           1.8364  -16.9275  -40.8559 C.2       5 UNK         0.5000 
     46 O           0.9999  -17.5948  -41.4636 O.2       5 UNK        -0.5000 
     47 CA          1.5281  -15.4518  -40.5358 C.3       5 UNK         0.1400 
     48 CB          2.4283  -14.8507  -39.4337 C.3       5 UNK        -0.1800 
     49 N           1.5538  -14.6029  -41.7325 N.am      5 UNK        -0.5000 
     50 C           2.5824  -14.4036  -42.5744 C.2       4 UNK         0.5000 
     51 O           3.6434  -15.0255  -42.5058 O.2       4 UNK        -0.5000 
     52 CA          2.4179  -13.3264  -43.6730 C.3       4 UNK         0.1400 
     53 CB          2.5945  -13.9058  -45.0866 C.3       4 UNK        -0.1800 
     54 N           1.1408  -12.6127  -43.6146 N.am      4 UNK        -0.5000 
     55 C           0.8409  -11.6355  -42.7481 C.2       3 UNK         0.5000 
     56 O           1.6327  -11.1979  -41.9130 O.2       3 UNK        -0.5000 
     57 CA         -0.5881  -11.0601  -42.8116 C.3       3 UNK         0.1400 
     58 CB         -0.5882   -9.7049  -43.5352 C.3       3 UNK        -0.1800 
     59 N          -1.5642  -11.9385  -43.4631 N.am      3 UNK        -0.5000 
     60 C          -1.9716  -13.1345  -43.0222 C.2       2 UNK         0.5000 
     61 O          -1.5062  -13.6823  -42.0221 O.2       2 UNK        -0.5000 
     62 CA         -3.0529  -13.8539  -43.8544 C.3       2 UNK         0.1400 
     63 CB         -4.4381  -13.2154  -43.6420 C.3       2 UNK        -0.1800 
     64 N          -2.7350  -13.9835  -45.2845 N.am      2 UNK        -0.5000 
     65 C          -2.5972  -13.0376  -46.2246 C.2       1 UNK         0.5000 
     66 O          -2.7362  -11.8326  -46.0100 O.2       1 UNK        -0.5000 
     67 C          -2.1526  -22.0996  -47.5542 C.2       11 UNK         0.5000 
     68 O          -2.8948  -23.0139  -47.9088 O.2       11 UNK        -0.5000 
     69 N          -2.5373  -21.1167  -46.7292 N.am      12 UNK        -0.5000 
     70 CA         -3.9109  -20.8643  -46.2955 C.3       12 UNK         0.1400 
     71 CB         -3.9613  -19.5420  -45.5152 C.3       12 UNK        -0.1800 
     72 C          -4.5414  -21.9965  -45.4701 C.2       12 UNK         0.5000 
     73 O          -5.7390  -22.2438  -45.6124 O.2       12 UNK        -0.5000 
     74 N          -3.7331  -22.6597  -44.6354 N.am      13 UNK        -0.5000 
     75 CA         -4.1613  -23.7773  -43.7996 C.3       13 UNK         0.1400 
     76 CB         -3.6722  -23.5624  -42.3572 C.3       13 UNK        -0.1800 
     77 C          -3.6351  -25.0985  -44.3724 C.2       13 UNK         0.5000 
     78 O          -4.4181  -26.0273  -44.5706 O.2       13 UNK        -0.5000 
     79 N          -2.3236  -25.1579  -44.6427 N.am      14 UNK        -0.5000 
     80 CA         -1.6221  -26.3806  -45.0396 C.3       14 UNK         0.1400 
     81 CB         -0.1106  -26.1635  -44.8918 C.3       14 UNK        -0.1800 
     82 C          -1.9669  -26.8855  -46.4541 C.2       14 UNK         0.5000 
     83 O          -1.8744  -28.0907  -46.6916 O.2       14 UNK        -0.5000 
     84 N          -2.3636  -25.9784  -47.3566 N.am      15 UNK        -0.5000 
     85 CA         -2.7762  -26.2918  -48.7281 C.3       15 UNK         0.1400 
     86 CB         -1.7520  -25.7009  -49.7144 C.3       15 UNK        -0.1800 
     87 C          -4.1995  -25.7852  -49.0269 C.2       15 UNK         0.5000 
     88 O          -4.5966  -25.7735  -50.1913 O.2       15 UNK        -0.5000 
     89 N          -4.9343  -25.3475  -47.9912 N.am      16 UNK        -0.5000 
     90 CA         -6.3020  -24.8102  -48.0321 C.3       16 UNK         0.1400 
     91 CB         -7.3030  -25.9508  -48.3091 C.3       16 UNK        -0.1800 
     92 C          -6.4939  -23.6119  -48.9946 C.2       16 UNK         0.5000 
     93 O          -7.5933  -23.4186  -49.5167 O.2       16 UNK        -0.5000 
     94 N          -5.4173  -22.8446  -49.2271 N.am      17 UNK        -0.5000 
     95 CA         -5.3010  -21.7281  -50.1719 C.3       17 UNK         0.1400 
     96 CB         -6.2114  -20.5512  -49.7572 C.3       17 UNK        -0.1800 
     97 C          -5.5087  -22.1370  -51.6491 C.2       17 UNK         0.5000 
     98 O          -5.9420  -21.3070  -52.4502 O.2       17 UNK        -0.5000 
     99 N          -5.2040  -23.3990  -51.9957 N.am      18 UNK        -0.5000 
    100 CA        -5.4239  -23.9728  -53.3290 C.3       18 UNK         0.1400 
    101 CB        -5.1593  -25.4849  -53.2912 C.3       18 UNK        -0.1800 
    102 C         -4.6025  -23.3164  -54.4552 C.2       18 UNK         0.5000 
    103 O         -5.0559  -23.3041  -55.6012 O.2       18 UNK        -0.5000 
    104 N         -3.4293  -22.7602  -54.1225 N.am      19 UNK        -0.5000 
    105 CA        -2.5805  -21.9941  -55.0366 C.3       19 UNK         0.1400 
    106 CB        -1.1249  -22.0398  -54.5402 C.3       19 UNK        -0.1800 
    107 C         -3.1114  -20.5556  -55.1991 C.2       19 UNK         0.5000 
    108 O         -2.4576  -19.5982  -54.7802 O.2       19 UNK        -0.5000 
    109 N         -4.3091  -20.4335  -55.7861 N.am      20 UNK        -0.5000 
    110 CA        -4.9939  -19.1748  -56.0782 C.3       20 UNK         0.1400 
    111 CB        -6.3601  -19.4775  -56.7114 C.3       20 UNK        -0.1800 
    112 C         -4.1435  -18.2805  -56.9971 C.2       20 UNK         0.5000 
    113 O         -3.7193  -18.7348  -58.0632 O.2       20 UNK        -0.5000 
    114 N         -3.8542  -17.0574  -56.5297 N.am      21 UNK        -0.5000 
    115 CA        -2.9428  -16.0768  -57.1385 C.3       21 UNK         0.1400 
    116 CB        -3.5515  -15.5101  -58.4383 C.3       21 UNK        -0.1800 
    117 C         -1.5044  -16.6131  -57.3372 C.2       21 UNK         0.5000 
    118 O         -0.8027  -16.1680  -58.2471 O.2       21 UNK        -0.5000 
    119 N         -1.1076  -17.5761  -56.4929 N.am      22 UNK        -0.5000 
    120 CA         0.1397  -18.3536  -56.5609 C.3       22 UNK         0.1400 
    121 C          0.2091  -19.3523  -57.7572 C.2       22 UNK         0.5000 
    122 N         -0.8884  -19.6561  -58.4423 N.am      22 UNK        -0.7600 
    123 O          1.2709  -19.8932  -58.0537 O.2       22 UNK        -0.5000 
    124 C124        1.4280  -17.4941  -56.4131 C.3       23 UNK        -0.0398 
    125 S125        1.4175  -16.4498  -54.9149 S.3       23 UNK        -0.2404 
    126 C126        2.0005  -17.6253  -53.6539 C.3       23 UNK        -0.0205 
    127 H127       -4.2684  -16.5363  -49.3795 H         1 UNK         0.0600 
    128 H128       -4.8518  -17.0266  -47.7824 H         1 UNK         0.0600 
    129 H129       -3.4890  -17.8672  -48.5219 H         1 UNK         0.0600 
    130 H130       -3.7149  -14.3944  -48.8345 H         1 UNK         0.3000 
    131 H131       -2.4934  -12.6857  -48.3122 H         1 UNK         0.0600 
    132 H132       -0.3341  -14.4316  -47.0393 H         1 UNK         0.0800 
    133 H133       -0.1774  -12.7720  -47.5286 H         1 UNK         0.0800 
    134 H134        0.2719  -16.2352  -48.2147 H         1 UNK         0.0800 
    135 H135        1.7198  -15.6218  -48.9707 H         1 UNK         0.0800 
    136 H136        2.0840  -16.0219  -51.4515 H         1 UNK         0.1150 
    137 H137       -0.1368  -19.2627  -53.1812 H         1 UNK         0.1150 
    138 H138       -1.2488  -17.6967  -49.3516 H         1 UNK         0.1150 
    139 H139       -2.6790  -19.3076  -50.4224 H         1 UNK         0.0800 
    140 H140       -2.4543  -19.6890  -52.1087 H         1 UNK         0.0800 
    141 H141       -0.8235  -19.9771  -48.6920 H         1 UNK         0.0800 
    142 H142        0.5764  -20.8112  -49.3012 H         1 UNK         0.0800 
    143 H143       -0.5198  -23.0102  -48.5717 H         1 UNK         0.0600 
    144 H144        0.0415  -21.1359  -46.3205 H         1 UNK         0.3000 
    145 H145        1.8942  -23.5976  -44.7434 H         1 UNK         0.0600 
    146 H146        3.8585  -22.1103  -44.5293 H         1 UNK         0.0600 
    147 H147        3.3221  -21.1476  -45.9069 H         1 UNK         0.0600 
    148 H148        3.8340  -22.8155  -46.1357 H         1 UNK         0.0600 
    149 H149        1.7542  -20.9150  -43.9870 H         1 UNK         0.3000 
    150 H150       -1.6732  -20.6018  -43.1283 H         1 UNK         0.0600 
    151 H151       -0.6485  -21.7408  -41.1582 H         1 UNK         0.0600 
    152 H152       -0.6982  -19.9987  -40.9314 H         1 UNK         0.0600 
    153 H153        0.8185  -20.7883  -41.3577 H         1 UNK         0.0600 
    154 H154        0.3280  -18.7192  -42.7555 H         1 UNK         0.3000 
    155 H155        0.3537  -17.2135  -46.0196 H         1 UNK         0.0600 
    156 H156       -0.2545  -16.3124  -43.1571 H         1 UNK         0.0600 
    157 H157       -1.4814  -16.4884  -44.3814 H         1 UNK         0.0600 
    158 H158       -0.1810  -15.3380  -44.6160 H         1 UNK         0.0600 
    159 H159        1.9759  -17.1273  -43.5589 H         1 UNK         0.3000 
    160 H160        4.5551  -19.0817  -44.7872 H         1 UNK         0.0600 
    161 H161        4.9143  -16.0502  -44.6474 H         1 UNK         0.0600 
    162 H162        5.2228  -17.0206  -46.0829 H         1 UNK         0.0600 
    163 H163        6.1746  -17.2747  -44.6288 H         1 UNK         0.0600 
    164 H164        4.2626  -17.1451  -42.6186 H         1 UNK         0.3000 
    165 H165        2.7627  -19.4737  -40.3714 H         1 UNK         0.0600 
    166 H166        4.7387  -18.9014  -38.9913 H         1 UNK         0.0600 
    167 H167        5.1987  -20.0254  -40.2601 H         1 UNK         0.0600 
    168 H168        5.6034  -18.3198  -40.4146 H         1 UNK         0.0600 
    169 H169        3.6737  -16.8010  -40.0100 H         1 UNK         0.3000 
    170 H170        0.5011  -15.4312  -40.1680 H         1 UNK         0.0600 
    171 H171        2.3904  -15.4505  -38.5234 H         1 UNK         0.0600 
    172 H172        3.4716  -14.7769  -39.7422 H         1 UNK         0.0600 
    173 H173        2.0952  -13.8470  -39.1690 H         1 UNK         0.0600 
    174 H174        0.6993  -14.0868  -41.9034 H         1 UNK         0.3000 
    175 H175        3.2184  -12.6004  -43.5167 H         1 UNK         0.0600 
    176 H176        1.8840  -14.7011  -45.3013 H         1 UNK         0.0600 
    177 H177        2.4688  -13.1344  -45.8466 H         1 UNK         0.0600 
    178 H178        3.5948  -14.3149  -45.2177 H         1 UNK         0.0600 
    179 H179        0.4249  -12.9034  -44.2623 H         1 UNK         0.3000 
    180 H180       -0.9185  -10.9008  -41.7833 H         1 UNK         0.0600 
    181 H181       -1.5760   -9.2444  -43.5097 H         1 UNK         0.0600 
    182 H182       -0.2933   -9.8085  -44.5803 H         1 UNK         0.0600 
    183 H183        0.1063   -9.0078  -43.0643 H         1 UNK         0.0600 
    184 H184       -1.9856  -11.5984  -44.3245 H         1 UNK         0.3000 
    185 H185       -3.1097  -14.8743  -43.4724 H         1 UNK         0.0600 
    186 H186       -4.4737  -12.1833  -43.9914 H         1 UNK         0.0600 
    187 H187       -5.2122  -13.7735  -44.1687 H         1 UNK         0.0600 
    188 H188       -4.7047  -13.2094  -42.5844 H         1 UNK         0.0600 
    189 H189       -2.5795  -14.9366  -45.6058 H         1 UNK         0.3000 
    190 H190       -1.8534  -20.4201  -46.4344 H         1 UNK         0.3000 
    191 H191       -4.5106  -20.7463  -47.1969 H         1 UNK         0.0600 
    192 H192       -3.5535  -18.7197  -46.1020 H         1 UNK         0.0600 
    193 H193       -3.3919  -19.5997  -44.5874 H         1 UNK         0.0600 
    194 H194       -4.9876  -19.2793  -45.2556 H         1 UNK         0.0600 
    195 H195       -2.7459  -22.4316  -44.6157 H         1 UNK         0.3000 
    196 H196       -5.2511  -23.8412  -43.7679 H         1 UNK         0.0600 
    197 H197       -4.0704  -22.6361  -41.9431 H         1 UNK         0.0600 
    198 H198       -2.5854  -23.5155  -42.2909 H         1 UNK         0.0600 
    199 H199       -4.0032  -24.3758  -41.7104 H         1 UNK         0.0600 
    200 H200       -1.7454  -24.3430  -44.4534 H         1 UNK         0.3000 
    201 H201       -1.9122  -27.1672  -44.3396 H         1 UNK         0.0600 
    202 H202        0.1501  -25.8530  -43.8798 H         1 UNK         0.0600 
    203 H203        0.2462  -25.4009  -45.5799 H         1 UNK         0.0600 
    204 H204        0.4398  -27.0806  -45.1050 H         1 UNK         0.0600 
    205 H205       -2.4082  -25.0007  -47.0964 H         1 UNK         0.3000 
    206 H206       -2.8037  -27.3720  -48.8820 H         1 UNK         0.0600 
    207 H207       -1.7889  -24.6124  -49.7335 H         1 UNK         0.0600 
    208 H208       -0.7354  -25.9997  -49.4583 H         1 UNK         0.0600 
    209 H209       -1.9455  -26.0472  -50.7303 H         1 UNK         0.0600 
    210 H210       -4.5193  -25.4056  -47.0723 H         1 UNK         0.3000 
    211 H211       -6.5079  -24.4288  -47.0316 H         1 UNK         0.0600 
    212 H212       -7.1918  -26.3471  -49.3189 H         1 UNK         0.0600 
    213 H213       -8.3324  -25.6066  -48.2028 H         1 UNK         0.0600 
    214 H214       -7.1656  -26.7743  -47.6083 H         1 UNK         0.0600 
    215 H215       -4.5549  -23.0886  -48.7442 H         1 UNK         0.3000 
    216 H216       -4.2695  -21.3853  -50.0951 H         1 UNK         0.0600 
    217 H217       -5.9683  -19.6526  -50.3253 H         1 UNK         0.0600 
    218 H218       -6.1039  -20.3033  -48.7031 H         1 UNK         0.0600 
    219 H219       -7.2636  -20.7737  -49.9368 H         1 UNK         0.0600 
    220 H220       -4.8931  -24.0458  -51.2777 H         1 UNK         0.3000 
    221 H221       -6.4771  -23.8245  -53.5761 H         1 UNK         0.0600 
    222 H222       -4.1368  -25.7059  -52.9824 H         1 UNK         0.0600 
    223 H223       -5.8362  -25.9851  -52.5986 H         1 UNK         0.0600 
    224 H224       -5.3120  -25.9362  -54.2725 H         1 UNK         0.0600 
    225 H225       -3.1455  -22.7856  -53.1541 H         1 UNK         0.3000 
    226 H226       -2.6015  -22.4628  -56.0229 H         1 UNK         0.0600 
    227 H227       -0.7674  -23.0662  -54.4581 H         1 UNK         0.0600 
    228 H228       -0.4618  -21.5197  -55.2324 H         1 UNK         0.0600 
    229 H229       -1.0142  -21.5678  -53.5655 H         1 UNK         0.0600 
    230 H230       -4.7805  -21.2850  -56.0685 H         1 UNK         0.3000 
    231 H231       -5.1608  -18.6616  -55.1289 H         1 UNK         0.0600 
    232 H232       -6.9035  -18.5564  -56.9255 H         1 UNK         0.0600 
    233 H233       -6.9809  -20.0739  -56.0423 H         1 UNK         0.0600 
    234 H234       -6.2565  -20.0243  -57.6496 H         1 UNK         0.0600 
    235 H235       -4.2288  -16.7918  -55.6293 H         1 UNK         0.3000 
    236 H236       -2.8593  -15.2539  -56.4272 H         1 UNK         0.0600 
    237 H237       -3.6030  -16.2648  -59.2237 H         1 UNK         0.0600 
    238 H238       -4.5598  -15.1321  -58.2696 H         1 UNK         0.0600 
    239 H239       -2.9562  -14.6804  -58.8212 H         1 UNK         0.0600 
    240 H240       -1.7648  -17.9091  -55.7964 H         1 UNK         0.3000 
    241 H241        0.1019  -19.0041  -55.6873 H         1 UNK         0.0600 
    242 H242       -0.8236  -20.3087  -59.2071 H         1 UNK         0.3800 
    243 H243       -1.7837  -19.2293  -58.2277 H         1 UNK         0.3800 
    244 H244        1.5550  -16.8457  -57.2806 H         1 UNK         0.0800 
    245 H245        2.3168  -18.1265  -56.3864 H         1 UNK         0.0800 
    246 H246        3.0104  -17.3478  -53.3483 H         1 UNK         0.0800 
    247 H247        2.0762  -18.6319  -54.0675 H         1 UNK         0.0800 
@<TRIPOS>BOND
     1    1    2 1    
     2    1  127 1    
     3    1  128 1    
     4    1  129 1    
     5    2    3 2    
     6    2    4 am   BACKBONE|DICT|INTERRES
     7    4    5 1    
     8    4  130 1    
     9    5    6 1    
    10    5   65 1    
    11    5  131 1    
    12    6    7 1    
    13    6  132 1    
    14    6  133 1    
    15    7    8 1    
    16    8    9 1    
    17    8  134 1    
    18    8  135 1    
    19    9   10 ar   
    20    9   14 ar   
    21   10   11 ar   
    22   10  136 1    
    23   11   12 ar   
    24   11  126 1    
    25   12   13 ar   
    26   12  137 1    
    27   13   14 ar   
    28   13   15 1    
    29   14  138 1    
    30   15   16 1    
    31   15  139 1    
    32   15  140 1    
    33   16   17 1    
    34   17   18 1    
    35   17  141 1    
    36   17  142 1    
    37   18   19 1    
    38   18   67 1    
    39   18  143 1    
    40   19   20 am   BACKBONE|DICT|INTERRES
    41   19  144 1    
    42   20   21 2    
    43   20   22 1    
    44   22   23 1    
    45   22   24 1    
    46   22  145 1    
    47   23  146 1    
    48   23  147 1    
    49   23  148 1    
    50   24   25 am   BACKBONE|DICT|INTERRES
    51   24  149 1    
    52   25   26 2    
    53   25   27 1    
    54   27   28 1    
    55   27   29 1    
    56   27  150 1    
    57   28  151 1    
    58   28  152 1    
    59   28  153 1    
    60   29   30 am   BACKBONE|DICT|INTERRES
    61   29  154 1    
    62   30   31 2    
    63   30   32 1    
    64   32   33 1    
    65   32   34 1    
    66   32  155 1    
    67   33  156 1    
    68   33  157 1    
    69   33  158 1    
    70   34   35 am   BACKBONE|DICT|INTERRES
    71   34  159 1    
    72   35   36 2    
    73   35   37 1    
    74   37   38 1    
    75   37   39 1    
    76   37  160 1    
    77   38  161 1    
    78   38  162 1    
    79   38  163 1    
    80   39   40 am   BACKBONE|DICT|INTERRES
    81   39  164 1    
    82   40   41 2    
    83   40   42 1    
    84   42   43 1    
    85   42   44 1    
    86   42  165 1    
    87   43  166 1    
    88   43  167 1    
    89   43  168 1    
    90   44   45 am   BACKBONE|DICT|INTERRES
    91   44  169 1    
    92   45   46 2    
    93   45   47 1    
    94   47   48 1    
    95   47   49 1    
    96   47  170 1    
    97   48  171 1    
    98   48  172 1    
    99   48  173 1    
   100   49   50 am   BACKBONE|DICT|INTERRES
   101   49  174 1    
   102   50   51 2    
   103   50   52 1    
   104   52   53 1    
   105   52   54 1    
   106   52  175 1    
   107   53  176 1    
   108   53  177 1    
   109   53  178 1    
   110   54   55 am   BACKBONE|DICT|INTERRES
   111   54  179 1    
   112   55   56 2    
   113   55   57 1    
   114   57   58 1    
   115   57   59 1    
   116   57  180 1    
   117   58  181 1    
   118   58  182 1    
   119   58  183 1    
   120   59   60 am   BACKBONE|DICT|INTERRES
   121   59  184 1    
   122   60   61 2    
   123   60   62 1    
   124   62   63 1    
   125   62   64 1    
   126   62  185 1    
   127   63  186 1    
   128   63  187 1    
   129   63  188 1    
   130   64   65 am   BACKBONE|DICT|INTERRES
   131   64  189 1    
   132   65   66 2    
   133   67   68 2    
   134   67   69 am   BACKBONE|DICT|INTERRES
   135   69   70 1    
   136   69  190 1    
   137   70   71 1    
   138   70   72 1    
   139   70  191 1    
   140   71  192 1    
   141   71  193 1    
   142   71  194 1    
   143   72   73 2    
   144   72   74 am   BACKBONE|DICT|INTERRES
   145   74   75 1    
   146   74  195 1    
   147   75   76 1    
   148   75   77 1    
   149   75  196 1    
   150   76  197 1    
   151   76  198 1    
   152   76  199 1    
   153   77   78 2    
   154   77   79 am   BACKBONE|DICT|INTERRES
   155   79   80 1    
   156   79  200 1    
   157   80   81 1    
   158   80   82 1    
   159   80  201 1    
   160   81  202 1    
   161   81  203 1    
   162   81  204 1    
   163   82   83 2    
   164   82   84 am   BACKBONE|DICT|INTERRES
   165   84   85 1    
   166   84  205 1    
   167   85   86 1    
   168   85   87 1    
   169   85  206 1    
   170   86  207 1    
   171   86  208 1    
   172   86  209 1    
   173   87   88 2    
   174   87   89 am   BACKBONE|DICT|INTERRES
   175   89   90 1    
   176   89  210 1    
   177   90   91 1    
   178   90   92 1    
   179   90  211 1    
   180   91  212 1    
   181   91  213 1    
   182   91  214 1    
   183   92   93 2    
   184   92   94 am   BACKBONE|DICT|INTERRES
   185   94   95 1    
   186   94  215 1    
   187   95   96 1    
   188   95   97 1    
   189   95  216 1    
   190   96  217 1    
   191   96  218 1    
   192   96  219 1    
   193   97   98 2    
   194   97   99 am   BACKBONE|DICT|INTERRES
   195   99  100 1    
   196   99  220 1    
   197  100  101 1    
   198  100  102 1    
   199  100  221 1    
   200  101  222 1    
   201  101  223 1    
   202  101  224 1    
   203  102  103 2    
   204  102  104 am   BACKBONE|DICT|INTERRES
   205  104  105 1    
   206  104  225 1    
   207  105  106 1    
   208  105  107 1    
   209  105  226 1    
   210  106  227 1    
   211  106  228 1    
   212  106  229 1    
   213  107  108 2    
   214  107  109 am   BACKBONE|DICT|INTERRES
   215  109  110 1    
   216  109  230 1    
   217  110  111 1    
   218  110  112 1    
   219  110  231 1    
   220  111  232 1    
   221  111  233 1    
   222  111  234 1    
   223  112  113 2    
   224  112  114 am   BACKBONE|DICT|INTERRES
   225  114  115 1    
   226  114  235 1    
   227  115  116 1    
   228  115  117 1    
   229  115  236 1    
   230  116  237 1    
   231  116  238 1    
   232  116  239 1    
   233  117  118 2    
   234  117  119 am   BACKBONE|DICT|INTERRES
   235  119  120 1    
   236  119  240 1    
   237  120  121 1    
   238  120  124 1    
   239  120  241 1    
   240  121  122 am   BACKBONE|DICT|INTERRES
   241  121  123 2    
   242  122  242 1    
   243  122  243 1    
   244  124  125 1    
   245  124  244 1    
   246  124  245 1    
   247  125  126 1    
   248  126  246 1    
   249  126  247 1    
@<TRIPOS>SUBSTRUCTURE
     1 UNK         1 GROUP             0       ****    0 ROOT    
