@<TRIPOS>MOLECULE
3R540
247   249    1
SMALL
USER_CHARGES


@<TRIPOS>ATOM
      1 CA          0.9468  -12.7356  -47.7814 C.3       0 UNK        -0.1800 
      2 C           0.8887  -13.6929  -46.5932 C.2       0 UNK         0.5000 
      3 O           0.0686  -13.4930  -45.7009 O.2       0 UNK        -0.5000 
      4 N           1.7232  -14.7391  -46.5336 N.am      1 UNK        -0.5000 
      5 CA          2.8263  -15.0425  -47.4513 C.3       1 UNK         0.1400 
      6 C6          3.2245  -16.5387  -47.3798 C.3       23 UNK        -0.0398 
      7 S7          3.9129  -17.1552  -48.9531 S.3       23 UNK        -0.2404 
      8 C8          2.6220  -18.3190  -49.4986 C.3       23 UNK        -0.0205 
      9 C9          1.4991  -17.6466  -50.2795 C.ar      23 UNK        -0.0193 
     10 C10         1.3170  -17.9445  -51.6337 C.ar      23 UNK        -0.1150 
     11 C11         0.2281  -17.4233  -52.3377 C.ar      23 UNK        -0.0193 
     12 C12        -0.6699  -16.5746  -51.6863 C.ar      23 UNK        -0.1150 
     13 C13        -0.4944  -16.2586  -50.3369 C.ar      23 UNK        -0.0193 
     14 C14         0.5962  -16.7889  -49.6432 C.ar      23 UNK        -0.1150 
     15 C15        -1.5076  -15.3766  -49.6248 C.3       23 UNK        -0.0205 
     16 S16        -2.9211  -16.3494  -49.0143 S.3       23 UNK        -0.2404 
     17 C17        -2.2582  -17.0650  -47.4716 C.3       23 UNK        -0.0398 
     18 CA         -1.6389  -18.4726  -47.6480 C.3       11 UNK         0.1400 
     19 N          -0.7588  -18.8149  -46.5292 N.am      11 UNK        -0.5000 
     20 C           0.0631  -19.8726  -46.5014 C.2       10 UNK         0.5000 
     21 O           0.2222  -20.6435  -47.4457 O.2       10 UNK        -0.5000 
     22 CA          0.7937  -20.1428  -45.1774 C.3       10 UNK         0.1400 
     23 CB          2.1083  -19.3545  -45.1034 C.3       10 UNK        -0.1800 
     24 N          -0.0455  -19.8264  -44.0214 N.am      10 UNK        -0.5000 
     25 C          -1.1025  -20.5605  -43.6438 C.2       9 UNK         0.5000 
     26 O          -1.4487  -21.5999  -44.2060 O.2       9 UNK        -0.5000 
     27 CA         -1.9404  -20.0115  -42.4740 C.3       9 UNK         0.1400 
     28 CB         -1.2793  -20.3475  -41.1288 C.3       9 UNK        -0.1800 
     29 N          -2.1544  -18.5656  -42.5617 N.am      9 UNK        -0.5000 
     30 C          -2.8360  -17.9569  -43.5423 C.2       8 UNK         0.5000 
     31 O          -3.3927  -18.5580  -44.4587 O.2       8 UNK        -0.5000 
     32 CA         -2.8722  -16.4180  -43.5297 C.3       8 UNK         0.1400 
     33 CB         -4.1302  -15.9189  -42.8045 C.3       8 UNK        -0.1800 
     34 N          -1.6922  -15.7898  -42.9326 N.am      8 UNK        -0.5000 
     35 C          -0.4262  -15.9351  -43.3489 C.2       7 UNK         0.5000 
     36 O          -0.0996  -16.6922  -44.2679 O.2       7 UNK        -0.5000 
     37 CA          0.6477  -15.1069  -42.6083 C.3       7 UNK         0.1400 
     38 CB          0.1238  -14.3884  -41.3478 C.3       7 UNK        -0.1800 
     39 N           1.7837  -15.9443  -42.2298 N.am      7 UNK        -0.5000 
     40 C           2.8272  -16.2264  -43.0188 C.2       6 UNK         0.5000 
     41 O           2.9757  -15.7405  -44.1413 O.2       6 UNK        -0.5000 
     42 CA          3.8888  -17.1841  -42.4481 C.3       6 UNK         0.1400 
     43 CB          5.2338  -17.0712  -43.1861 C.3       6 UNK        -0.1800 
     44 N           4.1094  -16.9172  -41.0290 N.am      6 UNK        -0.5000 
     45 C           3.7783  -17.7301  -40.0174 C.2       5 UNK         0.5000 
     46 O           3.2297  -18.8213  -40.1724 O.2       5 UNK        -0.5000 
     47 CA          4.1033  -17.2486  -38.5875 C.3       5 UNK         0.1400 
     48 CB          5.3591  -17.9569  -38.0564 C.3       5 UNK        -0.1800 
     49 N           4.3014  -15.8008  -38.4870 N.am      5 UNK        -0.5000 
     50 C           3.3314  -14.8861  -38.6118 C.2       4 UNK         0.5000 
     51 O           2.1453  -15.1748  -38.7762 O.2       4 UNK        -0.5000 
     52 CA          3.7461  -13.3993  -38.5834 C.3       4 UNK         0.1400 
     53 CB          5.2083  -13.1533  -38.1460 C.3       4 UNK        -0.1800 
     54 N           3.4778  -12.7456  -39.8692 N.am      4 UNK        -0.5000 
     55 C           3.9590  -13.1005  -41.0703 C.2       3 UNK         0.5000 
     56 O           4.7327  -14.0466  -41.2403 O.2       3 UNK        -0.5000 
     57 CA          3.4376  -12.2815  -42.2725 C.3       3 UNK         0.1400 
     58 CB          3.6386  -10.7626  -42.0807 C.3       3 UNK        -0.1800 
     59 N           3.9770  -12.7245  -43.5643 N.am      3 UNK        -0.5000 
     60 C           5.2435  -12.6439  -44.0039 C.2       2 UNK         0.5000 
     61 O           6.1595  -12.1146  -43.3724 O.2       2 UNK        -0.5000 
     62 CA          5.5355  -13.2323  -45.3990 C.3       2 UNK         0.1400 
     63 CB          6.8394  -14.0511  -45.4348 C.3       2 UNK        -0.1800 
     64 N           4.4293  -14.0533  -45.8950 N.am      2 UNK        -0.5000 
     65 C           4.0318  -14.1245  -47.1707 C.2       1 UNK         0.5000 
     66 O           4.5423  -13.4836  -48.0901 O.2       1 UNK        -0.5000 
     67 C          -2.6901  -19.5689  -47.9106 C.2       11 UNK         0.5000 
     68 O          -2.8225  -20.0180  -49.0481 O.2       11 UNK        -0.5000 
     69 N          -3.3649  -20.0329  -46.8496 N.am      12 UNK        -0.5000 
     70 CA         -4.3275  -21.1339  -46.8938 C.3       12 UNK         0.1400 
     71 CB         -4.9942  -21.2906  -45.5197 C.3       12 UNK        -0.1800 
     72 C          -3.7002  -22.4635  -47.3479 C.2       12 UNK         0.5000 
     73 O          -4.3291  -23.1915  -48.1168 O.2       12 UNK        -0.5000 
     74 N          -2.4688  -22.7388  -46.8946 N.am      13 UNK        -0.5000 
     75 CA         -1.6805  -23.9015  -47.2999 C.3       13 UNK         0.1400 
     76 CB         -0.4547  -24.0449  -46.3853 C.3       13 UNK        -0.1800 
     77 C          -1.2632  -23.8436  -48.7806 C.2       13 UNK         0.5000 
     78 O          -1.4526  -24.8269  -49.4962 O.2       13 UNK        -0.5000 
     79 N          -0.7376  -22.6919  -49.2231 N.am      14 UNK        -0.5000 
     80 CA         -0.3128  -22.4427  -50.6040 C.3       14 UNK         0.1400 
     81 CB          0.4367  -21.1061  -50.6758 C.3       14 UNK        -0.1800 
     82 C          -1.4796  -22.4604  -51.6070 C.2       14 UNK         0.5000 
     83 O          -1.3375  -23.0050  -52.7027 O.2       14 UNK        -0.5000 
     84 N          -2.6251  -21.9008  -51.1979 N.am      15 UNK        -0.5000 
     85 CA         -3.8736  -21.9216  -51.9552 C.3       15 UNK         0.1400 
     86 CB         -4.8052  -20.8297  -51.4094 C.3       15 UNK        -0.1800 
     87 C          -4.5817  -23.2893  -51.9262 C.2       15 UNK         0.5000 
     88 O          -5.5103  -23.4903  -52.7115 O.2       15 UNK        -0.5000 
     89 N          -4.1669  -24.1812  -51.0147 N.am      16 UNK        -0.5000 
     90 CA         -4.7406  -25.4971  -50.7179 C.3       16 UNK         0.1400 
     91 CB         -4.4942  -26.4730  -51.8860 C.3       16 UNK        -0.1800 
     92 C          -6.2265  -25.3905  -50.3245 C.2       16 UNK         0.5000 
     93 O          -7.0741  -26.0626  -50.9109 O.2       16 UNK        -0.5000 
     94 N          -6.5216  -24.4750  -49.3896 N.am      17 UNK        -0.5000 
     95 CA         -7.8652  -24.0704  -48.9517 C.3       17 UNK         0.1400 
     96 CB         -8.5513  -25.2101  -48.1707 C.3       17 UNK        -0.1800 
     97 C          -8.7320  -23.5231  -50.1108 C.2       17 UNK         0.5000 
     98 O          -9.9428  -23.7467  -50.1444 O.2       17 UNK        -0.5000 
     99 N          -8.0675  -22.8309  -51.0480 N.am      18 UNK        -0.5000 
    100 CA        -8.5769  -22.2573  -52.2981 C.3       18 UNK         0.1400 
    101 CB        -9.7186  -21.2523  -52.0402 C.3       18 UNK        -0.1800 
    102 C         -8.9278  -23.2954  -53.3855 C.2       18 UNK         0.5000 
    103 O         -9.5250  -22.9180  -54.3948 O.2       18 UNK        -0.5000 
    104 N         -8.5327  -24.5656  -53.2057 N.am      19 UNK        -0.5000 
    105 CA        -8.7008  -25.6145  -54.2148 C.3       19 UNK         0.1400 
    106 CB        -8.6101  -26.9983  -53.5550 C.3       19 UNK        -0.1800 
    107 C         -7.6739  -25.4964  -55.3563 C.2       19 UNK         0.5000 
    108 O         -8.0111  -25.8001  -56.5014 O.2       19 UNK        -0.5000 
    109 N         -6.4508  -25.0565  -55.0295 N.am      20 UNK        -0.5000 
    110 CA        -5.3738  -24.8167  -55.9913 C.3       20 UNK         0.1400 
    111 CB        -4.0412  -25.3095  -55.4048 C.3       20 UNK        -0.1800 
    112 C         -5.2757  -23.3273  -56.3533 C.2       20 UNK         0.5000 
    113 O         -4.9609  -23.0027  -57.4990 O.2       20 UNK        -0.5000 
    114 N         -5.5245  -22.4520  -55.3654 N.am      21 UNK        -0.5000 
    115 CA        -5.5243  -20.9850  -55.4503 C.3       21 UNK         0.1400 
    116 CB        -6.7544  -20.5042  -56.2460 C.3       21 UNK        -0.1800 
    117 C         -4.1972  -20.3885  -55.9756 C.2       21 UNK         0.5000 
    118 O         -4.2082  -19.3456  -56.6312 O.2       21 UNK        -0.5000 
    119 N         -3.0845  -21.0815  -55.6925 N.am      22 UNK        -0.5000 
    120 CA        -1.7244  -20.8069  -56.1906 C.3       22 UNK         0.1400 
    121 C         -1.5360  -21.0590  -57.7204 C.2       22 UNK         0.5000 
    122 N         -2.4522  -21.7298  -58.4102 N.am      22 UNK        -0.7600 
    123 O         -0.5220  -20.6706  -58.2944 O.2       22 UNK        -0.5000 
    124 C124       -1.1604  -19.4275  -55.7421 C.3       23 UNK        -0.0398 
    125 S125       -1.1192  -19.2274  -53.9295 S.3       23 UNK        -0.2404 
    126 C126        0.0028  -17.8013  -53.7919 C.3       23 UNK        -0.0205 
    127 H127        0.8574  -13.2692  -48.7271 H         1 UNK         0.0600 
    128 H128        1.8803  -12.1735  -47.7807 H         1 UNK         0.0600 
    129 H129        0.1275  -12.0182  -47.7314 H         1 UNK         0.0600 
    130 H130        1.6909  -15.3259  -45.7069 H         1 UNK         0.3000 
    131 H131        2.4843  -14.8368  -48.4667 H         1 UNK         0.0600 
    132 H132        2.3546  -17.1422  -47.1233 H         1 UNK         0.0800 
    133 H133        3.9426  -16.7342  -46.5812 H         1 UNK         0.0800 
    134 H134        2.2053  -18.8573  -48.6465 H         1 UNK         0.0800 
    135 H135        3.1010  -19.0798  -50.1168 H         1 UNK         0.0800 
    136 H136        2.0003  -18.6168  -52.1332 H         1 UNK         0.1150 
    137 H137       -1.5226  -16.1827  -52.2230 H         1 UNK         0.1150 
    138 H138        0.7053  -16.5712  -48.5924 H         1 UNK         0.1150 
    139 H139       -1.0424  -14.8345  -48.8015 H         1 UNK         0.0800 
    140 H140       -1.8771  -14.6172  -50.3155 H         1 UNK         0.0800 
    141 H141       -3.0655  -17.0910  -46.7393 H         1 UNK         0.0800 
    142 H142       -1.5154  -16.3767  -47.0647 H         1 UNK         0.0800 
    143 H143       -1.0088  -18.4625  -48.5350 H         1 UNK         0.0600 
    144 H144       -0.8021  -18.2216  -45.7097 H         1 UNK         0.3000 
    145 H145        1.0389  -21.2065  -45.1463 H         1 UNK         0.0600 
    146 H146        1.9327  -18.2809  -45.0462 H         1 UNK         0.0600 
    147 H147        2.6892  -19.6513  -44.2312 H         1 UNK         0.0600 
    148 H148        2.7279  -19.5412  -45.9816 H         1 UNK         0.0600 
    149 H149        0.1298  -18.9459  -43.5577 H         1 UNK         0.3000 
    150 H150       -2.9169  -20.4994  -42.5075 H         1 UNK         0.0600 
    151 H151       -1.1212  -21.4223  -41.0300 H         1 UNK         0.0600 
    152 H152       -1.9053  -20.0345  -40.2930 H         1 UNK         0.0600 
    153 H153       -0.3085  -19.8617  -41.0219 H         1 UNK         0.0600 
    154 H154       -1.7302  -17.9945  -41.8462 H         1 UNK         0.3000 
    155 H155       -2.9245  -16.0842  -44.5672 H         1 UNK         0.0600 
    156 H156       -4.1192  -16.1879  -41.7476 H         1 UNK         0.0600 
    157 H157       -5.0314  -16.3494  -43.2437 H         1 UNK         0.0600 
    158 H158       -4.2233  -14.8350  -42.8752 H         1 UNK         0.0600 
    159 H159       -1.8683  -15.1554  -42.1672 H         1 UNK         0.3000 
    160 H160        0.9855  -14.3384  -43.3050 H         1 UNK         0.0600 
    161 H161       -0.2663  -15.0912  -40.6102 H         1 UNK         0.0600 
    162 H162       -0.6653  -13.6758  -41.5910 H         1 UNK         0.0600 
    163 H163        0.9166  -13.8206  -40.8633 H         1 UNK         0.0600 
    164 H164        1.7469  -16.3686  -41.3141 H         1 UNK         0.3000 
    165 H165        3.5094  -18.1960  -42.5924 H         1 UNK         0.0600 
    166 H166        5.9602  -17.7801  -42.7888 H         1 UNK         0.0600 
    167 H167        5.1237  -17.2832  -44.2503 H         1 UNK         0.0600 
    168 H168        5.6548  -16.0706  -43.0860 H         1 UNK         0.0600 
    169 H169        4.4962  -16.0010  -40.8204 H         1 UNK         0.3000 
    170 H170        3.2603  -17.5238  -37.9502 H         1 UNK         0.0600 
    171 H171        5.2382  -19.0407  -38.0841 H         1 UNK         0.0600 
    172 H172        6.2410  -17.7099  -38.6488 H         1 UNK         0.0600 
    173 H173        5.5604  -17.6807  -37.0212 H         1 UNK         0.0600 
    174 H174        5.2528  -15.4806  -38.3777 H         1 UNK         0.3000 
    175 H175        3.0986  -12.9191  -37.8483 H         1 UNK         0.0600 
    176 H176        5.9297  -13.5776  -38.8450 H         1 UNK         0.0600 
    177 H177        5.4148  -12.0855  -38.0734 H         1 UNK         0.0600 
    178 H178        5.4029  -13.5822  -37.1621 H         1 UNK         0.0600 
    179 H179        2.8189  -11.9812  -39.8276 H         1 UNK         0.3000 
    180 H180        2.3646  -12.4653  -42.3286 H         1 UNK         0.0600 
    181 H181        4.6800  -10.5116  -41.8771 H         1 UNK         0.0600 
    182 H182        3.0460  -10.3849  -41.2471 H         1 UNK         0.0600 
    183 H183        3.3284  -10.2090  -42.9671 H         1 UNK         0.0600 
    184 H184        3.3146  -13.1946  -44.1632 H         1 UNK         0.3000 
    185 H185        5.6613  -12.3686  -46.0551 H         1 UNK         0.0600 
    186 H186        7.6909  -13.4549  -45.1051 H         1 UNK         0.0600 
    187 H187        6.7813  -14.9272  -44.7901 H         1 UNK         0.0600 
    188 H188        7.0605  -14.3949  -46.4453 H         1 UNK         0.0600 
    189 H189        3.9580  -14.6413  -45.2088 H         1 UNK         0.3000 
    190 H190       -3.2322  -19.5859  -45.9445 H         1 UNK         0.3000 
    191 H191       -5.0994  -20.8693  -47.6193 H         1 UNK         0.0600 
    192 H192       -4.2636  -21.5160  -44.7418 H         1 UNK         0.0600 
    193 H193       -5.7267  -22.0987  -45.5293 H         1 UNK         0.0600 
    194 H194       -5.5182  -20.3794  -45.2305 H         1 UNK         0.0600 
    195 H195       -2.0425  -22.1086  -46.2255 H         1 UNK         0.3000 
    196 H196       -2.3032  -24.7886  -47.1655 H         1 UNK         0.0600 
    197 H197        0.1284  -24.9275  -46.6507 H         1 UNK         0.0600 
    198 H198       -0.7523  -24.1531  -45.3422 H         1 UNK         0.0600 
    199 H199        0.2069  -23.1819  -46.4556 H         1 UNK         0.0600 
    200 H200       -0.5826  -21.9338  -48.5625 H         1 UNK         0.3000 
    201 H201        0.3805  -23.2367  -50.8887 H         1 UNK         0.0600 
    202 H202        1.3189  -21.1133  -50.0360 H         1 UNK         0.0600 
    203 H203       -0.1964  -20.2739  -50.3643 H         1 UNK         0.0600 
    204 H204        0.7719  -20.9009  -51.6931 H         1 UNK         0.0600 
    205 H205       -2.6416  -21.4021  -50.3105 H         1 UNK         0.3000 
    206 H206       -3.6475  -21.6878  -52.9957 H         1 UNK         0.0600 
    207 H207       -4.3281  -19.8502  -51.4535 H         1 UNK         0.0600 
    208 H208       -5.7251  -20.7638  -51.9885 H         1 UNK         0.0600 
    209 H209       -5.0813  -21.0196  -50.3712 H         1 UNK         0.0600 
    210 H210       -3.4038  -23.9057  -50.4105 H         1 UNK         0.3000 
    211 H211       -4.2102  -25.8783  -49.8441 H         1 UNK         0.0600 
    212 H212       -5.0597  -26.1944  -52.7741 H         1 UNK         0.0600 
    213 H213       -4.7946  -27.4857  -51.6155 H         1 UNK         0.0600 
    214 H214       -3.4387  -26.5067  -52.1561 H         1 UNK         0.0600 
    215 H215       -5.7447  -23.9731  -48.9603 H         1 UNK         0.3000 
    216 H216       -7.7222  -23.2379  -48.2614 H         1 UNK         0.0600 
    217 H217       -9.4878  -24.8713  -47.7264 H         1 UNK         0.0600 
    218 H218       -7.9184  -25.5668  -47.3582 H         1 UNK         0.0600 
    219 H219       -8.7835  -26.0600  -48.8132 H         1 UNK         0.0600 
    220 H220       -7.0665  -22.7682  -50.9350 H         1 UNK         0.3000 
    221 H221       -7.7464  -21.6883  -52.7155 H         1 UNK         0.0600 
    222 H222      -10.6338  -21.7490  -51.7178 H         1 UNK         0.0600 
    223 H223       -9.4410  -20.5266  -51.2758 H         1 UNK         0.0600 
    224 H224       -9.9571  -20.6917  -52.9448 H         1 UNK         0.0600 
    225 H225       -8.0459  -24.8247  -52.3550 H         1 UNK         0.3000 
    226 H226       -9.6986  -25.5196  -54.6487 H         1 UNK         0.0600 
    227 H227       -9.2939  -27.0816  -52.7101 H         1 UNK         0.0600 
    228 H228       -8.8714  -27.7832  -54.2657 H         1 UNK         0.0600 
    229 H229       -7.6026  -27.2100  -53.1960 H         1 UNK         0.0600 
    230 H230       -6.2701  -24.7867  -54.0688 H         1 UNK         0.3000 
    231 H231       -5.5579  -25.3727  -56.9130 H         1 UNK         0.0600 
    232 H232       -4.0842  -26.3736  -55.1724 H         1 UNK         0.0600 
    233 H233       -3.7736  -24.7781  -54.4912 H         1 UNK         0.0600 
    234 H234       -3.2265  -25.1660  -56.1157 H         1 UNK         0.0600 
    235 H235       -5.7175  -22.8353  -54.4447 H         1 UNK         0.3000 
    236 H236       -5.6330  -20.6184  -54.4295 H         1 UNK         0.0600 
    237 H237       -6.6920  -20.7916  -57.2961 H         1 UNK         0.0600 
    238 H238       -7.6747  -20.9232  -55.8382 H         1 UNK         0.0600 
    239 H239       -6.8491  -19.4184  -56.2073 H         1 UNK         0.0600 
    240 H240       -3.1807  -21.9361  -55.1659 H         1 UNK         0.3000 
    241 H241       -1.0987  -21.5669  -55.7212 H         1 UNK         0.0600 
    242 H242       -2.3033  -21.8905  -59.3937 H         1 UNK         0.3800 
    243 H243       -3.3026  -22.0741  -57.9752 H         1 UNK         0.3800 
    244 H244       -1.7355  -18.6090  -56.1760 H         1 UNK         0.0800 
    245 H245       -0.1395  -19.3051  -56.1074 H         1 UNK         0.0800 
    246 H246       -0.4169  -16.9539  -54.3364 H         1 UNK         0.0800 
    247 H247        0.9552  -18.0369  -54.2693 H         1 UNK         0.0800 
@<TRIPOS>BOND
     1    1    2 1    
     2    1  127 1    
     3    1  128 1    
     4    1  129 1    
     5    2    3 2    
     6    2    4 am   BACKBONE|DICT|INTERRES
     7    4    5 1    
     8    4  130 1    
     9    5    6 1    
    10    5   65 1    
    11    5  131 1    
    12    6    7 1    
    13    6  132 1    
    14    6  133 1    
    15    7    8 1    
    16    8    9 1    
    17    8  134 1    
    18    8  135 1    
    19    9   10 ar   
    20    9   14 ar   
    21   10   11 ar   
    22   10  136 1    
    23   11   12 ar   
    24   11  126 1    
    25   12   13 ar   
    26   12  137 1    
    27   13   14 ar   
    28   13   15 1    
    29   14  138 1    
    30   15   16 1    
    31   15  139 1    
    32   15  140 1    
    33   16   17 1    
    34   17   18 1    
    35   17  141 1    
    36   17  142 1    
    37   18   19 1    
    38   18   67 1    
    39   18  143 1    
    40   19   20 am   BACKBONE|DICT|INTERRES
    41   19  144 1    
    42   20   21 2    
    43   20   22 1    
    44   22   23 1    
    45   22   24 1    
    46   22  145 1    
    47   23  146 1    
    48   23  147 1    
    49   23  148 1    
    50   24   25 am   BACKBONE|DICT|INTERRES
    51   24  149 1    
    52   25   26 2    
    53   25   27 1    
    54   27   28 1    
    55   27   29 1    
    56   27  150 1    
    57   28  151 1    
    58   28  152 1    
    59   28  153 1    
    60   29   30 am   BACKBONE|DICT|INTERRES
    61   29  154 1    
    62   30   31 2    
    63   30   32 1    
    64   32   33 1    
    65   32   34 1    
    66   32  155 1    
    67   33  156 1    
    68   33  157 1    
    69   33  158 1    
    70   34   35 am   BACKBONE|DICT|INTERRES
    71   34  159 1    
    72   35   36 2    
    73   35   37 1    
    74   37   38 1    
    75   37   39 1    
    76   37  160 1    
    77   38  161 1    
    78   38  162 1    
    79   38  163 1    
    80   39   40 am   BACKBONE|DICT|INTERRES
    81   39  164 1    
    82   40   41 2    
    83   40   42 1    
    84   42   43 1    
    85   42   44 1    
    86   42  165 1    
    87   43  166 1    
    88   43  167 1    
    89   43  168 1    
    90   44   45 am   BACKBONE|DICT|INTERRES
    91   44  169 1    
    92   45   46 2    
    93   45   47 1    
    94   47   48 1    
    95   47   49 1    
    96   47  170 1    
    97   48  171 1    
    98   48  172 1    
    99   48  173 1    
   100   49   50 am   BACKBONE|DICT|INTERRES
   101   49  174 1    
   102   50   51 2    
   103   50   52 1    
   104   52   53 1    
   105   52   54 1    
   106   52  175 1    
   107   53  176 1    
   108   53  177 1    
   109   53  178 1    
   110   54   55 am   BACKBONE|DICT|INTERRES
   111   54  179 1    
   112   55   56 2    
   113   55   57 1    
   114   57   58 1    
   115   57   59 1    
   116   57  180 1    
   117   58  181 1    
   118   58  182 1    
   119   58  183 1    
   120   59   60 am   BACKBONE|DICT|INTERRES
   121   59  184 1    
   122   60   61 2    
   123   60   62 1    
   124   62   63 1    
   125   62   64 1    
   126   62  185 1    
   127   63  186 1    
   128   63  187 1    
   129   63  188 1    
   130   64   65 am   BACKBONE|DICT|INTERRES
   131   64  189 1    
   132   65   66 2    
   133   67   68 2    
   134   67   69 am   BACKBONE|DICT|INTERRES
   135   69   70 1    
   136   69  190 1    
   137   70   71 1    
   138   70   72 1    
   139   70  191 1    
   140   71  192 1    
   141   71  193 1    
   142   71  194 1    
   143   72   73 2    
   144   72   74 am   BACKBONE|DICT|INTERRES
   145   74   75 1    
   146   74  195 1    
   147   75   76 1    
   148   75   77 1    
   149   75  196 1    
   150   76  197 1    
   151   76  198 1    
   152   76  199 1    
   153   77   78 2    
   154   77   79 am   BACKBONE|DICT|INTERRES
   155   79   80 1    
   156   79  200 1    
   157   80   81 1    
   158   80   82 1    
   159   80  201 1    
   160   81  202 1    
   161   81  203 1    
   162   81  204 1    
   163   82   83 2    
   164   82   84 am   BACKBONE|DICT|INTERRES
   165   84   85 1    
   166   84  205 1    
   167   85   86 1    
   168   85   87 1    
   169   85  206 1    
   170   86  207 1    
   171   86  208 1    
   172   86  209 1    
   173   87   88 2    
   174   87   89 am   BACKBONE|DICT|INTERRES
   175   89   90 1    
   176   89  210 1    
   177   90   91 1    
   178   90   92 1    
   179   90  211 1    
   180   91  212 1    
   181   91  213 1    
   182   91  214 1    
   183   92   93 2    
   184   92   94 am   BACKBONE|DICT|INTERRES
   185   94   95 1    
   186   94  215 1    
   187   95   96 1    
   188   95   97 1    
   189   95  216 1    
   190   96  217 1    
   191   96  218 1    
   192   96  219 1    
   193   97   98 2    
   194   97   99 am   BACKBONE|DICT|INTERRES
   195   99  100 1    
   196   99  220 1    
   197  100  101 1    
   198  100  102 1    
   199  100  221 1    
   200  101  222 1    
   201  101  223 1    
   202  101  224 1    
   203  102  103 2    
   204  102  104 am   BACKBONE|DICT|INTERRES
   205  104  105 1    
   206  104  225 1    
   207  105  106 1    
   208  105  107 1    
   209  105  226 1    
   210  106  227 1    
   211  106  228 1    
   212  106  229 1    
   213  107  108 2    
   214  107  109 am   BACKBONE|DICT|INTERRES
   215  109  110 1    
   216  109  230 1    
   217  110  111 1    
   218  110  112 1    
   219  110  231 1    
   220  111  232 1    
   221  111  233 1    
   222  111  234 1    
   223  112  113 2    
   224  112  114 am   BACKBONE|DICT|INTERRES
   225  114  115 1    
   226  114  235 1    
   227  115  116 1    
   228  115  117 1    
   229  115  236 1    
   230  116  237 1    
   231  116  238 1    
   232  116  239 1    
   233  117  118 2    
   234  117  119 am   BACKBONE|DICT|INTERRES
   235  119  120 1    
   236  119  240 1    
   237  120  121 1    
   238  120  124 1    
   239  120  241 1    
   240  121  122 am   BACKBONE|DICT|INTERRES
   241  121  123 2    
   242  122  242 1    
   243  122  243 1    
   244  124  125 1    
   245  124  244 1    
   246  124  245 1    
   247  125  126 1    
   248  126  246 1    
   249  126  247 1    
@<TRIPOS>SUBSTRUCTURE
     1 UNK         1 GROUP             0       ****    0 ROOT    
