@<TRIPOS>MOLECULE
3R540
247   249    1
SMALL
USER_CHARGES


@<TRIPOS>ATOM
      1 CA         -4.4930  -18.8868  -45.0022 C.3       0 UNK        -0.1800 
      2 C          -3.9589  -17.5311  -45.4412 C.2       0 UNK         0.5000 
      3 O          -4.7215  -16.7167  -45.9611 O.2       0 UNK        -0.5000 
      4 N          -2.6531  -17.2948  -45.2549 N.am      1 UNK        -0.5000 
      5 CA         -1.9675  -16.0457  -45.6060 C.3       1 UNK         0.1400 
      6 C6         -0.4220  -16.1532  -45.5192 C.3       23 UNK        -0.0398 
      7 S7          0.2792  -17.5005  -46.5212 S.3       23 UNK        -0.2404 
      8 C8          0.7789  -16.5971  -48.0248 C.3       23 UNK        -0.0205 
      9 C9          1.3227  -17.5415  -49.0870 C.ar      23 UNK        -0.0193 
     10 C10         0.7354  -17.6140  -50.3542 C.ar      23 UNK        -0.1150 
     11 C11         1.2290  -18.5037  -51.3142 C.ar      23 UNK        -0.0193 
     12 C12         2.2957  -19.3471  -50.9889 C.ar      23 UNK        -0.1150 
     13 C13         2.8889  -19.2829  -49.7256 C.ar      23 UNK        -0.0193 
     14 C14         2.4214  -18.3513  -48.7969 C.ar      23 UNK        -0.1150 
     15 C15         4.0311  -20.2179  -49.3587 C.3       23 UNK        -0.0205 
     16 S16         3.4311  -21.8520  -48.8149 S.3       23 UNK        -0.2404 
     17 C17         2.6029  -21.4582  -47.2332 C.3       23 UNK        -0.0398 
     18 CA          1.2895  -22.2370  -46.9889 C.3       11 UNK         0.1400 
     19 N           0.8242  -22.0507  -45.6101 N.am      11 UNK        -0.5000 
     20 C          -0.1656  -22.7452  -45.0345 C.2       10 UNK         0.5000 
     21 O          -0.8205  -23.6037  -45.6236 O.2       10 UNK        -0.5000 
     22 CA         -0.4865  -22.4451  -43.5589 C.3       10 UNK         0.1400 
     23 CB          0.0177  -23.5856  -42.6617 C.3       10 UNK        -0.1800 
     24 N           0.0592  -21.1841  -43.0581 N.am      10 UNK        -0.5000 
     25 C          -0.3933  -19.9602  -43.3586 C.2       9 UNK         0.5000 
     26 O          -1.2373  -19.7438  -44.2297 O.2       9 UNK        -0.5000 
     27 CA          0.2128  -18.7714  -42.5798 C.3       9 UNK         0.1400 
     28 CB         -0.8808  -17.8849  -41.9509 C.3       9 UNK        -0.1800 
     29 N           1.2316  -19.1363  -41.5822 N.am      9 UNK        -0.5000 
     30 C           1.0747  -19.7986  -40.4230 C.2       8 UNK         0.5000 
     31 O          -0.0010  -20.2394  -40.0203 O.2       8 UNK        -0.5000 
     32 CA          2.3485  -20.0446  -39.5895 C.3       8 UNK         0.1400 
     33 CB          2.8196  -21.4979  -39.7556 C.3       8 UNK        -0.1800 
     34 N           3.4453  -19.1511  -39.9653 N.am      8 UNK        -0.5000 
     35 C           3.5567  -17.8702  -39.5952 C.2       7 UNK         0.5000 
     36 O           2.7852  -17.3158  -38.8124 O.2       7 UNK        -0.5000 
     37 CA          4.6915  -17.0614  -40.2487 C.3       7 UNK         0.1400 
     38 CB          6.0742  -17.4612  -39.6979 C.3       7 UNK        -0.1800 
     39 N           4.6483  -17.0913  -41.7180 N.am      7 UNK        -0.5000 
     40 C           4.8953  -18.1104  -42.5573 C.2       6 UNK         0.5000 
     41 O           5.2279  -19.2331  -42.1758 O.2       6 UNK        -0.5000 
     42 CA          4.6873  -17.8671  -44.0689 C.3       6 UNK         0.1400 
     43 CB          3.7746  -18.9415  -44.6858 C.3       6 UNK        -0.1800 
     44 N           4.1239  -16.5483  -44.3699 N.am      6 UNK        -0.5000 
     45 C           4.8395  -15.4287  -44.5391 C.2       5 UNK         0.5000 
     46 O           6.0697  -15.3917  -44.5107 O.2       5 UNK        -0.5000 
     47 CA          4.0446  -14.1231  -44.7424 C.3       5 UNK         0.1400 
     48 CB          3.8667  -13.8304  -46.2396 C.3       5 UNK        -0.1800 
     49 N           2.7275  -14.1024  -44.0943 N.am      5 UNK        -0.5000 
     50 C           2.5076  -14.1992  -42.7739 C.2       4 UNK         0.5000 
     51 O           3.3983  -14.4370  -41.9577 O.2       4 UNK        -0.5000 
     52 CA          1.0493  -14.0103  -42.2984 C.3       4 UNK         0.1400 
     53 CB          0.9479  -13.6464  -40.8034 C.3       4 UNK        -0.1800 
     54 N           0.2833  -13.0636  -43.1204 N.am      4 UNK        -0.5000 
     55 C           0.5609  -11.7678  -43.3481 C.2       3 UNK         0.5000 
     56 O           1.5125  -11.1736  -42.8407 O.2       3 UNK        -0.5000 
     57 CA         -0.3462  -11.0081  -44.3397 C.3       3 UNK         0.1400 
     58 CB          0.4388  -10.6563  -45.6145 C.3       3 UNK        -0.1800 
     59 N          -1.5387  -11.7633  -44.7284 N.am      3 UNK        -0.5000 
     60 C          -2.6738  -11.8289  -44.0198 C.2       2 UNK         0.5000 
     61 O          -2.8690  -11.2036  -42.9773 O.2       2 UNK        -0.5000 
     62 CA         -3.7608  -12.7837  -44.5553 C.3       2 UNK         0.1400 
     63 CB         -4.7299  -12.0323  -45.4805 C.3       2 UNK        -0.1800 
     64 N          -3.2213  -13.9497  -45.2671 N.am      2 UNK        -0.5000 
     65 C          -2.4554  -14.8943  -44.7043 C.2       1 UNK         0.5000 
     66 O          -2.1002  -14.8663  -43.5250 O.2       1 UNK        -0.5000 
     67 C           0.1837  -21.9333  -48.0289 C.2       11 UNK         0.5000 
     68 O           0.0015  -22.7192  -48.9600 O.2       11 UNK        -0.5000 
     69 N          -0.5896  -20.8568  -47.8140 N.am      12 UNK        -0.5000 
     70 CA         -1.7707  -20.5547  -48.6267 C.3       12 UNK         0.1400 
     71 CB         -2.1833  -19.0898  -48.4582 C.3       12 UNK        -0.1800 
     72 C          -2.9616  -21.4625  -48.2862 C.2       12 UNK         0.5000 
     73 O          -3.7312  -21.7947  -49.1861 O.2       12 UNK        -0.5000 
     74 N          -3.1044  -21.8555  -47.0110 N.am      13 UNK        -0.5000 
     75 CA         -4.1768  -22.7365  -46.5324 C.3       13 UNK         0.1400 
     76 CB         -4.1541  -22.8187  -44.9994 C.3       13 UNK        -0.1800 
     77 C          -4.1042  -24.1425  -47.1554 C.2       13 UNK         0.5000 
     78 O          -5.1377  -24.6962  -47.5295 O.2       13 UNK        -0.5000 
     79 N          -2.8787  -24.6560  -47.3303 N.am      14 UNK        -0.5000 
     80 CA         -2.5695  -25.8916  -48.0545 C.3       14 UNK         0.1400 
     81 CB         -1.0790  -26.2142  -47.8712 C.3       14 UNK        -0.1800 
     82 C          -2.9306  -25.8324  -49.5544 C.2       14 UNK         0.5000 
     83 O          -3.1828  -26.8753  -50.1579 O.2       14 UNK        -0.5000 
     84 N          -2.9864  -24.6169  -50.1139 N.am      15 UNK        -0.5000 
     85 CA         -3.4448  -24.3128  -51.4686 C.3       15 UNK         0.1400 
     86 CB         -2.5095  -23.2531  -52.0804 C.3       15 UNK        -0.1800 
     87 C          -4.9213  -23.8584  -51.4861 C.2       15 UNK         0.5000 
     88 O          -5.3365  -23.2077  -52.4432 O.2       15 UNK        -0.5000 
     89 N          -5.6883  -24.1851  -50.4330 N.am      16 UNK        -0.5000 
     90 CA         -7.1129  -23.8866  -50.2409 C.3       16 UNK         0.1400 
     91 CB         -7.9761  -24.6693  -51.2521 C.3       16 UNK        -0.1800 
     92 C          -7.4141  -22.3731  -50.2214 C.2       16 UNK         0.5000 
     93 O          -8.3508  -21.9161  -50.8777 O.2       16 UNK        -0.5000 
     94 N          -6.5915  -21.6330  -49.4649 N.am      17 UNK        -0.5000 
     95 CA         -6.5579  -20.1717  -49.3408 C.3       17 UNK         0.1400 
     96 CB         -7.8855  -19.6086  -48.7915 C.3       17 UNK        -0.1800 
     97 C          -6.0892  -19.5068  -50.6503 C.2       17 UNK         0.5000 
     98 O          -6.7002  -18.5438  -51.1165 O.2       17 UNK        -0.5000 
     99 N          -4.9984  -20.0547  -51.2069 N.am      18 UNK        -0.5000 
    100 CA        -4.3276  -19.6496  -52.4462 C.3       18 UNK         0.1400 
    101 CB        -3.6463  -18.2761  -52.2727 C.3       18 UNK        -0.1800 
    102 C         -5.2388  -19.7250  -53.6910 C.2       18 UNK         0.5000 
    103 O         -5.2011  -18.8378  -54.5465 O.2       18 UNK        -0.5000 
    104 N         -6.0338  -20.7986  -53.7820 N.am      19 UNK        -0.5000 
    105 CA        -6.8630  -21.1249  -54.9405 C.3       19 UNK         0.1400 
    106 CB        -7.8704  -22.2144  -54.5449 C.3       19 UNK        -0.1800 
    107 C         -5.9969  -21.5966  -56.1221 C.2       19 UNK         0.5000 
    108 O         -4.8717  -22.0570  -55.9134 O.2       19 UNK        -0.5000 
    109 N         -6.5348  -21.4623  -57.3438 N.am      20 UNK        -0.5000 
    110 CA        -5.8926  -21.8058  -58.6219 C.3       20 UNK         0.1400 
    111 CB        -5.7784  -23.3371  -58.7743 C.3       20 UNK        -0.1800 
    112 C         -4.5434  -21.0785  -58.8142 C.2       20 UNK         0.5000 
    113 O         -3.5432  -21.6982  -59.1824 O.2       20 UNK        -0.5000 
    114 N         -4.5386  -19.7769  -58.4854 N.am      21 UNK        -0.5000 
    115 CA        -3.3830  -18.8710  -58.4644 C.3       21 UNK         0.1400 
    116 CB        -2.8792  -18.6016  -59.8980 C.3       21 UNK        -0.1800 
    117 C         -2.2573  -19.3315  -57.5097 C.2       21 UNK         0.5000 
    118 O         -1.0848  -19.0497  -57.7628 O.2       21 UNK        -0.5000 
    119 N         -2.6361  -20.0342  -56.4320 N.am      22 UNK        -0.5000 
    120 CA        -1.7452  -20.6665  -55.4454 C.3       22 UNK         0.1400 
    121 C         -1.0232  -21.9488  -55.9680 C.2       22 UNK         0.5000 
    122 N         -1.4052  -22.5131  -57.1091 N.am      22 UNK        -0.7600 
    123 O         -0.1138  -22.4619  -55.3229 O.2       22 UNK        -0.5000 
    124 C124       -0.7847  -19.6395  -54.7781 C.3       23 UNK        -0.0398 
    125 S125       -0.4487  -19.9427  -53.0115 S.3       23 UNK        -0.2404 
    126 C126        0.6472  -18.5210  -52.7179 C.3       23 UNK        -0.0205 
    127 H127       -3.8239  -19.3723  -44.2929 H         1 UNK         0.0600 
    128 H128       -5.4639  -18.7724  -44.5203 H         1 UNK         0.0600 
    129 H129       -4.6150  -19.5393  -45.8665 H         1 UNK         0.0600 
    130 H130       -2.0743  -18.0269  -44.8554 H         1 UNK         0.3000 
    131 H131       -2.2233  -15.8103  -46.6414 H         1 UNK         0.0600 
    132 H132        0.0424  -15.2135  -45.8230 H         1 UNK         0.0800 
    133 H133       -0.1067  -16.3205  -44.4897 H         1 UNK         0.0800 
    134 H134        1.5448  -15.8631  -47.7752 H         1 UNK         0.0800 
    135 H135       -0.0784  -16.0419  -48.4084 H         1 UNK         0.0800 
    136 H136       -0.1007  -16.9734  -50.5972 H         1 UNK         0.1150 
    137 H137        2.6657  -20.0509  -51.7213 H         1 UNK         0.1150 
    138 H138        2.8886  -18.2756  -47.8268 H         1 UNK         0.1150 
    139 H139        4.6832  -20.3518  -50.2230 H         1 UNK         0.0800 
    140 H140        4.6512  -19.7795  -48.5751 H         1 UNK         0.0800 
    141 H141        3.3165  -21.6911  -46.4417 H         1 UNK         0.0800 
    142 H142        2.4124  -20.3919  -47.1486 H         1 UNK         0.0800 
    143 H143        1.5239  -23.2992  -47.0900 H         1 UNK         0.0600 
    144 H144        1.3056  -21.3627  -45.0519 H         1 UNK         0.3000 
    145 H145       -1.5720  -22.3945  -43.4644 H         1 UNK         0.0600 
    146 H146       -0.2737  -23.4284  -41.6228 H         1 UNK         0.0600 
    147 H147       -0.4007  -24.5439  -42.9729 H         1 UNK         0.0600 
    148 H148        1.1043  -23.6745  -42.6961 H         1 UNK         0.0600 
    149 H149        0.7496  -21.2572  -42.3266 H         1 UNK         0.3000 
    150 H150        0.7324  -18.1676  -43.3227 H         1 UNK         0.0600 
    151 H151       -1.5510  -17.4830  -42.7093 H         1 UNK         0.0600 
    152 H152       -0.4475  -17.0361  -41.4224 H         1 UNK         0.0600 
    153 H153       -1.4978  -18.4393  -41.2437 H         1 UNK         0.0600 
    154 H154        2.1721  -18.8425  -41.7978 H         1 UNK         0.3000 
    155 H155        2.0975  -19.8800  -38.5396 H         1 UNK         0.0600 
    156 H156        2.0355  -22.2003  -39.4692 H         1 UNK         0.0600 
    157 H157        3.6848  -21.7049  -39.1254 H         1 UNK         0.0600 
    158 H158        3.0973  -21.7170  -40.7875 H         1 UNK         0.0600 
    159 H159        4.1283  -19.5047  -40.6305 H         1 UNK         0.3000 
    160 H160        4.5283  -16.0180  -39.9739 H         1 UNK         0.0600 
    161 H161        6.3133  -18.5064  -39.8945 H         1 UNK         0.0600 
    162 H162        6.8628  -16.8491  -40.1356 H         1 UNK         0.0600 
    163 H163        6.1146  -17.3190  -38.6174 H         1 UNK         0.0600 
    164 H164        4.3468  -16.2122  -42.1258 H         1 UNK         0.3000 
    165 H165        5.6686  -17.9565  -44.5394 H         1 UNK         0.0600 
    166 H166        2.7664  -18.9057  -44.2766 H         1 UNK         0.0600 
    167 H167        3.7030  -18.8113  -45.7640 H         1 UNK         0.0600 
    168 H168        4.1667  -19.9444  -44.5119 H         1 UNK         0.0600 
    169 H169        3.1186  -16.4809  -44.4166 H         1 UNK         0.3000 
    170 H170        4.6346  -13.3146  -44.3058 H         1 UNK         0.0600 
    171 H171        4.8315  -13.7921  -46.7474 H         1 UNK         0.0600 
    172 H172        3.2695  -14.5986  -46.7305 H         1 UNK         0.0600 
    173 H173        3.3788  -12.8688  -46.4003 H         1 UNK         0.0600 
    174 H174        1.9424  -13.8878  -44.6890 H         1 UNK         0.3000 
    175 H175        0.5676  -14.9798  -42.4274 H         1 UNK         0.0600 
    176 H176        1.4617  -12.7115  -40.5780 H         1 UNK         0.0600 
    177 H177       -0.0922  -13.5413  -40.4948 H         1 UNK         0.0600 
    178 H178        1.3925  -14.4232  -40.1797 H         1 UNK         0.0600 
    179 H179       -0.5678  -13.4415  -43.5184 H         1 UNK         0.3000 
    180 H180       -0.6516  -10.0767  -43.8582 H         1 UNK         0.0600 
    181 H181        0.7823  -11.5498  -46.1373 H         1 UNK         0.0600 
    182 H182       -0.1723  -10.0762  -46.3063 H         1 UNK         0.0600 
    183 H183        1.3186  -10.0551  -45.3808 H         1 UNK         0.0600 
    184 H184       -1.4807  -12.2925  -45.5858 H         1 UNK         0.3000 
    185 H185       -4.3255  -13.1508  -43.6956 H         1 UNK         0.0600 
    186 H186       -4.2280  -11.6632  -46.3758 H         1 UNK         0.0600 
    187 H187       -5.5520  -12.6750  -45.7963 H         1 UNK         0.0600 
    188 H188       -5.1684  -11.1726  -44.9719 H         1 UNK         0.0600 
    189 H189       -3.5045  -14.0582  -46.2308 H         1 UNK         0.3000 
    190 H190       -0.3966  -20.2476  -47.0312 H         1 UNK         0.3000 
    191 H191       -1.5247  -20.7104  -49.6799 H         1 UNK         0.0600 
    192 H192       -2.3346  -18.8453  -47.4104 H         1 UNK         0.0600 
    193 H193       -3.1128  -18.8732  -48.9861 H         1 UNK         0.0600 
    194 H194       -1.4268  -18.4182  -48.8555 H         1 UNK         0.0600 
    195 H195       -2.4190  -21.5582  -46.3327 H         1 UNK         0.3000 
    196 H196       -5.1264  -22.2864  -46.8288 H         1 UNK         0.0600 
    197 H197       -5.0534  -23.3123  -44.6293 H         1 UNK         0.0600 
    198 H198       -4.1152  -21.8304  -44.5427 H         1 UNK         0.0600 
    199 H199       -3.3030  -23.3940  -44.6378 H         1 UNK         0.0600 
    200 H200       -2.0879  -24.1592  -46.9272 H         1 UNK         0.3000 
    201 H201       -3.1544  -26.6974  -47.6067 H         1 UNK         0.0600 
    202 H202       -0.8278  -26.3304  -46.8167 H         1 UNK         0.0600 
    203 H203       -0.4455  -25.4260  -48.2801 H         1 UNK         0.0600 
    204 H204       -0.8139  -27.1451  -48.3740 H         1 UNK         0.0600 
    205 H205       -2.7924  -23.8131  -49.5315 H         1 UNK         0.3000 
    206 H206       -3.3842  -25.2077  -52.0906 H         1 UNK         0.0600 
    207 H207       -1.4759  -23.5991  -52.0898 H         1 UNK         0.0600 
    208 H208       -2.7825  -23.0320  -53.1130 H         1 UNK         0.0600 
    209 H209       -2.5378  -22.3169  -51.5238 H         1 UNK         0.0600 
    210 H210       -5.2490  -24.6675  -49.6583 H         1 UNK         0.3000 
    211 H211       -7.3681  -24.2545  -49.2462 H         1 UNK         0.0600 
    212 H212       -7.8015  -24.3407  -52.2759 H         1 UNK         0.0600 
    213 H213       -9.0384  -24.5377  -51.0437 H         1 UNK         0.0600 
    214 H214       -7.7667  -25.7378  -51.2035 H         1 UNK         0.0600 
    215 H215       -5.7931  -22.1062  -49.0600 H         1 UNK         0.3000 
    216 H216       -5.7890  -19.9494  -48.5993 H         1 UNK         0.0600 
    217 H217       -8.1768  -20.1137  -47.8706 H         1 UNK         0.0600 
    218 H218       -8.7026  -19.7120  -49.5056 H         1 UNK         0.0600 
    219 H219       -7.7888  -18.5468  -48.5626 H         1 UNK         0.0600 
    220 H220       -4.5847  -20.8445  -50.7221 H         1 UNK         0.3000 
    221 H221       -3.5391  -20.3830  -52.6128 H         1 UNK         0.0600 
    222 H222       -4.3724  -17.4804  -52.1054 H         1 UNK         0.0600 
    223 H223       -2.9533  -18.2839  -51.4316 H         1 UNK         0.0600 
    224 H224       -3.0693  -18.0105  -53.1590 H         1 UNK         0.0600 
    225 H225       -5.9201  -21.5452  -53.1006 H         1 UNK         0.3000 
    226 H226       -7.4113  -20.2285  -55.2372 H         1 UNK         0.0600 
    227 H227       -8.4623  -21.9124  -53.6807 H         1 UNK         0.0600 
    228 H228       -8.5653  -22.4214  -55.3594 H         1 UNK         0.0600 
    229 H229       -7.3684  -23.1503  -54.2981 H         1 UNK         0.0600 
    230 H230       -7.4643  -21.0718  -57.4179 H         1 UNK         0.3000 
    231 H231       -6.5514  -21.4434  -59.4124 H         1 UNK         0.0600 
    232 H232       -5.0991  -23.7688  -58.0384 H         1 UNK         0.0600 
    233 H233       -6.7493  -23.8180  -58.6561 H         1 UNK         0.0600 
    234 H234       -5.4024  -23.6044  -59.7626 H         1 UNK         0.0600 
    235 H235       -5.4081  -19.3744  -58.1641 H         1 UNK         0.3000 
    236 H236       -3.7463  -17.9248  -58.0610 H         1 UNK         0.0600 
    237 H237       -3.6906  -18.2690  -60.5453 H         1 UNK         0.0600 
    238 H238       -2.1193  -17.8194  -59.9063 H         1 UNK         0.0600 
    239 H239       -2.4361  -19.4918  -60.3455 H         1 UNK         0.0600 
    240 H240       -3.6152  -20.2693  -56.3317 H         1 UNK         0.3000 
    241 H241       -2.4247  -21.0334  -54.6768 H         1 UNK         0.0600 
    242 H242       -0.9351  -23.3451  -57.4273 H         1 UNK         0.3800 
    243 H243       -2.1583  -22.1229  -57.6637 H         1 UNK         0.3800 
    244 H244       -1.2156  -18.6389  -54.8361 H         1 UNK         0.0800 
    245 H245        0.1597  -19.5833  -55.3224 H         1 UNK         0.0800 
    246 H246        1.4655  -18.5416  -53.4394 H         1 UNK         0.0800 
    247 H247        0.0949  -17.5995  -52.9089 H         1 UNK         0.0800 
@<TRIPOS>BOND
     1    1    2 1    
     2    1  127 1    
     3    1  128 1    
     4    1  129 1    
     5    2    3 2    
     6    2    4 am   BACKBONE|DICT|INTERRES
     7    4    5 1    
     8    4  130 1    
     9    5    6 1    
    10    5   65 1    
    11    5  131 1    
    12    6    7 1    
    13    6  132 1    
    14    6  133 1    
    15    7    8 1    
    16    8    9 1    
    17    8  134 1    
    18    8  135 1    
    19    9   10 ar   
    20    9   14 ar   
    21   10   11 ar   
    22   10  136 1    
    23   11   12 ar   
    24   11  126 1    
    25   12   13 ar   
    26   12  137 1    
    27   13   14 ar   
    28   13   15 1    
    29   14  138 1    
    30   15   16 1    
    31   15  139 1    
    32   15  140 1    
    33   16   17 1    
    34   17   18 1    
    35   17  141 1    
    36   17  142 1    
    37   18   19 1    
    38   18   67 1    
    39   18  143 1    
    40   19   20 am   BACKBONE|DICT|INTERRES
    41   19  144 1    
    42   20   21 2    
    43   20   22 1    
    44   22   23 1    
    45   22   24 1    
    46   22  145 1    
    47   23  146 1    
    48   23  147 1    
    49   23  148 1    
    50   24   25 am   BACKBONE|DICT|INTERRES
    51   24  149 1    
    52   25   26 2    
    53   25   27 1    
    54   27   28 1    
    55   27   29 1    
    56   27  150 1    
    57   28  151 1    
    58   28  152 1    
    59   28  153 1    
    60   29   30 am   BACKBONE|DICT|INTERRES
    61   29  154 1    
    62   30   31 2    
    63   30   32 1    
    64   32   33 1    
    65   32   34 1    
    66   32  155 1    
    67   33  156 1    
    68   33  157 1    
    69   33  158 1    
    70   34   35 am   BACKBONE|DICT|INTERRES
    71   34  159 1    
    72   35   36 2    
    73   35   37 1    
    74   37   38 1    
    75   37   39 1    
    76   37  160 1    
    77   38  161 1    
    78   38  162 1    
    79   38  163 1    
    80   39   40 am   BACKBONE|DICT|INTERRES
    81   39  164 1    
    82   40   41 2    
    83   40   42 1    
    84   42   43 1    
    85   42   44 1    
    86   42  165 1    
    87   43  166 1    
    88   43  167 1    
    89   43  168 1    
    90   44   45 am   BACKBONE|DICT|INTERRES
    91   44  169 1    
    92   45   46 2    
    93   45   47 1    
    94   47   48 1    
    95   47   49 1    
    96   47  170 1    
    97   48  171 1    
    98   48  172 1    
    99   48  173 1    
   100   49   50 am   BACKBONE|DICT|INTERRES
   101   49  174 1    
   102   50   51 2    
   103   50   52 1    
   104   52   53 1    
   105   52   54 1    
   106   52  175 1    
   107   53  176 1    
   108   53  177 1    
   109   53  178 1    
   110   54   55 am   BACKBONE|DICT|INTERRES
   111   54  179 1    
   112   55   56 2    
   113   55   57 1    
   114   57   58 1    
   115   57   59 1    
   116   57  180 1    
   117   58  181 1    
   118   58  182 1    
   119   58  183 1    
   120   59   60 am   BACKBONE|DICT|INTERRES
   121   59  184 1    
   122   60   61 2    
   123   60   62 1    
   124   62   63 1    
   125   62   64 1    
   126   62  185 1    
   127   63  186 1    
   128   63  187 1    
   129   63  188 1    
   130   64   65 am   BACKBONE|DICT|INTERRES
   131   64  189 1    
   132   65   66 2    
   133   67   68 2    
   134   67   69 am   BACKBONE|DICT|INTERRES
   135   69   70 1    
   136   69  190 1    
   137   70   71 1    
   138   70   72 1    
   139   70  191 1    
   140   71  192 1    
   141   71  193 1    
   142   71  194 1    
   143   72   73 2    
   144   72   74 am   BACKBONE|DICT|INTERRES
   145   74   75 1    
   146   74  195 1    
   147   75   76 1    
   148   75   77 1    
   149   75  196 1    
   150   76  197 1    
   151   76  198 1    
   152   76  199 1    
   153   77   78 2    
   154   77   79 am   BACKBONE|DICT|INTERRES
   155   79   80 1    
   156   79  200 1    
   157   80   81 1    
   158   80   82 1    
   159   80  201 1    
   160   81  202 1    
   161   81  203 1    
   162   81  204 1    
   163   82   83 2    
   164   82   84 am   BACKBONE|DICT|INTERRES
   165   84   85 1    
   166   84  205 1    
   167   85   86 1    
   168   85   87 1    
   169   85  206 1    
   170   86  207 1    
   171   86  208 1    
   172   86  209 1    
   173   87   88 2    
   174   87   89 am   BACKBONE|DICT|INTERRES
   175   89   90 1    
   176   89  210 1    
   177   90   91 1    
   178   90   92 1    
   179   90  211 1    
   180   91  212 1    
   181   91  213 1    
   182   91  214 1    
   183   92   93 2    
   184   92   94 am   BACKBONE|DICT|INTERRES
   185   94   95 1    
   186   94  215 1    
   187   95   96 1    
   188   95   97 1    
   189   95  216 1    
   190   96  217 1    
   191   96  218 1    
   192   96  219 1    
   193   97   98 2    
   194   97   99 am   BACKBONE|DICT|INTERRES
   195   99  100 1    
   196   99  220 1    
   197  100  101 1    
   198  100  102 1    
   199  100  221 1    
   200  101  222 1    
   201  101  223 1    
   202  101  224 1    
   203  102  103 2    
   204  102  104 am   BACKBONE|DICT|INTERRES
   205  104  105 1    
   206  104  225 1    
   207  105  106 1    
   208  105  107 1    
   209  105  226 1    
   210  106  227 1    
   211  106  228 1    
   212  106  229 1    
   213  107  108 2    
   214  107  109 am   BACKBONE|DICT|INTERRES
   215  109  110 1    
   216  109  230 1    
   217  110  111 1    
   218  110  112 1    
   219  110  231 1    
   220  111  232 1    
   221  111  233 1    
   222  111  234 1    
   223  112  113 2    
   224  112  114 am   BACKBONE|DICT|INTERRES
   225  114  115 1    
   226  114  235 1    
   227  115  116 1    
   228  115  117 1    
   229  115  236 1    
   230  116  237 1    
   231  116  238 1    
   232  116  239 1    
   233  117  118 2    
   234  117  119 am   BACKBONE|DICT|INTERRES
   235  119  120 1    
   236  119  240 1    
   237  120  121 1    
   238  120  124 1    
   239  120  241 1    
   240  121  122 am   BACKBONE|DICT|INTERRES
   241  121  123 2    
   242  122  242 1    
   243  122  243 1    
   244  124  125 1    
   245  124  244 1    
   246  124  245 1    
   247  125  126 1    
   248  126  246 1    
   249  126  247 1    
@<TRIPOS>SUBSTRUCTURE
     1 UNK         1 GROUP             0       ****    0 ROOT    
