@<TRIPOS>MOLECULE
3R540
247   249    1
SMALL
USER_CHARGES


@<TRIPOS>ATOM
      1 CA          4.0609  -17.1133  -45.7384 C.3       0 UNK        -0.1800 
      2 C           3.9084  -15.6222  -45.4825 C.2       0 UNK         0.5000 
      3 O           3.7405  -15.2121  -44.3367 O.2       0 UNK        -0.5000 
      4 N           3.9877  -14.8116  -46.5454 N.am      1 UNK        -0.5000 
      5 CA          3.7492  -13.3582  -46.5734 C.3       1 UNK         0.1400 
      6 C6          3.9080  -12.7857  -48.0026 C.3       23 UNK        -0.0398 
      7 S7          2.7295  -13.5408  -49.1701 S.3       23 UNK        -0.2404 
      8 C8          3.7579  -14.7770  -50.0373 C.3       23 UNK        -0.0205 
      9 C9          3.0000  -16.0718  -50.3160 C.ar      23 UNK        -0.0193 
     10 C10         1.7173  -16.0371  -50.8746 C.ar      23 UNK        -0.1150 
     11 C11         1.0172  -17.2178  -51.1336 C.ar      23 UNK        -0.0193 
     12 C12         1.6151  -18.4441  -50.8384 C.ar      23 UNK        -0.1150 
     13 C13         2.8952  -18.5004  -50.2834 C.ar      23 UNK        -0.0193 
     14 C14         3.5859  -17.3109  -50.0272 C.ar      23 UNK        -0.1150 
     15 C15         3.5146  -19.8555  -49.9640 C.3       23 UNK        -0.0205 
     16 S16         3.6508  -20.1973  -48.1761 S.3       23 UNK        -0.2404 
     17 C17         1.9884  -19.8119  -47.5284 C.3       23 UNK        -0.0398 
     18 CA          1.0534  -21.0343  -47.3524 C.3       11 UNK         0.1400 
     19 N           0.0489  -20.7731  -46.3177 N.am      11 UNK        -0.5000 
     20 C          -0.8114  -21.6619  -45.8034 C.2       10 UNK         0.5000 
     21 O          -0.8070  -22.8603  -46.0800 O.2       10 UNK        -0.5000 
     22 CA         -1.8779  -21.1054  -44.8389 C.3       10 UNK         0.1400 
     23 CB         -1.3444  -21.0438  -43.3997 C.3       10 UNK        -0.1800 
     24 N          -2.3586  -19.7808  -45.2420 N.am      10 UNK        -0.5000 
     25 C          -3.1165  -19.5562  -46.3248 C.2       9 UNK         0.5000 
     26 O          -3.5347  -20.4516  -47.0569 O.2       9 UNK        -0.5000 
     27 CA         -3.4212  -18.0883  -46.6784 C.3       9 UNK         0.1400 
     28 CB         -4.6126  -17.5676  -45.8614 C.3       9 UNK        -0.1800 
     29 N          -2.2702  -17.2057  -46.4817 N.am      9 UNK        -0.5000 
     30 C          -1.1171  -17.2952  -47.1598 C.2       8 UNK         0.5000 
     31 O          -0.9284  -18.0956  -48.0736 O.2       8 UNK        -0.5000 
     32 CA          0.0382  -16.3849  -46.6990 C.3       8 UNK         0.1400 
     33 CB         -0.0793  -14.9999  -47.3457 C.3       8 UNK        -0.1800 
     34 N           0.1076  -16.2563  -45.2394 N.am      8 UNK        -0.5000 
     35 C           0.3161  -17.2856  -44.4045 C.2       7 UNK         0.5000 
     36 O           0.5300  -18.4327  -44.7896 O.2       7 UNK        -0.5000 
     37 CA          0.2156  -17.0192  -42.8951 C.3       7 UNK         0.1400 
     38 CB          1.5560  -16.5626  -42.3204 C.3       7 UNK        -0.1800 
     39 N          -0.8078  -16.0273  -42.5858 N.am      7 UNK        -0.5000 
     40 C          -2.1189  -16.2951  -42.5551 C.2       6 UNK         0.5000 
     41 O          -2.5927  -17.4181  -42.7319 O.2       6 UNK        -0.5000 
     42 CA         -3.0555  -15.0943  -42.3290 C.3       6 UNK         0.1400 
     43 CB         -3.1780  -14.7742  -40.8317 C.3       6 UNK        -0.1800 
     44 N          -2.6154  -13.8960  -43.0470 N.am      6 UNK        -0.5000 
     45 C          -2.5647  -13.7948  -44.3822 C.2       5 UNK         0.5000 
     46 O          -2.9064  -14.6960  -45.1473 O.2       5 UNK        -0.5000 
     47 CA         -2.0172  -12.4800  -44.9649 C.3       5 UNK         0.1400 
     48 CB         -3.1604  -11.4783  -45.1853 C.3       5 UNK        -0.1800 
     49 N          -0.9697  -11.8430  -44.1627 N.am      5 UNK        -0.5000 
     50 C           0.2161  -12.3796  -43.8408 C.2       4 UNK         0.5000 
     51 O           0.5328  -13.5410  -44.1092 O.2       4 UNK        -0.5000 
     52 CA          1.2123  -11.4207  -43.1543 C.3       4 UNK         0.1400 
     53 CB          0.5593  -10.5782  -42.0349 C.3       4 UNK        -0.1800 
     54 N           2.4384  -12.0662  -42.6755 N.am      4 UNK        -0.5000 
     55 C           2.5833  -12.9169  -41.6478 C.2       3 UNK         0.5000 
     56 O           1.6463  -13.3270  -40.9604 O.2       3 UNK        -0.5000 
     57 CA          4.0305  -13.3413  -41.3106 C.3       3 UNK         0.1400 
     58 CB          4.1296  -14.7387  -40.6740 C.3       3 UNK        -0.1800 
     59 N           4.8838  -13.3030  -42.4974 N.am      3 UNK        -0.5000 
     60 C           5.9044  -12.4604  -42.7064 C.2       2 UNK         0.5000 
     61 O           6.2965  -11.6416  -41.8744 O.2       2 UNK        -0.5000 
     62 CA          6.5938  -12.5179  -44.0882 C.3       2 UNK         0.1400 
     63 CB          7.8874  -13.3426  -44.0078 C.3       2 UNK        -0.1800 
     64 N           5.7475  -13.0691  -45.1506 N.am      2 UNK        -0.5000 
     65 C           4.5930  -12.5353  -45.5747 C.2       1 UNK         0.5000 
     66 O           4.1609  -11.4539  -45.1725 O.2       1 UNK        -0.5000 
     67 C           0.3947  -21.4543  -48.6853 C.2       11 UNK         0.5000 
     68 O           0.8596  -22.3990  -49.3237 O.2       11 UNK        -0.5000 
     69 N          -0.6952  -20.7663  -49.0591 N.am      12 UNK        -0.5000 
     70 CA         -1.5475  -21.0887  -50.2028 C.3       12 UNK         0.1400 
     71 CB         -2.5739  -19.9651  -50.4085 C.3       12 UNK        -0.1800 
     72 C          -2.2618  -22.4394  -50.0317 C.2       12 UNK         0.5000 
     73 O          -2.2084  -23.2733  -50.9356 O.2       12 UNK        -0.5000 
     74 N          -2.8809  -22.6470  -48.8612 N.am      13 UNK        -0.5000 
     75 CA         -3.6133  -23.8560  -48.4815 C.3       13 UNK         0.1400 
     76 CB         -4.5956  -23.5101  -47.3483 C.3       13 UNK        -0.1800 
     77 C          -2.6920  -25.0439  -48.1224 C.2       13 UNK         0.5000 
     78 O          -2.8518  -25.6616  -47.0675 O.2       13 UNK        -0.5000 
     79 N          -1.7308  -25.3400  -49.0031 N.am      14 UNK        -0.5000 
     80 CA         -0.7883  -26.4460  -48.8980 C.3       14 UNK         0.1400 
     81 CB          0.3536  -26.2191  -49.9017 C.3       14 UNK        -0.1800 
     82 C          -1.4959  -27.7904  -49.1431 C.2       14 UNK         0.5000 
     83 O          -1.8197  -28.1093  -50.2897 O.2       14 UNK        -0.5000 
     84 N          -1.7237  -28.5453  -48.0600 N.am      15 UNK        -0.5000 
     85 CA         -2.3490  -29.8700  -48.0192 C.3       15 UNK         0.1400 
     86 CB         -1.4000  -30.9300  -48.6233 C.3       15 UNK        -0.1800 
     87 C          -3.7615  -29.8699  -48.6417 C.2       15 UNK         0.5000 
     88 O          -4.7039  -29.4080  -47.9975 O.2       15 UNK        -0.5000 
     89 N          -3.8830  -30.3899  -49.8694 N.am      16 UNK        -0.5000 
     90 CA         -5.1306  -30.4800  -50.6266 C.3       16 UNK         0.1400 
     91 CB         -4.9668  -31.5553  -51.7126 C.3       16 UNK        -0.1800 
     92 C          -5.5780  -29.1448  -51.2551 C.2       16 UNK         0.5000 
     93 O          -6.7459  -29.0304  -51.6319 O.2       16 UNK        -0.5000 
     94 N          -4.6642  -28.1717  -51.3862 N.am      17 UNK        -0.5000 
     95 CA         -4.9549  -26.8465  -51.9368 C.3       17 UNK         0.1400 
     96 CB         -3.6355  -26.1310  -52.2627 C.3       17 UNK        -0.1800 
     97 C          -5.8101  -25.9924  -50.9817 C.2       17 UNK         0.5000 
     98 O          -5.7549  -26.1773  -49.7637 O.2       17 UNK        -0.5000 
     99 N          -6.5609  -25.0498  -51.5594 N.am      18 UNK        -0.5000 
    100 CA        -7.3418  -24.0448  -50.8408 C.3       18 UNK         0.1400 
    101 CB        -8.6319  -23.7748  -51.6325 C.3       18 UNK        -0.1800 
    102 C         -6.5330  -22.7457  -50.6944 C.2       18 UNK         0.5000 
    103 O         -5.5848  -22.5191  -51.4481 O.2       18 UNK        -0.5000 
    104 N         -6.9612  -21.8745  -49.7710 N.am      19 UNK        -0.5000 
    105 CA        -6.3503  -20.5623  -49.5173 C.3       19 UNK         0.1400 
    106 CB        -6.9901  -19.9394  -48.2684 C.3       19 UNK        -0.1800 
    107 C         -6.4260  -19.5858  -50.7125 C.2       19 UNK         0.5000 
    108 O         -5.6430  -18.6387  -50.7801 O.2       19 UNK        -0.5000 
    109 N         -7.3477  -19.8516  -51.6478 N.am      20 UNK        -0.5000 
    110 CA        -7.5287  -19.1287  -52.9063 C.3       20 UNK         0.1400 
    111 CB        -8.9036  -19.5003  -53.4842 C.3       20 UNK        -0.1800 
    112 C         -6.4188  -19.3833  -53.9498 C.2       20 UNK         0.5000 
    113 O         -6.3944  -18.6890  -54.9676 O.2       20 UNK        -0.5000 
    114 N         -5.5196  -20.3511  -53.7016 N.am      21 UNK        -0.5000 
    115 CA        -4.4385  -20.7671  -54.6059 C.3       21 UNK         0.1400 
    116 CB        -3.7174  -21.9857  -54.0095 C.3       21 UNK        -0.1800 
    117 C         -3.4232  -19.6662  -54.9854 C.2       21 UNK         0.5000 
    118 O         -2.7084  -19.8330  -55.9747 O.2       21 UNK        -0.5000 
    119 N         -3.3895  -18.5594  -54.2293 N.am      22 UNK        -0.5000 
    120 CA        -2.6604  -17.3309  -54.5917 C.3       22 UNK         0.1400 
    121 C         -3.2709  -16.5496  -55.7965 C.2       22 UNK         0.5000 
    122 N         -4.5038  -16.8157  -56.2146 N.am      22 UNK        -0.7600 
    123 O         -2.6097  -15.6862  -56.3664 O.2       22 UNK        -0.5000 
    124 C124       -2.4509  -16.3993  -53.3613 C.3       23 UNK        -0.0398 
    125 S125       -0.6875  -16.0464  -53.0451 S.3       23 UNK        -0.2404 
    126 C126       -0.4091  -17.1934  -51.6621 C.3       23 UNK        -0.0205 
    127 H127        5.0356  -17.4565  -45.3925 H         1 UNK         0.0600 
    128 H128        3.9668  -17.3521  -46.7979 H         1 UNK         0.0600 
    129 H129        3.2938  -17.6657  -45.1967 H         1 UNK         0.0600 
    130 H130        4.1258  -15.2291  -47.4531 H         1 UNK         0.3000 
    131 H131        2.7110  -13.2153  -46.2666 H         1 UNK         0.0600 
    132 H132        3.7145  -11.7112  -48.0062 H         1 UNK         0.0800 
    133 H133        4.9297  -12.9090  -48.3660 H         1 UNK         0.0800 
    134 H134        4.0954  -14.3535  -50.9840 H         1 UNK         0.0800 
    135 H135        4.6574  -14.9877  -49.4582 H         1 UNK         0.0800 
    136 H136        1.2541  -15.0856  -51.0941 H         1 UNK         0.1150 
    137 H137        1.0730  -19.3608  -51.0228 H         1 UNK         0.1150 
    138 H138        4.5772  -17.3558  -49.5986 H         1 UNK         0.1150 
    139 H139        2.9410  -20.6588  -50.4290 H         1 UNK         0.0800 
    140 H140        4.5106  -19.9041  -50.4060 H         1 UNK         0.0800 
    141 H141        2.1749  -19.3668  -46.5520 H         1 UNK         0.0800 
    142 H142        1.5121  -19.0226  -48.1069 H         1 UNK         0.0800 
    143 H143        1.6511  -21.8773  -46.9994 H         1 UNK         0.0600 
    144 H144        0.0217  -19.8254  -45.9514 H         1 UNK         0.3000 
    145 H145       -2.7274  -21.7913  -44.8522 H         1 UNK         0.0600 
    146 H146       -2.1065  -20.6770  -42.7118 H         1 UNK         0.0600 
    147 H147       -0.4757  -20.3913  -43.3148 H         1 UNK         0.0600 
    148 H148       -1.0434  -22.0339  -43.0552 H         1 UNK         0.0600 
    149 H149       -2.0537  -18.9927  -44.6875 H         1 UNK         0.3000 
    150 H150       -3.6929  -18.0536  -47.7356 H         1 UNK         0.0600 
    151 H151       -5.4826  -18.2146  -45.9778 H         1 UNK         0.0600 
    152 H152       -4.9035  -16.5679  -46.1847 H         1 UNK         0.0600 
    153 H153       -4.3810  -17.5192  -44.7972 H         1 UNK         0.0600 
    154 H154       -2.3742  -16.4661  -45.7932 H         1 UNK         0.3000 
    155 H155        0.9764  -16.8326  -47.0327 H         1 UNK         0.0600 
    156 H156        0.0569  -15.0688  -48.4257 H         1 UNK         0.0600 
    157 H157        0.6765  -14.3152  -46.9630 H         1 UNK         0.0600 
    158 H158       -1.0584  -14.5564  -47.1724 H         1 UNK         0.0600 
    159 H159        0.0108  -15.3241  -44.8492 H         1 UNK         0.3000 
    160 H160       -0.0470  -17.9625  -42.4112 H         1 UNK         0.0600 
    161 H161        1.8230  -15.5765  -42.6962 H         1 UNK         0.0600 
    162 H162        2.3589  -17.2505  -42.5887 H         1 UNK         0.0600 
    163 H163        1.5193  -16.5053  -41.2325 H         1 UNK         0.0600 
    164 H164       -0.4957  -15.0711  -42.4823 H         1 UNK         0.3000 
    165 H165       -4.0441  -15.3693  -42.7030 H         1 UNK         0.0600 
    166 H166       -3.8999  -13.9762  -40.6569 H         1 UNK         0.0600 
    167 H167       -3.5182  -15.6472  -40.2730 H         1 UNK         0.0600 
    168 H168       -2.2231  -14.4631  -40.4059 H         1 UNK         0.0600 
    169 H169       -2.3086  -13.1115  -42.4911 H         1 UNK         0.3000 
    170 H170       -1.5813  -12.7078  -45.9380 H         1 UNK         0.0600 
    171 H171       -3.9479  -11.9134  -45.8023 H         1 UNK         0.0600 
    172 H172       -3.6143  -11.1712  -44.2422 H         1 UNK         0.0600 
    173 H173       -2.8082  -10.5824  -45.6969 H         1 UNK         0.0600 
    174 H174       -1.1429  -10.8837  -43.9002 H         1 UNK         0.3000 
    175 H175        1.5418  -10.7306  -43.9323 H         1 UNK         0.0600 
    176 H176        0.0704  -11.2037  -41.2873 H         1 UNK         0.0600 
    177 H177        1.2999   -9.9642  -41.5222 H         1 UNK         0.0600 
    178 H178       -0.1926   -9.8965  -42.4328 H         1 UNK         0.0600 
    179 H179        3.2668  -11.8420  -43.2129 H         1 UNK         0.3000 
    180 H180        4.3796  -12.6209  -40.5687 H         1 UNK         0.0600 
    181 H181        3.4459  -14.8499  -39.8317 H         1 UNK         0.0600 
    182 H182        5.1360  -14.9195  -40.2965 H         1 UNK         0.0600 
    183 H183        3.9070  -15.5238  -41.3947 H         1 UNK         0.0600 
    184 H184        4.6058  -13.9380  -43.2438 H         1 UNK         0.3000 
    185 H185        6.8547  -11.4947  -44.3660 H         1 UNK         0.0600 
    186 H186        8.5586  -12.9441  -43.2458 H         1 UNK         0.0600 
    187 H187        7.6843  -14.3840  -43.7543 H         1 UNK         0.0600 
    188 H188        8.4268  -13.3253  -44.9549 H         1 UNK         0.0600 
    189 H189        6.0139  -13.9714  -45.5167 H         1 UNK         0.3000 
    190 H190       -0.9582  -19.9472  -48.5176 H         1 UNK         0.3000 
    191 H191       -0.9149  -21.1454  -51.0908 H         1 UNK         0.0600 
    192 H192       -3.1780  -20.1353  -51.2997 H         1 UNK         0.0600 
    193 H193       -2.0951  -18.9978  -50.5130 H         1 UNK         0.0600 
    194 H194       -3.2512  -19.8780  -49.5630 H         1 UNK         0.0600 
    195 H195       -2.8823  -21.8975  -48.1753 H         1 UNK         0.3000 
    196 H196       -4.2010  -24.1611  -49.3459 H         1 UNK         0.0600 
    197 H197       -5.2512  -22.6864  -47.6266 H         1 UNK         0.0600 
    198 H198       -5.2319  -24.3630  -47.1093 H         1 UNK         0.0600 
    199 H199       -4.0690  -23.2224  -46.4379 H         1 UNK         0.0600 
    200 H200       -1.6862  -24.7791  -49.8486 H         1 UNK         0.3000 
    201 H201       -0.3591  -26.4434  -47.8939 H         1 UNK         0.0600 
    202 H202        1.0771  -27.0341  -49.8608 H         1 UNK         0.0600 
    203 H203        0.8899  -25.2951  -49.6839 H         1 UNK         0.0600 
    204 H204       -0.0152  -26.1562  -50.9265 H         1 UNK         0.0600 
    205 H205       -1.4903  -28.1539  -47.1579 H         1 UNK         0.3000 
    206 H206       -2.4825  -30.1169  -46.9649 H         1 UNK         0.0600 
    207 H207       -0.4673  -30.9785  -48.0613 H         1 UNK         0.0600 
    208 H208       -1.8473  -31.9243  -48.5862 H         1 UNK         0.0600 
    209 H209       -1.1441  -30.7184  -49.6618 H         1 UNK         0.0600 
    210 H210       -3.0471  -30.7108  -50.3362 H         1 UNK         0.3000 
    211 H211       -5.9239  -30.8018  -49.9485 H         1 UNK         0.0600 
    212 H212       -4.1788  -31.2949  -52.4204 H         1 UNK         0.0600 
    213 H213       -5.8894  -31.6823  -52.2806 H         1 UNK         0.0600 
    214 H214       -4.7208  -32.5234  -51.2759 H         1 UNK         0.0600 
    215 H215       -3.7299  -28.3158  -51.0169 H         1 UNK         0.3000 
    216 H216       -5.5083  -26.9816  -52.8686 H         1 UNK         0.0600 
    217 H217       -3.0267  -26.7141  -52.9536 H         1 UNK         0.0600 
    218 H218       -3.0453  -25.9532  -51.3652 H         1 UNK         0.0600 
    219 H219       -3.8171  -25.1601  -52.7257 H         1 UNK         0.0600 
    220 H220       -6.4941  -24.9186  -52.5583 H         1 UNK         0.3000 
    221 H221       -7.6065  -24.4096  -49.8461 H         1 UNK         0.0600 
    222 H222       -9.2119  -24.6890  -51.7608 H         1 UNK         0.0600 
    223 H223       -9.2713  -23.0587  -51.1148 H         1 UNK         0.0600 
    224 H224       -8.4214  -23.3710  -52.6239 H         1 UNK         0.0600 
    225 H225       -7.7583  -22.1150  -49.1991 H         1 UNK         0.3000 
    226 H226       -5.2956  -20.7340  -49.3036 H         1 UNK         0.0600 
    227 H227       -6.8252  -20.5622  -47.3889 H         1 UNK         0.0600 
    228 H228       -6.5566  -18.9614  -48.0562 H         1 UNK         0.0600 
    229 H229       -8.0650  -19.8026  -48.3914 H         1 UNK         0.0600 
    230 H230       -7.9464  -20.6502  -51.5016 H         1 UNK         0.3000 
    231 H231       -7.5264  -18.0587  -52.6886 H         1 UNK         0.0600 
    232 H232       -9.1045  -18.9514  -54.4053 H         1 UNK         0.0600 
    233 H233       -9.7044  -19.2590  -52.7849 H         1 UNK         0.0600 
    234 H234       -8.9679  -20.5644  -53.7156 H         1 UNK         0.0600 
    235 H235       -5.6108  -20.8910  -52.8484 H         1 UNK         0.3000 
    236 H236       -4.9101  -21.0845  -55.5380 H         1 UNK         0.0600 
    237 H237       -3.2776  -21.7582  -53.0391 H         1 UNK         0.0600 
    238 H238       -4.4018  -22.8237  -53.8779 H         1 UNK         0.0600 
    239 H239       -2.9128  -22.3285  -54.6612 H         1 UNK         0.0600 
    240 H240       -4.0208  -18.4998  -53.4441 H         1 UNK         0.3000 
    241 H241       -1.6809  -17.6607  -54.9438 H         1 UNK         0.0600 
    242 H242       -5.0807  -17.5152  -55.7557 H         1 UNK         0.3800 
    243 H243       -4.8792  -16.3032  -56.9967 H         1 UNK         0.3800 
    244 H244       -2.8939  -16.8312  -52.4625 H         1 UNK         0.0800 
    245 H245       -2.9611  -15.4411  -53.4791 H         1 UNK         0.0800 
    246 H246       -0.6886  -18.1883  -52.0100 H         1 UNK         0.0800 
    247 H247       -1.0733  -16.9330  -50.8367 H         1 UNK         0.0800 
@<TRIPOS>BOND
     1    1    2 1    
     2    1  127 1    
     3    1  128 1    
     4    1  129 1    
     5    2    3 2    
     6    2    4 am   BACKBONE|DICT|INTERRES
     7    4    5 1    
     8    4  130 1    
     9    5    6 1    
    10    5   65 1    
    11    5  131 1    
    12    6    7 1    
    13    6  132 1    
    14    6  133 1    
    15    7    8 1    
    16    8    9 1    
    17    8  134 1    
    18    8  135 1    
    19    9   10 ar   
    20    9   14 ar   
    21   10   11 ar   
    22   10  136 1    
    23   11   12 ar   
    24   11  126 1    
    25   12   13 ar   
    26   12  137 1    
    27   13   14 ar   
    28   13   15 1    
    29   14  138 1    
    30   15   16 1    
    31   15  139 1    
    32   15  140 1    
    33   16   17 1    
    34   17   18 1    
    35   17  141 1    
    36   17  142 1    
    37   18   19 1    
    38   18   67 1    
    39   18  143 1    
    40   19   20 am   BACKBONE|DICT|INTERRES
    41   19  144 1    
    42   20   21 2    
    43   20   22 1    
    44   22   23 1    
    45   22   24 1    
    46   22  145 1    
    47   23  146 1    
    48   23  147 1    
    49   23  148 1    
    50   24   25 am   BACKBONE|DICT|INTERRES
    51   24  149 1    
    52   25   26 2    
    53   25   27 1    
    54   27   28 1    
    55   27   29 1    
    56   27  150 1    
    57   28  151 1    
    58   28  152 1    
    59   28  153 1    
    60   29   30 am   BACKBONE|DICT|INTERRES
    61   29  154 1    
    62   30   31 2    
    63   30   32 1    
    64   32   33 1    
    65   32   34 1    
    66   32  155 1    
    67   33  156 1    
    68   33  157 1    
    69   33  158 1    
    70   34   35 am   BACKBONE|DICT|INTERRES
    71   34  159 1    
    72   35   36 2    
    73   35   37 1    
    74   37   38 1    
    75   37   39 1    
    76   37  160 1    
    77   38  161 1    
    78   38  162 1    
    79   38  163 1    
    80   39   40 am   BACKBONE|DICT|INTERRES
    81   39  164 1    
    82   40   41 2    
    83   40   42 1    
    84   42   43 1    
    85   42   44 1    
    86   42  165 1    
    87   43  166 1    
    88   43  167 1    
    89   43  168 1    
    90   44   45 am   BACKBONE|DICT|INTERRES
    91   44  169 1    
    92   45   46 2    
    93   45   47 1    
    94   47   48 1    
    95   47   49 1    
    96   47  170 1    
    97   48  171 1    
    98   48  172 1    
    99   48  173 1    
   100   49   50 am   BACKBONE|DICT|INTERRES
   101   49  174 1    
   102   50   51 2    
   103   50   52 1    
   104   52   53 1    
   105   52   54 1    
   106   52  175 1    
   107   53  176 1    
   108   53  177 1    
   109   53  178 1    
   110   54   55 am   BACKBONE|DICT|INTERRES
   111   54  179 1    
   112   55   56 2    
   113   55   57 1    
   114   57   58 1    
   115   57   59 1    
   116   57  180 1    
   117   58  181 1    
   118   58  182 1    
   119   58  183 1    
   120   59   60 am   BACKBONE|DICT|INTERRES
   121   59  184 1    
   122   60   61 2    
   123   60   62 1    
   124   62   63 1    
   125   62   64 1    
   126   62  185 1    
   127   63  186 1    
   128   63  187 1    
   129   63  188 1    
   130   64   65 am   BACKBONE|DICT|INTERRES
   131   64  189 1    
   132   65   66 2    
   133   67   68 2    
   134   67   69 am   BACKBONE|DICT|INTERRES
   135   69   70 1    
   136   69  190 1    
   137   70   71 1    
   138   70   72 1    
   139   70  191 1    
   140   71  192 1    
   141   71  193 1    
   142   71  194 1    
   143   72   73 2    
   144   72   74 am   BACKBONE|DICT|INTERRES
   145   74   75 1    
   146   74  195 1    
   147   75   76 1    
   148   75   77 1    
   149   75  196 1    
   150   76  197 1    
   151   76  198 1    
   152   76  199 1    
   153   77   78 2    
   154   77   79 am   BACKBONE|DICT|INTERRES
   155   79   80 1    
   156   79  200 1    
   157   80   81 1    
   158   80   82 1    
   159   80  201 1    
   160   81  202 1    
   161   81  203 1    
   162   81  204 1    
   163   82   83 2    
   164   82   84 am   BACKBONE|DICT|INTERRES
   165   84   85 1    
   166   84  205 1    
   167   85   86 1    
   168   85   87 1    
   169   85  206 1    
   170   86  207 1    
   171   86  208 1    
   172   86  209 1    
   173   87   88 2    
   174   87   89 am   BACKBONE|DICT|INTERRES
   175   89   90 1    
   176   89  210 1    
   177   90   91 1    
   178   90   92 1    
   179   90  211 1    
   180   91  212 1    
   181   91  213 1    
   182   91  214 1    
   183   92   93 2    
   184   92   94 am   BACKBONE|DICT|INTERRES
   185   94   95 1    
   186   94  215 1    
   187   95   96 1    
   188   95   97 1    
   189   95  216 1    
   190   96  217 1    
   191   96  218 1    
   192   96  219 1    
   193   97   98 2    
   194   97   99 am   BACKBONE|DICT|INTERRES
   195   99  100 1    
   196   99  220 1    
   197  100  101 1    
   198  100  102 1    
   199  100  221 1    
   200  101  222 1    
   201  101  223 1    
   202  101  224 1    
   203  102  103 2    
   204  102  104 am   BACKBONE|DICT|INTERRES
   205  104  105 1    
   206  104  225 1    
   207  105  106 1    
   208  105  107 1    
   209  105  226 1    
   210  106  227 1    
   211  106  228 1    
   212  106  229 1    
   213  107  108 2    
   214  107  109 am   BACKBONE|DICT|INTERRES
   215  109  110 1    
   216  109  230 1    
   217  110  111 1    
   218  110  112 1    
   219  110  231 1    
   220  111  232 1    
   221  111  233 1    
   222  111  234 1    
   223  112  113 2    
   224  112  114 am   BACKBONE|DICT|INTERRES
   225  114  115 1    
   226  114  235 1    
   227  115  116 1    
   228  115  117 1    
   229  115  236 1    
   230  116  237 1    
   231  116  238 1    
   232  116  239 1    
   233  117  118 2    
   234  117  119 am   BACKBONE|DICT|INTERRES
   235  119  120 1    
   236  119  240 1    
   237  120  121 1    
   238  120  124 1    
   239  120  241 1    
   240  121  122 am   BACKBONE|DICT|INTERRES
   241  121  123 2    
   242  122  242 1    
   243  122  243 1    
   244  124  125 1    
   245  124  244 1    
   246  124  245 1    
   247  125  126 1    
   248  126  246 1    
   249  126  247 1    
@<TRIPOS>SUBSTRUCTURE
     1 UNK         1 GROUP             0       ****    0 ROOT    
