@<TRIPOS>MOLECULE
3R540
247   249    1
SMALL
USER_CHARGES


@<TRIPOS>ATOM
      1 CA          0.3020   -8.4657  -47.1677 C.3       0 UNK        -0.1800 
      2 C           0.4270   -9.9758  -47.0348 C.2       0 UNK         0.5000 
      3 O           0.9460  -10.4651  -46.0303 O.2       0 UNK        -0.5000 
      4 N          -0.0635  -10.7279  -48.0295 N.am      1 UNK        -0.5000 
      5 CA         -0.0046  -12.1951  -48.0606 C.3       1 UNK         0.1400 
      6 C6         -0.3478  -12.7713  -49.4546 C.3       23 UNK        -0.0398 
      7 S7         -2.0952  -12.5555  -49.9535 S.3       23 UNK        -0.2404 
      8 C8         -2.2354  -13.7012  -51.3684 C.3       23 UNK        -0.0205 
      9 C9         -1.7464  -15.1168  -51.0739 C.ar      23 UNK        -0.0193 
     10 C10        -0.8649  -15.7418  -51.9603 C.ar      23 UNK        -0.1150 
     11 C11        -0.4053  -17.0383  -51.7173 C.ar      23 UNK        -0.0193 
     12 C12        -0.8159  -17.6998  -50.5549 C.ar      23 UNK        -0.1150 
     13 C13        -1.7002  -17.0924  -49.6558 C.ar      23 UNK        -0.0193 
     14 C14        -2.1715  -15.8054  -49.9327 C.ar      23 UNK        -0.1150 
     15 C15        -2.2070  -17.8247  -48.4158 C.3       23 UNK        -0.0205 
     16 S16        -0.9543  -18.8582  -47.5814 S.3       23 UNK        -0.2404 
     17 C17        -2.0166  -19.7211  -46.3781 C.3       23 UNK        -0.0398 
     18 CA         -2.2371  -21.2128  -46.7368 C.3       11 UNK         0.1400 
     19 N          -1.0581  -22.0267  -46.4120 N.am      11 UNK        -0.5000 
     20 C          -0.9558  -23.3580  -46.5543 C.2       10 UNK         0.5000 
     21 O          -1.8242  -24.0598  -47.0737 O.2       10 UNK        -0.5000 
     22 CA          0.2818  -24.0461  -45.9437 C.3       10 UNK         0.1400 
     23 CB          1.3634  -24.2472  -47.0139 C.3       10 UNK        -0.1800 
     24 N           0.8616  -23.3340  -44.8019 N.am      10 UNK        -0.5000 
     25 C           0.2146  -22.9484  -43.6914 C.2       9 UNK         0.5000 
     26 O          -0.9620  -23.2271  -43.4564 O.2       9 UNK        -0.5000 
     27 CA          0.9839  -22.0505  -42.7044 C.3       9 UNK         0.1400 
     28 CB          1.4781  -22.8743  -41.5067 C.3       9 UNK        -0.1800 
     29 N           2.1180  -21.3197  -43.2804 N.am      9 UNK        -0.5000 
     30 C           2.0784  -20.4752  -44.3207 C.2       8 UNK         0.5000 
     31 O           1.0747  -20.2843  -45.0094 O.2       8 UNK        -0.5000 
     32 CA          3.3871  -19.7183  -44.6182 C.3       8 UNK         0.1400 
     33 CB          3.3175  -18.8961  -45.9178 C.3       8 UNK        -0.1800 
     34 N           3.7276  -18.8269  -43.5111 N.am      8 UNK        -0.5000 
     35 C           4.3043  -19.1905  -42.3577 C.2       7 UNK         0.5000 
     36 O           4.6661  -20.3418  -42.1103 O.2       7 UNK        -0.5000 
     37 CA          4.4553  -18.0946  -41.2913 C.3       7 UNK         0.1400 
     38 CB          5.5849  -17.1197  -41.6602 C.3       7 UNK        -0.1800 
     39 N           3.2021  -17.3562  -41.1461 N.am      7 UNK        -0.5000 
     40 C           2.2459  -17.6414  -40.2510 C.2       6 UNK         0.5000 
     41 O           2.3580  -18.5055  -39.3808 O.2       6 UNK        -0.5000 
     42 CA          0.9351  -16.8342  -40.3481 C.3       6 UNK         0.1400 
     43 CB          1.0061  -15.5822  -39.4616 C.3       6 UNK        -0.1800 
     44 N           0.6193  -16.4405  -41.7225 N.am      6 UNK        -0.5000 
     45 C           0.2286  -17.3011  -42.6753 C.2       5 UNK         0.5000 
     46 O          -0.0259  -18.4833  -42.4470 O.2       5 UNK        -0.5000 
     47 CA          0.1119  -16.7767  -44.1230 C.3       5 UNK         0.1400 
     48 CB         -1.3656  -16.5829  -44.4973 C.3       5 UNK        -0.1800 
     49 N           0.8318  -15.5281  -44.3938 N.am      5 UNK        -0.5000 
     50 C           2.1416  -15.3009  -44.2210 C.2       4 UNK         0.5000 
     51 O           2.9358  -16.1514  -43.8219 O.2       4 UNK        -0.5000 
     52 CA          2.6375  -13.8626  -44.4652 C.3       4 UNK         0.1400 
     53 CB          3.0778  -13.6860  -45.9250 C.3       4 UNK        -0.1800 
     54 N           1.6441  -12.8409  -44.1163 N.am      4 UNK        -0.5000 
     55 C           1.1414  -12.6548  -42.8850 C.2       3 UNK         0.5000 
     56 O           1.4780  -13.3170  -41.9034 O.2       3 UNK        -0.5000 
     57 CA          0.0435  -11.5888  -42.7371 C.3       3 UNK         0.1400 
     58 CB          0.6483  -10.1814  -42.6190 C.3       3 UNK        -0.1800 
     59 N          -0.8843  -11.6430  -43.8664 N.am      3 UNK        -0.5000 
     60 C          -1.8992  -12.5158  -43.9557 C.2       2 UNK         0.5000 
     61 O          -2.2268  -13.2730  -43.0422 O.2       2 UNK        -0.5000 
     62 CA         -2.6700  -12.5733  -45.2897 C.3       2 UNK         0.1400 
     63 CB         -3.9231  -11.6874  -45.2275 C.3       2 UNK        -0.1800 
     64 N          -1.8611  -12.1735  -46.4411 N.am      2 UNK        -0.5000 
     65 C          -0.8151  -12.8607  -46.9228 C.2       1 UNK         0.5000 
     66 O          -0.4493  -13.9433  -46.4687 O.2       1 UNK        -0.5000 
     67 C          -3.5266  -21.7190  -46.0516 C.2       11 UNK         0.5000 
     68 O          -4.5977  -21.6204  -46.6501 O.2       11 UNK        -0.5000 
     69 N          -3.4012  -22.2523  -44.8287 N.am      12 UNK        -0.5000 
     70 CA         -4.5005  -22.8165  -44.0504 C.3       12 UNK         0.1400 
     71 CB         -4.4642  -22.2242  -42.6326 C.3       12 UNK        -0.1800 
     72 C          -4.4124  -24.3495  -43.9942 C.2       12 UNK         0.5000 
     73 O          -5.4299  -25.0192  -44.1701 O.2       12 UNK        -0.5000 
     74 N          -3.2066  -24.8800  -43.7451 N.am      13 UNK        -0.5000 
     75 CA         -2.9592  -26.3002  -43.4890 C.3       13 UNK         0.1400 
     76 CB         -1.5544  -26.4673  -42.8892 C.3       13 UNK        -0.1800 
     77 C          -3.1274  -27.1995  -44.7260 C.2       13 UNK         0.5000 
     78 O          -3.5802  -28.3360  -44.5837 O.2       13 UNK        -0.5000 
     79 N          -2.7634  -26.6820  -45.9057 N.am      14 UNK        -0.5000 
     80 CA         -2.8578  -27.3840  -47.1886 C.3       14 UNK         0.1400 
     81 CB         -1.4562  -27.4312  -47.8226 C.3       14 UNK        -0.1800 
     82 C          -3.8625  -26.7113  -48.1424 C.2       14 UNK         0.5000 
     83 O          -4.0823  -27.2275  -49.2387 O.2       14 UNK        -0.5000 
     84 N          -4.4275  -25.5656  -47.7270 N.am      15 UNK        -0.5000 
     85 CA         -5.2632  -24.6475  -48.5101 C.3       15 UNK         0.1400 
     86 CB         -6.6154  -25.2984  -48.8673 C.3       15 UNK        -0.1800 
     87 C          -4.5260  -24.0733  -49.7414 C.2       15 UNK         0.5000 
     88 O          -5.1541  -23.7830  -50.7619 O.2       15 UNK        -0.5000 
     89 N          -3.1981  -23.9256  -49.6316 N.am      16 UNK        -0.5000 
     90 CA         -2.3030  -23.4829  -50.6973 C.3       16 UNK         0.1400 
     91 CB         -0.8975  -24.0530  -50.4365 C.3       16 UNK        -0.1800 
     92 C          -2.3123  -21.9490  -50.8249 C.2       16 UNK         0.5000 
     93 O          -1.3143  -21.2940  -50.5271 O.2       16 UNK        -0.5000 
     94 N          -3.4695  -21.4129  -51.2196 N.am      17 UNK        -0.5000 
     95 CA         -3.7269  -19.9894  -51.3993 C.3       17 UNK         0.1400 
     96 CB         -5.1600  -19.7040  -50.9188 C.3       17 UNK        -0.1800 
     97 C          -3.5342  -19.5504  -52.8615 C.2       17 UNK         0.5000 
     98 O          -3.2870  -20.3786  -53.7474 O.2       17 UNK        -0.5000 
     99 N          -3.6787  -18.2377  -53.0907 N.am      18 UNK        -0.5000 
    100 CA        -3.6914  -17.6100  -54.4111 C.3       18 UNK         0.1400 
    101 CB        -3.8809  -16.0940  -54.2569 C.3       18 UNK        -0.1800 
    102 C         -4.7991  -18.2025  -55.3004 C.2       18 UNK         0.5000 
    103 O         -5.9307  -18.3627  -54.8391 O.2       18 UNK        -0.5000 
    104 N         -4.4278  -18.5675  -56.5324 N.am      19 UNK        -0.5000 
    105 CA        -5.2074  -19.2747  -57.5590 C.3       19 UNK         0.1400 
    106 CB        -6.5083  -18.5271  -57.9114 C.3       19 UNK        -0.1800 
    107 C         -5.4776  -20.7622  -57.2453 C.2       19 UNK         0.5000 
    108 O         -5.6226  -21.5479  -58.1826 O.2       19 UNK        -0.5000 
    109 N         -5.5132  -21.1392  -55.9602 N.am      20 UNK        -0.5000 
    110 CA        -5.6490  -22.5197  -55.4976 C.3       20 UNK         0.1400 
    111 CB        -6.0782  -22.5310  -54.0220 C.3       20 UNK        -0.1800 
    112 C         -4.3548  -23.3276  -55.7022 C.2       20 UNK         0.5000 
    113 O         -4.4279  -24.4837  -56.1215 O.2       20 UNK        -0.5000 
    114 N         -3.2017  -22.7045  -55.4227 N.am      21 UNK        -0.5000 
    115 CA        -1.8780  -23.3086  -55.5877 C.3       21 UNK         0.1400 
    116 CB        -1.4391  -23.9561  -54.2656 C.3       21 UNK        -0.1800 
    117 C         -0.8107  -22.3109  -56.0655 C.2       21 UNK         0.5000 
    118 O          0.1308  -22.7332  -56.7384 O.2       21 UNK        -0.5000 
    119 N         -0.9480  -21.0272  -55.7114 N.am      22 UNK        -0.5000 
    120 CA         0.0740  -19.9866  -55.9357 C.3       22 UNK         0.1400 
    121 C         -0.4909  -18.7038  -56.6068 C.2       22 UNK         0.5000 
    122 N         -1.4952  -18.8198  -57.4679 N.am      22 UNK        -0.7600 
    123 O         -0.0070  -17.5985  -56.3825 O.2       22 UNK        -0.5000 
    124 C124        0.9415  -19.7371  -54.6699 C.3       23 UNK        -0.0398 
    125 S125       -0.0351  -19.3774  -53.1732 S.3       23 UNK        -0.2404 
    126 C126        0.5330  -17.7104  -52.7144 C.3       23 UNK        -0.0205 
    127 H127       -0.2750   -8.0632  -46.3352 H         1 UNK         0.0600 
    128 H128       -0.1932   -8.1803  -48.0961 H         1 UNK         0.0600 
    129 H129        1.2902   -8.0062  -47.1528 H         1 UNK         0.0600 
    130 H130       -0.4982  -10.2863  -48.8278 H         1 UNK         0.3000 
    131 H131        1.0391  -12.4531  -47.8752 H         1 UNK         0.0600 
    132 H132        0.2857  -12.3108  -50.2137 H         1 UNK         0.0800 
    133 H133       -0.0918  -13.8312  -49.4652 H         1 UNK         0.0800 
    134 H134       -3.2799  -13.7499  -51.6787 H         1 UNK         0.0800 
    135 H135       -1.6859  -13.2732  -52.2083 H         1 UNK         0.0800 
    136 H136       -0.5427  -15.2203  -52.8507 H         1 UNK         0.1150 
    137 H137       -0.4635  -18.7041  -50.3652 H         1 UNK         0.1150 
    138 H138       -2.8646  -15.3300  -49.2529 H         1 UNK         0.1150 
    139 H139       -3.0532  -18.4490  -48.7020 H         1 UNK         0.0800 
    140 H140       -2.5870  -17.1042  -47.6899 H         1 UNK         0.0800 
    141 H141       -2.9637  -19.1815  -46.3128 H         1 UNK         0.0800 
    142 H142       -1.5628  -19.6324  -45.3896 H         1 UNK         0.0800 
    143 H143       -2.4029  -21.2965  -47.8127 H         1 UNK         0.0600 
    144 H144       -0.2881  -21.5253  -45.9797 H         1 UNK         0.3000 
    145 H145       -0.0340  -25.0287  -45.5900 H         1 UNK         0.0600 
    146 H146        2.2186  -24.7926  -46.6144 H         1 UNK         0.0600 
    147 H147        0.9785  -24.8249  -47.8552 H         1 UNK         0.0600 
    148 H148        1.7234  -23.2948  -47.4054 H         1 UNK         0.0600 
    149 H149        1.8218  -23.0401  -44.9010 H         1 UNK         0.3000 
    150 H150        0.2756  -21.3052  -42.3375 H         1 UNK         0.0600 
    151 H151        0.6546  -23.4109  -41.0331 H         1 UNK         0.0600 
    152 H152        1.9266  -22.2341  -40.7466 H         1 UNK         0.0600 
    153 H153        2.2225  -23.6126  -41.8072 H         1 UNK         0.0600 
    154 H154        2.9908  -21.3711  -42.7663 H         1 UNK         0.3000 
    155 H155        4.1790  -20.4607  -44.7369 H         1 UNK         0.0600 
    156 H156        2.5524  -18.1213  -45.8689 H         1 UNK         0.0600 
    157 H157        4.2701  -18.4093  -46.1265 H         1 UNK         0.0600 
    158 H158        3.0832  -19.5333  -46.7714 H         1 UNK         0.0600 
    159 H159        3.4460  -17.8550  -43.6247 H         1 UNK         0.3000 
    160 H160        4.7208  -18.5737  -40.3465 H         1 UNK         0.0600 
    161 H161        5.7215  -16.3668  -40.8839 H         1 UNK         0.0600 
    162 H162        5.3856  -16.5992  -42.5977 H         1 UNK         0.0600 
    163 H163        6.5330  -17.6470  -41.7725 H         1 UNK         0.0600 
    164 H164        3.0043  -16.6698  -41.8652 H         1 UNK         0.3000 
    165 H165        0.1248  -17.4658  -39.9777 H         1 UNK         0.0600 
    166 H166        0.0822  -15.0060  -39.5146 H         1 UNK         0.0600 
    167 H167        1.1618  -15.8539  -38.4169 H         1 UNK         0.0600 
    168 H168        1.8276  -14.9276  -39.7547 H         1 UNK         0.0600 
    169 H169        0.8021  -15.4766  -41.9734 H         1 UNK         0.3000 
    170 H170        0.5283  -17.5444  -44.7766 H         1 UNK         0.0600 
    171 H171       -1.9422  -17.4897  -44.3139 H         1 UNK         0.0600 
    172 H172       -1.8240  -15.7838  -43.9155 H         1 UNK         0.0600 
    173 H173       -1.4754  -16.3365  -45.5532 H         1 UNK         0.0600 
    174 H174        0.2829  -14.7867  -44.8169 H         1 UNK         0.3000 
    175 H175        3.5081  -13.7009  -43.8263 H         1 UNK         0.0600 
    176 H176        3.3843  -12.6599  -46.1293 H         1 UNK         0.0600 
    177 H177        2.2806  -13.9480  -46.6195 H         1 UNK         0.0600 
    178 H178        3.9269  -14.3320  -46.1515 H         1 UNK         0.0600 
    179 H179        1.3342  -12.2285  -44.8613 H         1 UNK         0.3000 
    180 H180       -0.5024  -11.7928  -41.8133 H         1 UNK         0.0600 
    181 H181        1.2515   -9.9192  -43.4880 H         1 UNK         0.0600 
    182 H182        1.2937  -10.1109  -41.7426 H         1 UNK         0.0600 
    183 H183       -0.1301   -9.4260  -42.5108 H         1 UNK         0.0600 
    184 H184       -0.6453  -11.0808  -44.6731 H         1 UNK         0.3000 
    185 H185       -2.9872  -13.6072  -45.4425 H         1 UNK         0.0600 
    186 H186       -4.5650  -11.9771  -44.3944 H         1 UNK         0.0600 
    187 H187       -3.6665  -10.6357  -45.0945 H         1 UNK         0.0600 
    188 H188       -4.5150  -11.7770  -46.1386 H         1 UNK         0.0600 
    189 H189       -2.0927  -11.2932  -46.8775 H         1 UNK         0.3000 
    190 H190       -2.4753  -22.3385  -44.4234 H         1 UNK         0.3000 
    191 H191       -5.4629  -22.5561  -44.4962 H         1 UNK         0.0600 
    192 H192       -4.5913  -21.1418  -42.6572 H         1 UNK         0.0600 
    193 H193       -5.2672  -22.6320  -42.0173 H         1 UNK         0.0600 
    194 H194       -3.5209  -22.4375  -42.1278 H         1 UNK         0.0600 
    195 H195       -2.4131  -24.2576  -43.6055 H         1 UNK         0.3000 
    196 H196       -3.6832  -26.6340  -42.7424 H         1 UNK         0.0600 
    197 H197       -1.3569  -27.5107  -42.6404 H         1 UNK         0.0600 
    198 H198       -1.4460  -25.8884  -41.9717 H         1 UNK         0.0600 
    199 H199       -0.7777  -26.1427  -43.5816 H         1 UNK         0.0600 
    200 H200       -2.4067  -25.7350  -45.9448 H         1 UNK         0.3000 
    201 H201       -3.1989  -28.4112  -47.0463 H         1 UNK         0.0600 
    202 H202       -0.7400  -27.9162  -47.1593 H         1 UNK         0.0600 
    203 H203       -1.0799  -26.4338  -48.0496 H         1 UNK         0.0600 
    204 H204       -1.4668  -27.9956  -48.7557 H         1 UNK         0.0600 
    205 H205       -4.1776  -25.2409  -46.8049 H         1 UNK         0.3000 
    206 H206       -5.4739  -23.7986  -47.8601 H         1 UNK         0.0600 
    207 H207       -7.1079  -25.6955  -47.9798 H         1 UNK         0.0600 
    208 H208       -7.2926  -24.5699  -49.3145 H         1 UNK         0.0600 
    209 H209       -6.4982  -26.1143  -49.5808 H         1 UNK         0.0600 
    210 H210       -2.7610  -24.1247  -48.7360 H         1 UNK         0.3000 
    211 H211       -2.6598  -23.8973  -51.6413 H         1 UNK         0.0600 
    212 H212       -0.4707  -23.6646  -49.5122 H         1 UNK         0.0600 
    213 H213       -0.2147  -23.7914  -51.2455 H         1 UNK         0.0600 
    214 H214       -0.9186  -25.1406  -50.3665 H         1 UNK         0.0600 
    215 H215       -4.2383  -22.0441  -51.4144 H         1 UNK         0.3000 
    216 H216       -3.0319  -19.4150  -50.7893 H         1 UNK         0.0600 
    217 H217       -5.3879  -18.6381  -50.9490 H         1 UNK         0.0600 
    218 H218       -5.3003  -20.0315  -49.8881 H         1 UNK         0.0600 
    219 H219       -5.8998  -20.2163  -51.5356 H         1 UNK         0.0600 
    220 H220       -3.8785  -17.6286  -52.3120 H         1 UNK         0.3000 
    221 H221       -2.7190  -17.7927  -54.8709 H         1 UNK         0.0600 
    222 H222       -3.0627  -15.6479  -53.6949 H         1 UNK         0.0600 
    223 H223       -3.9063  -15.6031  -55.2307 H         1 UNK         0.0600 
    224 H224       -4.8128  -15.8541  -53.7433 H         1 UNK         0.0600 
    225 H225       -3.4547  -18.4305  -56.7737 H         1 UNK         0.3000 
    226 H226       -4.5805  -19.2645  -58.4520 H         1 UNK         0.0600 
    227 H227       -6.3107  -17.4835  -58.1558 H         1 UNK         0.0600 
    228 H228       -6.9896  -18.9786  -58.7797 H         1 UNK         0.0600 
    229 H229       -7.2304  -18.5519  -57.0952 H         1 UNK         0.0600 
    230 H230       -5.4122  -20.4236  -55.2517 H         1 UNK         0.3000 
    231 H231       -6.4388  -22.9999  -56.0792 H         1 UNK         0.0600 
    232 H232       -5.3305  -22.0708  -53.3779 H         1 UNK         0.0600 
    233 H233       -6.2269  -23.5517  -53.6671 H         1 UNK         0.0600 
    234 H234       -7.0174  -21.9966  -53.8792 H         1 UNK         0.0600 
    235 H235       -3.2432  -21.7756  -55.0128 H         1 UNK         0.3000 
    236 H236       -1.9297  -24.0883  -56.3507 H         1 UNK         0.0600 
    237 H237       -2.1636  -24.6956  -53.9244 H         1 UNK         0.0600 
    238 H238       -0.4816  -24.4661  -54.3778 H         1 UNK         0.0600 
    239 H239       -1.3197  -23.2049  -53.4850 H         1 UNK         0.0600 
    240 H240       -1.7213  -20.7474  -55.1199 H         1 UNK         0.3000 
    241 H241        0.7724  -20.3437  -56.6942 H         1 UNK         0.0600 
    242 H242       -1.7708  -18.0032  -57.9917 H         1 UNK         0.3800 
    243 H243       -1.8077  -19.7366  -57.7489 H         1 UNK         0.3800 
    244 H244        1.5280  -20.6325  -54.4614 H         1 UNK         0.0800 
    245 H245        1.6742  -18.9477  -54.8444 H         1 UNK         0.0800 
    246 H246        0.6167  -17.1067  -53.6195 H         1 UNK         0.0800 
    247 H247        1.5322  -17.7747  -52.2826 H         1 UNK         0.0800 
@<TRIPOS>BOND
     1    1    2 1    
     2    1  127 1    
     3    1  128 1    
     4    1  129 1    
     5    2    3 2    
     6    2    4 am   BACKBONE|DICT|INTERRES
     7    4    5 1    
     8    4  130 1    
     9    5    6 1    
    10    5   65 1    
    11    5  131 1    
    12    6    7 1    
    13    6  132 1    
    14    6  133 1    
    15    7    8 1    
    16    8    9 1    
    17    8  134 1    
    18    8  135 1    
    19    9   10 ar   
    20    9   14 ar   
    21   10   11 ar   
    22   10  136 1    
    23   11   12 ar   
    24   11  126 1    
    25   12   13 ar   
    26   12  137 1    
    27   13   14 ar   
    28   13   15 1    
    29   14  138 1    
    30   15   16 1    
    31   15  139 1    
    32   15  140 1    
    33   16   17 1    
    34   17   18 1    
    35   17  141 1    
    36   17  142 1    
    37   18   19 1    
    38   18   67 1    
    39   18  143 1    
    40   19   20 am   BACKBONE|DICT|INTERRES
    41   19  144 1    
    42   20   21 2    
    43   20   22 1    
    44   22   23 1    
    45   22   24 1    
    46   22  145 1    
    47   23  146 1    
    48   23  147 1    
    49   23  148 1    
    50   24   25 am   BACKBONE|DICT|INTERRES
    51   24  149 1    
    52   25   26 2    
    53   25   27 1    
    54   27   28 1    
    55   27   29 1    
    56   27  150 1    
    57   28  151 1    
    58   28  152 1    
    59   28  153 1    
    60   29   30 am   BACKBONE|DICT|INTERRES
    61   29  154 1    
    62   30   31 2    
    63   30   32 1    
    64   32   33 1    
    65   32   34 1    
    66   32  155 1    
    67   33  156 1    
    68   33  157 1    
    69   33  158 1    
    70   34   35 am   BACKBONE|DICT|INTERRES
    71   34  159 1    
    72   35   36 2    
    73   35   37 1    
    74   37   38 1    
    75   37   39 1    
    76   37  160 1    
    77   38  161 1    
    78   38  162 1    
    79   38  163 1    
    80   39   40 am   BACKBONE|DICT|INTERRES
    81   39  164 1    
    82   40   41 2    
    83   40   42 1    
    84   42   43 1    
    85   42   44 1    
    86   42  165 1    
    87   43  166 1    
    88   43  167 1    
    89   43  168 1    
    90   44   45 am   BACKBONE|DICT|INTERRES
    91   44  169 1    
    92   45   46 2    
    93   45   47 1    
    94   47   48 1    
    95   47   49 1    
    96   47  170 1    
    97   48  171 1    
    98   48  172 1    
    99   48  173 1    
   100   49   50 am   BACKBONE|DICT|INTERRES
   101   49  174 1    
   102   50   51 2    
   103   50   52 1    
   104   52   53 1    
   105   52   54 1    
   106   52  175 1    
   107   53  176 1    
   108   53  177 1    
   109   53  178 1    
   110   54   55 am   BACKBONE|DICT|INTERRES
   111   54  179 1    
   112   55   56 2    
   113   55   57 1    
   114   57   58 1    
   115   57   59 1    
   116   57  180 1    
   117   58  181 1    
   118   58  182 1    
   119   58  183 1    
   120   59   60 am   BACKBONE|DICT|INTERRES
   121   59  184 1    
   122   60   61 2    
   123   60   62 1    
   124   62   63 1    
   125   62   64 1    
   126   62  185 1    
   127   63  186 1    
   128   63  187 1    
   129   63  188 1    
   130   64   65 am   BACKBONE|DICT|INTERRES
   131   64  189 1    
   132   65   66 2    
   133   67   68 2    
   134   67   69 am   BACKBONE|DICT|INTERRES
   135   69   70 1    
   136   69  190 1    
   137   70   71 1    
   138   70   72 1    
   139   70  191 1    
   140   71  192 1    
   141   71  193 1    
   142   71  194 1    
   143   72   73 2    
   144   72   74 am   BACKBONE|DICT|INTERRES
   145   74   75 1    
   146   74  195 1    
   147   75   76 1    
   148   75   77 1    
   149   75  196 1    
   150   76  197 1    
   151   76  198 1    
   152   76  199 1    
   153   77   78 2    
   154   77   79 am   BACKBONE|DICT|INTERRES
   155   79   80 1    
   156   79  200 1    
   157   80   81 1    
   158   80   82 1    
   159   80  201 1    
   160   81  202 1    
   161   81  203 1    
   162   81  204 1    
   163   82   83 2    
   164   82   84 am   BACKBONE|DICT|INTERRES
   165   84   85 1    
   166   84  205 1    
   167   85   86 1    
   168   85   87 1    
   169   85  206 1    
   170   86  207 1    
   171   86  208 1    
   172   86  209 1    
   173   87   88 2    
   174   87   89 am   BACKBONE|DICT|INTERRES
   175   89   90 1    
   176   89  210 1    
   177   90   91 1    
   178   90   92 1    
   179   90  211 1    
   180   91  212 1    
   181   91  213 1    
   182   91  214 1    
   183   92   93 2    
   184   92   94 am   BACKBONE|DICT|INTERRES
   185   94   95 1    
   186   94  215 1    
   187   95   96 1    
   188   95   97 1    
   189   95  216 1    
   190   96  217 1    
   191   96  218 1    
   192   96  219 1    
   193   97   98 2    
   194   97   99 am   BACKBONE|DICT|INTERRES
   195   99  100 1    
   196   99  220 1    
   197  100  101 1    
   198  100  102 1    
   199  100  221 1    
   200  101  222 1    
   201  101  223 1    
   202  101  224 1    
   203  102  103 2    
   204  102  104 am   BACKBONE|DICT|INTERRES
   205  104  105 1    
   206  104  225 1    
   207  105  106 1    
   208  105  107 1    
   209  105  226 1    
   210  106  227 1    
   211  106  228 1    
   212  106  229 1    
   213  107  108 2    
   214  107  109 am   BACKBONE|DICT|INTERRES
   215  109  110 1    
   216  109  230 1    
   217  110  111 1    
   218  110  112 1    
   219  110  231 1    
   220  111  232 1    
   221  111  233 1    
   222  111  234 1    
   223  112  113 2    
   224  112  114 am   BACKBONE|DICT|INTERRES
   225  114  115 1    
   226  114  235 1    
   227  115  116 1    
   228  115  117 1    
   229  115  236 1    
   230  116  237 1    
   231  116  238 1    
   232  116  239 1    
   233  117  118 2    
   234  117  119 am   BACKBONE|DICT|INTERRES
   235  119  120 1    
   236  119  240 1    
   237  120  121 1    
   238  120  124 1    
   239  120  241 1    
   240  121  122 am   BACKBONE|DICT|INTERRES
   241  121  123 2    
   242  122  242 1    
   243  122  243 1    
   244  124  125 1    
   245  124  244 1    
   246  124  245 1    
   247  125  126 1    
   248  126  246 1    
   249  126  247 1    
@<TRIPOS>SUBSTRUCTURE
     1 UNK         1 GROUP             0       ****    0 ROOT    
