@<TRIPOS>MOLECULE
3R540
247   249    1
SMALL
USER_CHARGES


@<TRIPOS>ATOM
      1 CA         -1.6438  -12.1672  -46.9578 C.3       0 UNK        -0.1800 
      2 C          -0.2715  -12.1919  -47.6150 C.2       0 UNK         0.5000 
      3 O          -0.0444  -11.4770  -48.5920 O.2       0 UNK        -0.5000 
      4 N           0.6420  -13.0099  -47.0803 N.am      1 UNK        -0.5000 
      5 CA          2.0444  -13.0793  -47.5018 C.3       1 UNK         0.1400 
      6 C6          2.6789  -14.4578  -47.1779 C.3       23 UNK        -0.0398 
      7 S7          1.8336  -15.8301  -48.0273 S.3       23 UNK        -0.2404 
      8 C8          2.9896  -16.2276  -49.3704 C.3       23 UNK        -0.0205 
      9 C9          2.3748  -17.2472  -50.3166 C.ar      23 UNK        -0.0193 
     10 C10         1.7151  -16.8229  -51.4724 C.ar      23 UNK        -0.1150 
     11 C11         1.1378  -17.7528  -52.3402 C.ar      23 UNK        -0.0193 
     12 C12         1.2179  -19.1154  -52.0393 C.ar      23 UNK        -0.1150 
     13 C13         1.8621  -19.5608  -50.8803 C.ar      23 UNK        -0.0193 
     14 C14         2.4521  -18.6135  -50.0298 C.ar      23 UNK        -0.1150 
     15 C15         1.8969  -21.0686  -50.6100 C.3       23 UNK        -0.0205 
     16 S16         2.4588  -21.5819  -48.9512 S.3       23 UNK        -0.2404 
     17 C17         1.1117  -20.9686  -47.8834 C.3       23 UNK        -0.0398 
     18 CA          0.3940  -22.1163  -47.1275 C.3       11 UNK         0.1400 
     19 N           0.0487  -21.7533  -45.7500 N.am      11 UNK        -0.5000 
     20 C          -0.3484  -22.6273  -44.8140 C.2       10 UNK         0.5000 
     21 O          -0.4417  -23.8385  -45.0107 O.2       10 UNK        -0.5000 
     22 CA         -0.7527  -22.0522  -43.4440 C.3       10 UNK         0.1400 
     23 CB          0.4843  -21.7538  -42.5842 C.3       10 UNK        -0.1800 
     24 N          -1.5770  -20.8494  -43.5635 N.am      10 UNK        -0.5000 
     25 C          -2.8016  -20.8272  -44.1086 C.2       9 UNK         0.5000 
     26 O          -3.3873  -21.8336  -44.5094 O.2       9 UNK        -0.5000 
     27 CA         -3.4595  -19.4454  -44.2861 C.3       9 UNK         0.1400 
     28 CB         -4.1023  -18.9672  -42.9760 C.3       9 UNK        -0.1800 
     29 N          -2.5219  -18.4321  -44.7729 N.am      9 UNK        -0.5000 
     30 C          -1.8889  -18.4880  -45.9534 C.2       8 UNK         0.5000 
     31 O          -2.0597  -19.3797  -46.7821 O.2       8 UNK        -0.5000 
     32 CA         -0.8477  -17.3945  -46.2337 C.3       8 UNK         0.1400 
     33 CB         -1.5348  -16.1050  -46.7067 C.3       8 UNK        -0.1800 
     34 N           0.0029  -17.1290  -45.0700 N.am      8 UNK        -0.5000 
     35 C           0.8488  -18.0275  -44.5420 C.2       7 UNK         0.5000 
     36 O           1.0354  -19.1473  -45.0133 O.2       7 UNK        -0.5000 
     37 CA          1.5536  -17.6450  -43.2298 C.3       7 UNK         0.1400 
     38 CB          2.8313  -16.8372  -43.4982 C.3       7 UNK        -0.1800 
     39 N           0.6674  -16.9018  -42.3360 N.am      7 UNK        -0.5000 
     40 C          -0.3934  -17.4399  -41.7150 C.2       6 UNK         0.5000 
     41 O          -0.6935  -18.6314  -41.7863 O.2       6 UNK        -0.5000 
     42 CA         -1.2974  -16.4740  -40.9258 C.3       6 UNK         0.1400 
     43 CB         -0.7878  -16.3134  -39.4860 C.3       6 UNK        -0.1800 
     44 N          -1.3919  -15.1553  -41.5552 N.am      6 UNK        -0.5000 
     45 C          -1.9385  -14.9221  -42.7576 C.2       5 UNK         0.5000 
     46 O          -2.4987  -15.7904  -43.4254 O.2       5 UNK        -0.5000 
     47 CA         -1.7743  -13.5013  -43.3343 C.3       5 UNK         0.1400 
     48 CB         -2.9964  -12.6335  -43.0042 C.3       5 UNK        -0.1800 
     49 N          -0.5579  -12.8411  -42.8481 N.am      5 UNK        -0.5000 
     50 C           0.6821  -13.1990  -43.2060 C.2       4 UNK         0.5000 
     51 O           0.9218  -14.0156  -44.1008 O.2       4 UNK        -0.5000 
     52 CA          1.8252  -12.6217  -42.3557 C.3       4 UNK         0.1400 
     53 CB          1.8153  -13.2940  -40.9635 C.3       4 UNK        -0.1800 
     54 N           3.1022  -12.8530  -43.0285 N.am      4 UNK        -0.5000 
     55 C           4.3026  -12.4162  -42.6217 C.2       3 UNK         0.5000 
     56 O           4.4812  -11.7244  -41.6185 O.2       3 UNK        -0.5000 
     57 CA          5.5118  -12.8028  -43.4945 C.3       3 UNK         0.1400 
     58 CB          5.7462  -14.3225  -43.4877 C.3       3 UNK        -0.1800 
     59 N           5.3569  -12.3404  -44.8712 N.am      3 UNK        -0.5000 
     60 C           5.4064  -11.0574  -45.2592 C.2       2 UNK         0.5000 
     61 O           5.7120  -10.1255  -44.5144 O.2       2 UNK        -0.5000 
     62 CA          5.0301  -10.7632  -46.7271 C.3       2 UNK         0.1400 
     63 CB          6.2888  -10.7132  -47.6067 C.3       2 UNK        -0.1800 
     64 N           4.0843  -11.7310  -47.2958 N.am      2 UNK        -0.5000 
     65 C           2.8430  -11.9398  -46.8341 C.2       1 UNK         0.5000 
     66 O           2.3545  -11.3011  -45.8975 O.2       1 UNK        -0.5000 
     67 C          -0.8251  -22.6543  -47.9060 C.2       11 UNK         0.5000 
     68 O          -0.6912  -23.6400  -48.6279 O.2       11 UNK        -0.5000 
     69 N          -2.0010  -22.0421  -47.7037 N.am      12 UNK        -0.5000 
     70 CA         -3.2856  -22.4848  -48.2482 C.3       12 UNK         0.1400 
     71 CB         -4.3670  -21.4413  -47.9295 C.3       12 UNK        -0.1800 
     72 C          -3.6992  -23.8754  -47.7420 C.2       12 UNK         0.5000 
     73 O          -4.1404  -24.7032  -48.5397 O.2       12 UNK        -0.5000 
     74 N          -3.5072  -24.1223  -46.4387 N.am      13 UNK        -0.5000 
     75 CA         -3.7323  -25.4200  -45.8032 C.3       13 UNK         0.1400 
     76 CB         -3.6514  -25.2689  -44.2767 C.3       13 UNK        -0.1800 
     77 C          -2.7582  -26.5026  -46.3051 C.2       13 UNK         0.5000 
     78 O          -3.1871  -27.6302  -46.5505 O.2       13 UNK        -0.5000 
     79 N          -1.4795  -26.1370  -46.4776 N.am      14 UNK        -0.5000 
     80 CA         -0.4292  -27.0038  -47.0165 C.3       14 UNK         0.1400 
     81 CB          0.9421  -26.3425  -46.8104 C.3       14 UNK        -0.1800 
     82 C          -0.6494  -27.3575  -48.4994 C.2       14 UNK         0.5000 
     83 O          -0.4783  -28.5168  -48.8787 O.2       14 UNK        -0.5000 
     84 N          -1.0461  -26.3615  -49.3040 N.am      15 UNK        -0.5000 
     85 CA         -1.4096  -26.5174  -50.7143 C.3       15 UNK         0.1400 
     86 CB         -1.4992  -25.1275  -51.3670 C.3       15 UNK        -0.1800 
     87 C          -2.7345  -27.2770  -50.9152 C.2       15 UNK         0.5000 
     88 O          -2.9230  -27.8901  -51.9665 O.2       15 UNK        -0.5000 
     89 N          -3.6211  -27.2016  -49.9116 N.am      16 UNK        -0.5000 
     90 CA         -4.9968  -27.7015  -49.8846 C.3       16 UNK         0.1400 
     91 CB         -5.0297  -29.2427  -49.9455 C.3       16 UNK        -0.1800 
     92 C          -5.8631  -27.0198  -50.9628 C.2       16 UNK         0.5000 
     93 O          -6.5913  -27.6922  -51.6961 O.2       16 UNK        -0.5000 
     94 N          -5.7419  -25.6899  -51.0525 N.am      17 UNK        -0.5000 
     95 CA         -6.4073  -24.8527  -52.0435 C.3       17 UNK         0.1400 
     96 CB         -5.4604  -24.6251  -53.2329 C.3       17 UNK        -0.1800 
     97 C          -6.8016  -23.5209  -51.3975 C.2       17 UNK         0.5000 
     98 O          -6.0478  -22.9995  -50.5716 O.2       17 UNK        -0.5000 
     99 N          -7.9611  -22.9861  -51.8036 N.am      18 UNK        -0.5000 
    100 CA        -8.5333  -21.7235  -51.3318 C.3       18 UNK         0.1400 
    101 CB        -9.8897  -21.4955  -52.0173 C.3       18 UNK        -0.1800 
    102 C         -7.5821  -20.5401  -51.5797 C.2       18 UNK         0.5000 
    103 O         -7.2904  -20.2235  -52.7356 O.2       18 UNK        -0.5000 
    104 N         -7.0656  -19.9640  -50.4842 N.am      19 UNK        -0.5000 
    105 CA        -6.0480  -18.9053  -50.4420 C.3       19 UNK         0.1400 
    106 CB        -6.6463  -17.5688  -50.9285 C.3       19 UNK        -0.1800 
    107 C         -4.7445  -19.2799  -51.1849 C.2       19 UNK         0.5000 
    108 O         -4.0843  -18.4017  -51.7369 O.2       19 UNK        -0.5000 
    109 N         -4.4333  -20.5864  -51.2254 N.am      20 UNK        -0.5000 
    110 CA        -3.3246  -21.2315  -51.9387 C.3       20 UNK         0.1400 
    111 CB        -1.9628  -20.7434  -51.4058 C.3       20 UNK        -0.1800 
    112 C         -3.4094  -21.1379  -53.4787 C.2       20 UNK         0.5000 
    113 O         -2.4557  -21.5319  -54.1511 O.2       20 UNK        -0.5000 
    114 N         -4.5410  -20.6466  -54.0113 N.am      21 UNK        -0.5000 
    115 CA        -4.8366  -20.4237  -55.4304 C.3       21 UNK         0.1400 
    116 CB        -5.0791  -21.7690  -56.1451 C.3       21 UNK        -0.1800 
    117 C         -3.7960  -19.5319  -56.1468 C.2       21 UNK         0.5000 
    118 O         -3.4148  -19.8210  -57.2833 O.2       21 UNK        -0.5000 
    119 N         -3.3416  -18.4744  -55.4590 N.am      22 UNK        -0.5000 
    120 CA        -2.3535  -17.4999  -55.9529 C.3       22 UNK         0.1400 
    121 C         -2.8087  -16.7586  -57.2429 C.2       22 UNK         0.5000 
    122 N         -1.9017  -16.5118  -58.1786 N.am      22 UNK        -0.7600 
    123 O         -3.9649  -16.3640  -57.3806 O.2       22 UNK        -0.5000 
    124 C124       -1.9670  -16.4615  -54.8685 C.3       23 UNK        -0.0398 
    125 S125       -1.3743  -17.2063  -53.3138 S.3       23 UNK        -0.2404 
    126 C126        0.4181  -17.2853  -53.5955 C.3       23 UNK        -0.0205 
    127 H127       -2.0116  -13.1773  -46.7823 H         1 UNK         0.0600 
    128 H128       -2.3662  -11.6546  -47.5932 H         1 UNK         0.0600 
    129 H129       -1.5957  -11.6406  -46.0045 H         1 UNK         0.0600 
    130 H130        0.4283  -13.5180  -46.2317 H         1 UNK         0.3000 
    131 H131        2.0979  -12.9282  -48.5822 H         1 UNK         0.0600 
    132 H132        3.7352  -14.4824  -47.4496 H         1 UNK         0.0800 
    133 H133        2.6384  -14.6544  -46.1062 H         1 UNK         0.0800 
    134 H134        3.2476  -15.3167  -49.9129 H         1 UNK         0.0800 
    135 H135        3.9186  -16.6169  -48.9510 H         1 UNK         0.0800 
    136 H136        1.6444  -15.7669  -51.6928 H         1 UNK         0.1150 
    137 H137        0.7624  -19.8322  -52.7085 H         1 UNK         0.1150 
    138 H138        2.9656  -18.9230  -49.1318 H         1 UNK         0.1150 
    139 H139        0.9075  -21.4944  -50.7753 H         1 UNK         0.0800 
    140 H140        2.5558  -21.5300  -51.3465 H         1 UNK         0.0800 
    141 H141        0.4121  -20.3475  -48.4467 H         1 UNK         0.0800 
    142 H142        1.5932  -20.2919  -47.1795 H         1 UNK         0.0800 
    143 H143        1.0951  -22.9486  -47.0356 H         1 UNK         0.0600 
    144 H144        0.1519  -20.7744  -45.4962 H         1 UNK         0.3000 
    145 H145       -1.3452  -22.8112  -42.9288 H         1 UNK         0.0600 
    146 H146        0.1990  -21.4042  -41.5919 H         1 UNK         0.0600 
    147 H147        1.0920  -22.6497  -42.4521 H         1 UNK         0.0600 
    148 H148        1.1181  -20.9916  -43.0369 H         1 UNK         0.0600 
    149 H149       -1.1826  -19.9856  -43.2055 H         1 UNK         0.3000 
    150 H150       -4.2496  -19.5482  -45.0325 H         1 UNK         0.0600 
    151 H151       -4.8457  -19.6832  -42.6235 H         1 UNK         0.0600 
    152 H152       -4.6084  -18.0111  -43.1111 H         1 UNK         0.0600 
    153 H153       -3.3639  -18.8450  -42.1839 H         1 UNK         0.0600 
    154 H154       -2.3589  -17.6293  -44.1731 H         1 UNK         0.3000 
    155 H155       -0.2051  -17.7525  -47.0406 H         1 UNK         0.0600 
    156 H156       -2.2555  -15.7297  -45.9820 H         1 UNK         0.0600 
    157 H157       -0.8085  -15.3184  -46.8936 H         1 UNK         0.0600 
    158 H158       -2.0725  -16.2760  -47.6400 H         1 UNK         0.0600 
    159 H159       -0.0903  -16.2273  -44.6251 H         1 UNK         0.3000 
    160 H160        1.8435  -18.5692  -42.7252 H         1 UNK         0.0600 
    161 H161        2.6242  -15.9187  -44.0433 H         1 UNK         0.0600 
    162 H162        3.5360  -17.4161  -44.0964 H         1 UNK         0.0600 
    163 H163        3.3351  -16.5708  -42.5688 H         1 UNK         0.0600 
    164 H164        0.8274  -15.9097  -42.2584 H         1 UNK         0.3000 
    165 H165       -2.2992  -16.9068  -40.8908 H         1 UNK         0.0600 
    166 H166       -1.4584  -15.6865  -38.8980 H         1 UNK         0.0600 
    167 H167       -0.7259  -17.2802  -38.9847 H         1 UNK         0.0600 
    168 H168        0.2056  -15.8638  -39.4561 H         1 UNK         0.0600 
    169 H169       -0.9752  -14.3839  -41.0574 H         1 UNK         0.3000 
    170 H170       -1.7063  -13.5988  -44.4184 H         1 UNK         0.0600 
    171 H171       -3.9130  -13.0939  -43.3757 H         1 UNK         0.0600 
    172 H172       -3.1124  -12.4907  -41.9291 H         1 UNK         0.0600 
    173 H173       -2.9174  -11.6501  -43.4680 H         1 UNK         0.0600 
    174 H174       -0.6807  -12.1504  -42.1213 H         1 UNK         0.3000 
    175 H175        1.6723  -11.5457  -42.2540 H         1 UNK         0.0600 
    176 H176        2.0294  -14.3612  -41.0320 H         1 UNK         0.0600 
    177 H177        2.5525  -12.8527  -40.2939 H         1 UNK         0.0600 
    178 H178        0.8498  -13.1819  -40.4697 H         1 UNK         0.0600 
    179 H179        3.0182  -13.3803  -43.8866 H         1 UNK         0.3000 
    180 H180        6.3971  -12.3257  -43.0684 H         1 UNK         0.0600 
    181 H181        4.9418  -14.8613  -43.9879 H         1 UNK         0.0600 
    182 H182        5.8143  -14.7039  -42.4681 H         1 UNK         0.0600 
    183 H183        6.6790  -14.5765  -43.9914 H         1 UNK         0.0600 
    184 H184        5.1227  -13.0360  -45.5618 H         1 UNK         0.3000 
    185 H185        4.5561   -9.7797  -46.7519 H         1 UNK         0.0600 
    186 H186        7.0034   -9.9829  -47.2247 H         1 UNK         0.0600 
    187 H187        6.7942  -11.6791  -47.6422 H         1 UNK         0.0600 
    188 H188        6.0454  -10.4224  -48.6288 H         1 UNK         0.0600 
    189 H189        4.4198  -12.2715  -48.0803 H         1 UNK         0.3000 
    190 H190       -2.0188  -21.1913  -47.1456 H         1 UNK         0.3000 
    191 H191       -3.1837  -22.5556  -49.3307 H         1 UNK         0.0600 
    192 H192       -4.5125  -21.3242  -46.8565 H         1 UNK         0.0600 
    193 H193       -5.3278  -21.7272  -48.3572 H         1 UNK         0.0600 
    194 H194       -4.1025  -20.4656  -48.3357 H         1 UNK         0.0600 
    195 H195       -3.1856  -23.3686  -45.8400 H         1 UNK         0.3000 
    196 H196       -4.7444  -25.7428  -46.0563 H         1 UNK         0.0600 
    197 H197       -3.8489  -26.2192  -43.7795 H         1 UNK         0.0600 
    198 H198       -4.3874  -24.5515  -43.9130 H         1 UNK         0.0600 
    199 H199       -2.6674  -24.9281  -43.9549 H         1 UNK         0.0600 
    200 H200       -1.1969  -25.2045  -46.1898 H         1 UNK         0.3000 
    201 H201       -0.4422  -27.9357  -46.4475 H         1 UNK         0.0600 
    202 H202        1.1298  -26.1442  -45.7550 H         1 UNK         0.0600 
    203 H203        1.0188  -25.3969  -47.3470 H         1 UNK         0.0600 
    204 H204        1.7445  -26.9886  -47.1683 H         1 UNK         0.0600 
    205 H205       -1.0846  -25.4149  -48.9311 H         1 UNK         0.3000 
    206 H206       -0.6199  -27.0831  -51.2126 H         1 UNK         0.0600 
    207 H207       -0.5500  -24.5959  -51.2973 H         1 UNK         0.0600 
    208 H208       -1.7518  -25.2052  -52.4253 H         1 UNK         0.0600 
    209 H209       -2.2633  -24.5109  -50.8919 H         1 UNK         0.0600 
    210 H210       -3.3761  -26.6058  -49.1301 H         1 UNK         0.3000 
    211 H211       -5.4111  -27.4009  -48.9211 H         1 UNK         0.0600 
    212 H212       -4.6769  -29.6216  -50.9049 H         1 UNK         0.0600 
    213 H213       -6.0440  -29.6159  -49.8003 H         1 UNK         0.0600 
    214 H214       -4.4081  -29.6788  -49.1632 H         1 UNK         0.0600 
    215 H215       -5.1822  -25.1930  -50.3649 H         1 UNK         0.3000 
    216 H216       -7.3161  -25.3439  -52.3979 H         1 UNK         0.0600 
    217 H217       -4.5297  -24.1496  -52.9223 H         1 UNK         0.0600 
    218 H218       -5.9243  -23.9863  -53.9841 H         1 UNK         0.0600 
    219 H219       -5.2058  -25.5672  -53.7187 H         1 UNK         0.0600 
    220 H220       -8.4935  -23.4694  -52.5121 H         1 UNK         0.3000 
    221 H221       -8.7091  -21.8199  -50.2584 H         1 UNK         0.0600 
    222 H222       -9.7893  -21.4382  -53.1020 H         1 UNK         0.0600 
    223 H223      -10.5892  -22.2992  -51.7867 H         1 UNK         0.0600 
    224 H224      -10.3447  -20.5631  -51.6804 H         1 UNK         0.0600 
    225 H225       -7.3471  -20.3253  -49.5834 H         1 UNK         0.3000 
    226 H226       -5.7729  -18.7823  -49.3936 H         1 UNK         0.0600 
    227 H227       -7.5571  -17.3226  -50.3828 H         1 UNK         0.0600 
    228 H228       -5.9464  -16.7465  -50.7753 H         1 UNK         0.0600 
    229 H229       -6.8893  -17.5977  -51.9911 H         1 UNK         0.0600 
    230 H230       -5.0809  -21.2362  -50.7892 H         1 UNK         0.3000 
    231 H231       -3.4048  -22.2935  -51.7054 H         1 UNK         0.0600 
    232 H232       -1.7586  -19.7142  -51.6993 H         1 UNK         0.0600 
    233 H233       -1.1561  -21.3602  -51.8005 H         1 UNK         0.0600 
    234 H234       -1.9098  -20.7924  -50.3194 H         1 UNK         0.0600 
    235 H235       -5.2825  -20.3729  -53.3756 H         1 UNK         0.3000 
    236 H236       -5.7743  -19.8669  -55.4589 H         1 UNK         0.0600 
    237 H237       -5.3711  -21.6161  -57.1846 H         1 UNK         0.0600 
    238 H238       -4.1872  -22.3963  -56.1427 H         1 UNK         0.0600 
    239 H239       -5.8849  -22.3249  -55.6673 H         1 UNK         0.0600 
    240 H240       -3.6764  -18.3259  -54.5171 H         1 UNK         0.3000 
    241 H241       -1.4570  -18.0723  -56.1986 H         1 UNK         0.0600 
    242 H242       -2.1810  -16.0179  -59.0124 H         1 UNK         0.3800 
    243 H243       -0.9458  -16.8201  -58.0862 H         1 UNK         0.3800 
    244 H244       -1.2025  -15.7791  -55.2442 H         1 UNK         0.0800 
    245 H245       -2.8291  -15.8385  -54.6232 H         1 UNK         0.0800 
    246 H246        0.7867  -16.3038  -53.8977 H         1 UNK         0.0800 
    247 H247        0.6277  -17.9665  -54.4215 H         1 UNK         0.0800 
@<TRIPOS>BOND
     1    1    2 1    
     2    1  127 1    
     3    1  128 1    
     4    1  129 1    
     5    2    3 2    
     6    2    4 am   BACKBONE|DICT|INTERRES
     7    4    5 1    
     8    4  130 1    
     9    5    6 1    
    10    5   65 1    
    11    5  131 1    
    12    6    7 1    
    13    6  132 1    
    14    6  133 1    
    15    7    8 1    
    16    8    9 1    
    17    8  134 1    
    18    8  135 1    
    19    9   10 ar   
    20    9   14 ar   
    21   10   11 ar   
    22   10  136 1    
    23   11   12 ar   
    24   11  126 1    
    25   12   13 ar   
    26   12  137 1    
    27   13   14 ar   
    28   13   15 1    
    29   14  138 1    
    30   15   16 1    
    31   15  139 1    
    32   15  140 1    
    33   16   17 1    
    34   17   18 1    
    35   17  141 1    
    36   17  142 1    
    37   18   19 1    
    38   18   67 1    
    39   18  143 1    
    40   19   20 am   BACKBONE|DICT|INTERRES
    41   19  144 1    
    42   20   21 2    
    43   20   22 1    
    44   22   23 1    
    45   22   24 1    
    46   22  145 1    
    47   23  146 1    
    48   23  147 1    
    49   23  148 1    
    50   24   25 am   BACKBONE|DICT|INTERRES
    51   24  149 1    
    52   25   26 2    
    53   25   27 1    
    54   27   28 1    
    55   27   29 1    
    56   27  150 1    
    57   28  151 1    
    58   28  152 1    
    59   28  153 1    
    60   29   30 am   BACKBONE|DICT|INTERRES
    61   29  154 1    
    62   30   31 2    
    63   30   32 1    
    64   32   33 1    
    65   32   34 1    
    66   32  155 1    
    67   33  156 1    
    68   33  157 1    
    69   33  158 1    
    70   34   35 am   BACKBONE|DICT|INTERRES
    71   34  159 1    
    72   35   36 2    
    73   35   37 1    
    74   37   38 1    
    75   37   39 1    
    76   37  160 1    
    77   38  161 1    
    78   38  162 1    
    79   38  163 1    
    80   39   40 am   BACKBONE|DICT|INTERRES
    81   39  164 1    
    82   40   41 2    
    83   40   42 1    
    84   42   43 1    
    85   42   44 1    
    86   42  165 1    
    87   43  166 1    
    88   43  167 1    
    89   43  168 1    
    90   44   45 am   BACKBONE|DICT|INTERRES
    91   44  169 1    
    92   45   46 2    
    93   45   47 1    
    94   47   48 1    
    95   47   49 1    
    96   47  170 1    
    97   48  171 1    
    98   48  172 1    
    99   48  173 1    
   100   49   50 am   BACKBONE|DICT|INTERRES
   101   49  174 1    
   102   50   51 2    
   103   50   52 1    
   104   52   53 1    
   105   52   54 1    
   106   52  175 1    
   107   53  176 1    
   108   53  177 1    
   109   53  178 1    
   110   54   55 am   BACKBONE|DICT|INTERRES
   111   54  179 1    
   112   55   56 2    
   113   55   57 1    
   114   57   58 1    
   115   57   59 1    
   116   57  180 1    
   117   58  181 1    
   118   58  182 1    
   119   58  183 1    
   120   59   60 am   BACKBONE|DICT|INTERRES
   121   59  184 1    
   122   60   61 2    
   123   60   62 1    
   124   62   63 1    
   125   62   64 1    
   126   62  185 1    
   127   63  186 1    
   128   63  187 1    
   129   63  188 1    
   130   64   65 am   BACKBONE|DICT|INTERRES
   131   64  189 1    
   132   65   66 2    
   133   67   68 2    
   134   67   69 am   BACKBONE|DICT|INTERRES
   135   69   70 1    
   136   69  190 1    
   137   70   71 1    
   138   70   72 1    
   139   70  191 1    
   140   71  192 1    
   141   71  193 1    
   142   71  194 1    
   143   72   73 2    
   144   72   74 am   BACKBONE|DICT|INTERRES
   145   74   75 1    
   146   74  195 1    
   147   75   76 1    
   148   75   77 1    
   149   75  196 1    
   150   76  197 1    
   151   76  198 1    
   152   76  199 1    
   153   77   78 2    
   154   77   79 am   BACKBONE|DICT|INTERRES
   155   79   80 1    
   156   79  200 1    
   157   80   81 1    
   158   80   82 1    
   159   80  201 1    
   160   81  202 1    
   161   81  203 1    
   162   81  204 1    
   163   82   83 2    
   164   82   84 am   BACKBONE|DICT|INTERRES
   165   84   85 1    
   166   84  205 1    
   167   85   86 1    
   168   85   87 1    
   169   85  206 1    
   170   86  207 1    
   171   86  208 1    
   172   86  209 1    
   173   87   88 2    
   174   87   89 am   BACKBONE|DICT|INTERRES
   175   89   90 1    
   176   89  210 1    
   177   90   91 1    
   178   90   92 1    
   179   90  211 1    
   180   91  212 1    
   181   91  213 1    
   182   91  214 1    
   183   92   93 2    
   184   92   94 am   BACKBONE|DICT|INTERRES
   185   94   95 1    
   186   94  215 1    
   187   95   96 1    
   188   95   97 1    
   189   95  216 1    
   190   96  217 1    
   191   96  218 1    
   192   96  219 1    
   193   97   98 2    
   194   97   99 am   BACKBONE|DICT|INTERRES
   195   99  100 1    
   196   99  220 1    
   197  100  101 1    
   198  100  102 1    
   199  100  221 1    
   200  101  222 1    
   201  101  223 1    
   202  101  224 1    
   203  102  103 2    
   204  102  104 am   BACKBONE|DICT|INTERRES
   205  104  105 1    
   206  104  225 1    
   207  105  106 1    
   208  105  107 1    
   209  105  226 1    
   210  106  227 1    
   211  106  228 1    
   212  106  229 1    
   213  107  108 2    
   214  107  109 am   BACKBONE|DICT|INTERRES
   215  109  110 1    
   216  109  230 1    
   217  110  111 1    
   218  110  112 1    
   219  110  231 1    
   220  111  232 1    
   221  111  233 1    
   222  111  234 1    
   223  112  113 2    
   224  112  114 am   BACKBONE|DICT|INTERRES
   225  114  115 1    
   226  114  235 1    
   227  115  116 1    
   228  115  117 1    
   229  115  236 1    
   230  116  237 1    
   231  116  238 1    
   232  116  239 1    
   233  117  118 2    
   234  117  119 am   BACKBONE|DICT|INTERRES
   235  119  120 1    
   236  119  240 1    
   237  120  121 1    
   238  120  124 1    
   239  120  241 1    
   240  121  122 am   BACKBONE|DICT|INTERRES
   241  121  123 2    
   242  122  242 1    
   243  122  243 1    
   244  124  125 1    
   245  124  244 1    
   246  124  245 1    
   247  125  126 1    
   248  126  246 1    
   249  126  247 1    
@<TRIPOS>SUBSTRUCTURE
     1 UNK         1 GROUP             0       ****    0 ROOT    
