@<TRIPOS>MOLECULE
3R540
247   249    1
SMALL
USER_CHARGES


@<TRIPOS>ATOM
      1 CA          0.0283  -13.4065  -43.9561 C.3       0 UNK        -0.1800 
      2 C          -0.7054  -12.8262  -45.1542 C.2       0 UNK         0.5000 
      3 O          -0.2720  -12.9992  -46.2905 O.2       0 UNK        -0.5000 
      4 N          -1.8318  -12.1573  -44.8872 N.am      1 UNK        -0.5000 
      5 CA         -2.7777  -11.5938  -45.8604 C.3       1 UNK         0.1400 
      6 C6         -3.5735  -12.7054  -46.6074 C.3       23 UNK        -0.0398 
      7 S7         -4.3865  -13.9069  -45.4936 S.3       23 UNK        -0.2404 
      8 C8         -3.3205  -15.3767  -45.6711 C.3       23 UNK        -0.0205 
      9 C9         -3.7023  -16.2262  -46.8726 C.ar      23 UNK        -0.0193 
     10 C10        -3.1451  -15.9767  -48.1299 C.ar      23 UNK        -0.1150 
     11 C11        -3.5189  -16.7437  -49.2369 C.ar      23 UNK        -0.0193 
     12 C12        -4.4359  -17.7852  -49.0746 C.ar      23 UNK        -0.1150 
     13 C13        -4.9676  -18.0717  -47.8134 C.ar      23 UNK        -0.0193 
     14 C14        -4.6056  -17.2806  -46.7197 C.ar      23 UNK        -0.1150 
     15 C15        -5.9179  -19.2453  -47.6189 C.3       23 UNK        -0.0205 
     16 S16        -5.1290  -20.8561  -47.9466 S.3       23 UNK        -0.2404 
     17 C17        -3.5308  -20.6936  -47.0781 C.3       23 UNK        -0.0398 
     18 CA         -2.7933  -22.0467  -46.9775 C.3       11 UNK         0.1400 
     19 N          -1.3377  -21.8943  -46.9239 N.am      11 UNK        -0.5000 
     20 C          -0.4749  -22.9059  -47.0956 C.2       10 UNK         0.5000 
     21 O          -0.8211  -24.0578  -47.3524 O.2       10 UNK        -0.5000 
     22 CA          1.0196  -22.6010  -46.9035 C.3       10 UNK         0.1400 
     23 CB          1.6198  -21.9752  -48.1695 C.3       10 UNK        -0.1800 
     24 N           1.2721  -21.7396  -45.7496 N.am      10 UNK        -0.5000 
     25 C           1.0204  -22.0915  -44.4803 C.2       9 UNK         0.5000 
     26 O           0.5813  -23.1938  -44.1518 O.2       9 UNK        -0.5000 
     27 CA          1.2530  -21.0194  -43.4012 C.3       9 UNK         0.1400 
     28 CB          2.7469  -20.8921  -43.0693 C.3       9 UNK        -0.1800 
     29 N           0.7205  -19.7106  -43.7797 N.am      9 UNK        -0.5000 
     30 C          -0.5733  -19.4535  -44.0208 C.2       8 UNK         0.5000 
     31 O          -1.4707  -20.2899  -43.9283 O.2       8 UNK        -0.5000 
     32 CA         -0.9162  -18.0323  -44.4951 C.3       8 UNK         0.1400 
     33 CB         -0.9357  -17.0507  -43.3134 C.3       8 UNK        -0.1800 
     34 N           0.0087  -17.5582  -45.5235 N.am      8 UNK        -0.5000 
     35 C           0.1357  -18.1119  -46.7384 C.2       7 UNK         0.5000 
     36 O          -0.5348  -19.0655  -47.1339 O.2       7 UNK        -0.5000 
     37 CA          1.2465  -17.5378  -47.6318 C.3       7 UNK         0.1400 
     38 CB          0.8020  -16.2120  -48.2685 C.3       7 UNK        -0.1800 
     39 N           2.4920  -17.3378  -46.8871 N.am      7 UNK        -0.5000 
     40 C           3.2551  -18.3364  -46.4159 C.2       6 UNK         0.5000 
     41 O           2.9938  -19.5267  -46.5815 O.2       6 UNK        -0.5000 
     42 CA          4.5003  -17.9564  -45.5893 C.3       6 UNK         0.1400 
     43 CB          5.7137  -17.7553  -46.5088 C.3       6 UNK        -0.1800 
     44 N           4.3185  -16.7609  -44.7670 N.am      6 UNK        -0.5000 
     45 C           3.3912  -16.6170  -43.8113 C.2       5 UNK         0.5000 
     46 O           2.6206  -17.5142  -43.4683 O.2       5 UNK        -0.5000 
     47 CA          3.2681  -15.2268  -43.1571 C.3       5 UNK         0.1400 
     48 CB          4.0903  -15.1762  -41.8613 C.3       5 UNK        -0.1800 
     49 N           3.6385  -14.0787  -43.9977 N.am      5 UNK        -0.5000 
     50 C           3.2361  -13.8144  -45.2493 C.2       4 UNK         0.5000 
     51 O           2.5732  -14.5971  -45.9302 O.2       4 UNK        -0.5000 
     52 CA          3.6270  -12.4321  -45.8142 C.3       4 UNK         0.1400 
     53 CB          3.3071  -12.3003  -47.3138 C.3       4 UNK        -0.1800 
     54 N           2.9637  -11.3379  -45.1008 N.am      4 UNK        -0.5000 
     55 C           3.2680  -10.8852  -43.8793 C.2       3 UNK         0.5000 
     56 O           4.1770  -11.3616  -43.1973 O.2       3 UNK        -0.5000 
     57 CA          2.4290   -9.7258  -43.2955 C.3       3 UNK         0.1400 
     58 CB          3.1576   -8.3814  -43.4845 C.3       3 UNK        -0.1800 
     59 N           1.0269   -9.6294  -43.7410 N.am      3 UNK        -0.5000 
     60 C           0.5494   -9.3493  -44.9613 C.2       2 UNK         0.5000 
     61 O           1.2569   -9.2140  -45.9623 O.2       2 UNK        -0.5000 
     62 CA         -0.9752   -9.1714  -45.0781 C.3       2 UNK         0.1400 
     63 CB         -1.3470   -7.6978  -44.8528 C.3       2 UNK        -0.1800 
     64 N          -1.3900   -9.5504  -46.4278 N.am      2 UNK        -0.5000 
     65 C          -2.1357  -10.5814  -46.8547 C.2       1 UNK         0.5000 
     66 O          -2.3232  -10.7324  -48.0622 O.2       1 UNK        -0.5000 
     67 C          -3.3319  -22.9163  -45.8254 C.2       11 UNK         0.5000 
     68 O          -4.1725  -23.7791  -46.0698 O.2       11 UNK        -0.5000 
     69 N          -2.8107  -22.7238  -44.6061 N.am      12 UNK        -0.5000 
     70 CA         -3.1452  -23.5386  -43.4362 C.3       12 UNK         0.1400 
     71 CB         -2.4986  -22.9291  -42.1831 C.3       12 UNK        -0.1800 
     72 C          -2.7413  -25.0176  -43.5958 C.2       12 UNK         0.5000 
     73 O          -3.4743  -25.8978  -43.1430 O.2       12 UNK        -0.5000 
     74 N          -1.5946  -25.2610  -44.2433 N.am      13 UNK        -0.5000 
     75 CA         -1.0745  -26.5937  -44.5295 C.3       13 UNK         0.1400 
     76 CB          0.4325  -26.4998  -44.8195 C.3       13 UNK        -0.1800 
     77 C          -1.8138  -27.2898  -45.6871 C.2       13 UNK         0.5000 
     78 O          -2.2792  -28.4175  -45.5151 O.2       13 UNK        -0.5000 
     79 N          -1.8685  -26.6338  -46.8536 N.am      14 UNK        -0.5000 
     80 CA         -2.2730  -27.2554  -48.1165 C.3       14 UNK         0.1400 
     81 CB         -1.4076  -26.6754  -49.2477 C.3       14 UNK        -0.1800 
     82 C          -3.7598  -27.0767  -48.4641 C.2       14 UNK         0.5000 
     83 O          -4.2729  -27.8637  -49.2615 O.2       14 UNK        -0.5000 
     84 N          -4.4117  -26.0434  -47.9077 N.am      15 UNK        -0.5000 
     85 CA         -5.7260  -25.5205  -48.3088 C.3       15 UNK         0.1400 
     86 CB         -6.8418  -26.5577  -48.0516 C.3       15 UNK        -0.1800 
     87 C          -5.7114  -24.9820  -49.7585 C.2       15 UNK         0.5000 
     88 O          -4.6356  -24.7333  -50.3085 O.2       15 UNK        -0.5000 
     89 N          -6.9014  -24.7826  -50.3457 N.am      16 UNK        -0.5000 
     90 CA         -7.1438  -24.4394  -51.7554 C.3       16 UNK         0.1400 
     91 CB         -6.9030  -25.6827  -52.6367 C.3       16 UNK        -0.1800 
     92 C          -6.3635  -23.2016  -52.2528 C.2       16 UNK         0.5000 
     93 O          -5.7867  -23.2305  -53.3409 O.2       16 UNK        -0.5000 
     94 N          -6.3301  -22.1482  -51.4231 N.am      17 UNK        -0.5000 
     95 CA         -5.6073  -20.8885  -51.6436 C.3       17 UNK         0.1400 
     96 CB         -6.2408  -20.1008  -52.8064 C.3       17 UNK        -0.1800 
     97 C          -4.0831  -21.1051  -51.7956 C.2       17 UNK         0.5000 
     98 O          -3.4626  -20.5877  -52.7313 O.2       17 UNK        -0.5000 
     99 N          -3.5399  -21.9167  -50.8745 N.am      18 UNK        -0.5000 
    100 CA        -2.1637  -22.4158  -50.8055 C.3       18 UNK         0.1400 
    101 CB        -1.1669  -21.2571  -50.5990 C.3       18 UNK        -0.1800 
    102 C         -1.8205  -23.3083  -52.0113 C.2       18 UNK         0.5000 
    103 O         -0.7752  -23.1292  -52.6320 O.2       18 UNK        -0.5000 
    104 N         -2.7378  -24.2245  -52.3549 N.am      19 UNK        -0.5000 
    105 CA        -2.7260  -25.0707  -53.5561 C.3       19 UNK         0.1400 
    106 CB        -1.6491  -26.1677  -53.4356 C.3       19 UNK        -0.1800 
    107 C         -2.6059  -24.2410  -54.8552 C.2       19 UNK         0.5000 
    108 O         -1.8465  -24.5944  -55.7590 O.2       19 UNK        -0.5000 
    109 N         -3.3408  -23.1209  -54.8851 N.am      20 UNK        -0.5000 
    110 CA        -3.3628  -22.0719  -55.9052 C.3       20 UNK         0.1400 
    111 CB        -3.9056  -22.6212  -57.2409 C.3       20 UNK        -0.1800 
    112 C         -2.0328  -21.3012  -56.0755 C.2       20 UNK         0.5000 
    113 O         -1.8676  -20.6200  -57.0894 O.2       20 UNK        -0.5000 
    114 N         -1.1128  -21.3809  -55.0990 N.am      21 UNK        -0.5000 
    115 CA         0.1544  -20.6400  -55.1143 C.3       21 UNK         0.1400 
    116 CB         1.1418  -21.2385  -54.1025 C.3       21 UNK        -0.1800 
    117 C         -0.0252  -19.1338  -54.8529 C.2       21 UNK         0.5000 
    118 O          0.7983  -18.3462  -55.3221 O.2       21 UNK        -0.5000 
    119 N         -1.0915  -18.7572  -54.1361 N.am      22 UNK        -0.5000 
    120 CA        -1.4904  -17.3580  -53.9226 C.3       22 UNK         0.1400 
    121 C         -3.0005  -17.0905  -54.1635 C.2       22 UNK         0.5000 
    122 N         -3.8659  -18.0958  -54.1901 N.am      22 UNK        -0.7600 
    123 O         -3.3938  -15.9447  -54.3639 O.2       22 UNK        -0.5000 
    124 C124       -0.9788  -16.7847  -52.5760 C.3       23 UNK        -0.0398 
    125 S125       -1.6435  -17.6072  -51.0848 S.3       23 UNK        -0.2404 
    126 C126       -2.9488  -16.4321  -50.6104 C.3       23 UNK        -0.0205 
    127 H127        0.8717  -12.7746  -43.6837 H         1 UNK         0.0600 
    128 H128        0.4017  -14.3995  -44.2014 H         1 UNK         0.0600 
    129 H129       -0.6245  -13.4983  -43.0879 H         1 UNK         0.0600 
    130 H130       -2.1267  -12.0777  -43.9244 H         1 UNK         0.3000 
    131 H131       -3.4982  -11.0168  -45.2790 H         1 UNK         0.0600 
    132 H132       -4.3556  -12.2581  -47.2231 H         1 UNK         0.0800 
    133 H133       -2.9180  -13.2348  -47.2973 H         1 UNK         0.0800 
    134 H134       -2.2723  -15.0887  -45.7401 H         1 UNK         0.0800 
    135 H135       -3.4112  -15.9712  -44.7614 H         1 UNK         0.0800 
    136 H136       -2.4250  -15.1810  -48.2525 H         1 UNK         0.1150 
    137 H137       -4.7150  -18.3854  -49.9275 H         1 UNK         0.1150 
    138 H138       -5.0221  -17.4886  -45.7441 H         1 UNK         0.1150 
    139 H139       -6.3162  -19.2543  -46.6032 H         1 UNK         0.0800 
    140 H140       -6.7754  -19.1276  -48.2826 H         1 UNK         0.0800 
    141 H141       -2.9318  -19.9917  -47.6596 H         1 UNK         0.0800 
    142 H142       -3.6711  -20.2334  -46.0980 H         1 UNK         0.0800 
    143 H143       -2.9987  -22.6000  -47.8949 H         1 UNK         0.0600 
    144 H144       -0.9795  -20.9581  -46.7569 H         1 UNK         0.3000 
    145 H145        1.5289  -23.5505  -46.7258 H         1 UNK         0.0600 
    146 H146        2.6951  -21.8309  -48.0647 H         1 UNK         0.0600 
    147 H147        1.4651  -22.6220  -49.0337 H         1 UNK         0.0600 
    148 H148        1.1723  -21.0056  -48.3915 H         1 UNK         0.0600 
    149 H149        1.6743  -20.8274  -45.9445 H         1 UNK         0.3000 
    150 H150        0.7303  -21.3395  -42.4975 H         1 UNK         0.0600 
    151 H151        2.9123  -20.1780  -42.2624 H         1 UNK         0.0600 
    152 H152        3.1581  -21.8496  -42.7473 H         1 UNK         0.0600 
    153 H153        3.3237  -20.5603  -43.9326 H         1 UNK         0.0600 
    154 H154        1.3898  -18.9481  -43.8432 H         1 UNK         0.3000 
    155 H155       -1.9161  -18.0625  -44.9331 H         1 UNK         0.0600 
    156 H156        0.0463  -16.9504  -42.8507 H         1 UNK         0.0600 
    157 H157       -1.6280  -17.3875  -42.5408 H         1 UNK         0.0600 
    158 H158       -1.2604  -16.0597  -43.6251 H         1 UNK         0.0600 
    159 H159        0.6394  -16.8122  -45.2699 H         1 UNK         0.3000 
    160 H160        1.4368  -18.2538  -48.4342 H         1 UNK         0.0600 
    161 H161        0.5847  -15.4523  -47.5168 H         1 UNK         0.0600 
    162 H162       -0.1033  -16.3494  -48.8594 H         1 UNK         0.0600 
    163 H163        1.5690  -15.8153  -48.9334 H         1 UNK         0.0600 
    164 H164        2.7262  -16.3775  -46.6482 H         1 UNK         0.3000 
    165 H165        4.7165  -18.7887  -44.9170 H         1 UNK         0.0600 
    166 H166        6.6210  -17.5749  -45.9320 H         1 UNK         0.0600 
    167 H167        5.8901  -18.6407  -47.1213 H         1 UNK         0.0600 
    168 H168        5.5705  -16.9113  -47.1848 H         1 UNK         0.0600 
    169 H169        4.8940  -15.9631  -44.9917 H         1 UNK         0.3000 
    170 H170        2.2192  -15.0996  -42.8878 H         1 UNK         0.0600 
    171 H171        3.8232  -15.9969  -41.1939 H         1 UNK         0.0600 
    172 H172        5.1598  -15.2500  -42.0623 H         1 UNK         0.0600 
    173 H173        3.9141  -14.2475  -41.3181 H         1 UNK         0.0600 
    174 H174        4.1376  -13.3320  -43.5244 H         1 UNK         0.3000 
    175 H175        4.7068  -12.3236  -45.6939 H         1 UNK         0.0600 
    176 H176        2.2351  -12.3734  -47.5034 H         1 UNK         0.0600 
    177 H177        3.6515  -11.3441  -47.7080 H         1 UNK         0.0600 
    178 H178        3.7975  -13.0857  -47.8904 H         1 UNK         0.0600 
    179 H179        2.2301  -10.8491  -45.6038 H         1 UNK         0.3000 
    180 H180        2.3744   -9.9124  -42.2217 H         1 UNK         0.0600 
    181 H181        3.2724   -8.1246  -44.5380 H         1 UNK         0.0600 
    182 H182        4.1569   -8.4150  -43.0485 H         1 UNK         0.0600 
    183 H183        2.6190   -7.5686  -42.9973 H         1 UNK         0.0600 
    184 H184        0.3536   -9.7383  -42.9951 H         1 UNK         0.3000 
    185 H185       -1.4782   -9.7545  -44.3095 H         1 UNK         0.0600 
    186 H186       -1.0569   -7.3684  -43.8541 H         1 UNK         0.0600 
    187 H187       -0.8538   -7.0409  -45.5708 H         1 UNK         0.0600 
    188 H188       -2.4225   -7.5448  -44.9447 H         1 UNK         0.0600 
    189 H189       -0.9451   -8.9931  -47.1426 H         1 UNK         0.3000 
    190 H190       -2.1533  -21.9615  -44.4585 H         1 UNK         0.3000 
    191 H191       -4.2291  -23.5053  -43.3079 H         1 UNK         0.0600 
    192 H192       -2.8464  -21.9095  -42.0167 H         1 UNK         0.0600 
    193 H193       -2.7485  -23.5077  -41.2930 H         1 UNK         0.0600 
    194 H194       -1.4116  -22.9022  -42.2636 H         1 UNK         0.0600 
    195 H195       -1.0210  -24.4749  -44.5289 H         1 UNK         0.3000 
    196 H196       -1.2000  -27.2106  -43.6369 H         1 UNK         0.0600 
    197 H197        0.8513  -27.4826  -45.0391 H         1 UNK         0.0600 
    198 H198        0.9727  -26.1002  -43.9609 H         1 UNK         0.0600 
    199 H199        0.6424  -25.8538  -45.6726 H         1 UNK         0.0600 
    200 H200       -1.4755  -25.6962  -46.9213 H         1 UNK         0.3000 
    201 H201       -2.0750  -28.3286  -48.0714 H         1 UNK         0.0600 
    202 H202       -0.3446  -26.7790  -49.0294 H         1 UNK         0.0600 
    203 H203       -1.6162  -25.6178  -49.4137 H         1 UNK         0.0600 
    204 H204       -1.5990  -27.1957  -50.1863 H         1 UNK         0.0600 
    205 H205       -3.9108  -25.4535  -47.2529 H         1 UNK         0.3000 
    206 H206       -5.9285  -24.6603  -47.6719 H         1 UNK         0.0600 
    207 H207       -6.7501  -26.9925  -47.0561 H         1 UNK         0.0600 
    208 H208       -7.8295  -26.0997  -48.1071 H         1 UNK         0.0600 
    209 H209       -6.8179  -27.3731  -48.7751 H         1 UNK         0.0600 
    210 H210       -7.7313  -24.9735  -49.8020 H         1 UNK         0.3000 
    211 H211       -8.2001  -24.1791  -51.8356 H         1 UNK         0.0600 
    212 H212       -5.8626  -26.0061  -52.6004 H         1 UNK         0.0600 
    213 H213       -7.1510  -25.4834  -53.6800 H         1 UNK         0.0600 
    214 H214       -7.5221  -26.5193  -52.3129 H         1 UNK         0.0600 
    215 H215       -6.8149  -22.2294  -50.5405 H         1 UNK         0.3000 
    216 H216       -5.7517  -20.2955  -50.7419 H         1 UNK         0.0600 
    217 H217       -5.9863  -20.5261  -53.7779 H         1 UNK         0.0600 
    218 H218       -5.9055  -19.0652  -52.7911 H         1 UNK         0.0600 
    219 H219       -7.3275  -20.0815  -52.7247 H         1 UNK         0.0600 
    220 H220       -4.1728  -22.3308  -50.2046 H         1 UNK         0.3000 
    221 H221       -2.1039  -23.0657  -49.9329 H         1 UNK         0.0600 
    222 H222       -1.1457  -20.5821  -51.4541 H         1 UNK         0.0600 
    223 H223       -1.4166  -20.6703  -49.7148 H         1 UNK         0.0600 
    224 H224       -0.1541  -21.6344  -50.4665 H         1 UNK         0.0600 
    225 H225       -3.5492  -24.3278  -51.7480 H         1 UNK         0.3000 
    226 H226       -3.6981  -25.5628  -53.5977 H         1 UNK         0.0600 
    227 H227       -1.7931  -26.7603  -52.5332 H         1 UNK         0.0600 
    228 H228       -1.6930  -26.8539  -54.2820 H         1 UNK         0.0600 
    229 H229       -0.6434  -25.7475  -53.4057 H         1 UNK         0.0600 
    230 H230       -3.9778  -22.9679  -54.1083 H         1 UNK         0.3000 
    231 H231       -4.0808  -21.3349  -55.5428 H         1 UNK         0.0600 
    232 H232       -3.2062  -23.3150  -57.7078 H         1 UNK         0.0600 
    233 H233       -4.0886  -21.8149  -57.9520 H         1 UNK         0.0600 
    234 H234       -4.8517  -23.1431  -57.0964 H         1 UNK         0.0600 
    235 H235       -1.2832  -21.9747  -54.2945 H         1 UNK         0.3000 
    236 H236        0.5950  -20.7504  -56.1074 H         1 UNK         0.0600 
    237 H237        1.2805  -22.3071  -54.2673 H         1 UNK         0.0600 
    238 H238        2.1211  -20.7668  -54.1909 H         1 UNK         0.0600 
    239 H239        0.8046  -21.0924  -53.0760 H         1 UNK         0.0600 
    240 H240       -1.7091  -19.4641  -53.7598 H         1 UNK         0.3000 
    241 H241       -1.0139  -16.7588  -54.7010 H         1 UNK         0.0600 
    242 H242       -4.8314  -17.8872  -54.3837 H         1 UNK         0.3800 
    243 H243       -3.6091  -19.0282  -53.8878 H         1 UNK         0.3800 
    244 H244        0.1073  -16.8769  -52.5405 H         1 UNK         0.0800 
    245 H245       -1.1750  -15.7127  -52.5246 H         1 UNK         0.0800 
    246 H246       -3.7496  -16.4594  -51.3505 H         1 UNK         0.0800 
    247 H247       -2.5495  -15.4169  -50.6250 H         1 UNK         0.0800 
@<TRIPOS>BOND
     1    1    2 1    
     2    1  127 1    
     3    1  128 1    
     4    1  129 1    
     5    2    3 2    
     6    2    4 am   BACKBONE|DICT|INTERRES
     7    4    5 1    
     8    4  130 1    
     9    5    6 1    
    10    5   65 1    
    11    5  131 1    
    12    6    7 1    
    13    6  132 1    
    14    6  133 1    
    15    7    8 1    
    16    8    9 1    
    17    8  134 1    
    18    8  135 1    
    19    9   10 ar   
    20    9   14 ar   
    21   10   11 ar   
    22   10  136 1    
    23   11   12 ar   
    24   11  126 1    
    25   12   13 ar   
    26   12  137 1    
    27   13   14 ar   
    28   13   15 1    
    29   14  138 1    
    30   15   16 1    
    31   15  139 1    
    32   15  140 1    
    33   16   17 1    
    34   17   18 1    
    35   17  141 1    
    36   17  142 1    
    37   18   19 1    
    38   18   67 1    
    39   18  143 1    
    40   19   20 am   BACKBONE|DICT|INTERRES
    41   19  144 1    
    42   20   21 2    
    43   20   22 1    
    44   22   23 1    
    45   22   24 1    
    46   22  145 1    
    47   23  146 1    
    48   23  147 1    
    49   23  148 1    
    50   24   25 am   BACKBONE|DICT|INTERRES
    51   24  149 1    
    52   25   26 2    
    53   25   27 1    
    54   27   28 1    
    55   27   29 1    
    56   27  150 1    
    57   28  151 1    
    58   28  152 1    
    59   28  153 1    
    60   29   30 am   BACKBONE|DICT|INTERRES
    61   29  154 1    
    62   30   31 2    
    63   30   32 1    
    64   32   33 1    
    65   32   34 1    
    66   32  155 1    
    67   33  156 1    
    68   33  157 1    
    69   33  158 1    
    70   34   35 am   BACKBONE|DICT|INTERRES
    71   34  159 1    
    72   35   36 2    
    73   35   37 1    
    74   37   38 1    
    75   37   39 1    
    76   37  160 1    
    77   38  161 1    
    78   38  162 1    
    79   38  163 1    
    80   39   40 am   BACKBONE|DICT|INTERRES
    81   39  164 1    
    82   40   41 2    
    83   40   42 1    
    84   42   43 1    
    85   42   44 1    
    86   42  165 1    
    87   43  166 1    
    88   43  167 1    
    89   43  168 1    
    90   44   45 am   BACKBONE|DICT|INTERRES
    91   44  169 1    
    92   45   46 2    
    93   45   47 1    
    94   47   48 1    
    95   47   49 1    
    96   47  170 1    
    97   48  171 1    
    98   48  172 1    
    99   48  173 1    
   100   49   50 am   BACKBONE|DICT|INTERRES
   101   49  174 1    
   102   50   51 2    
   103   50   52 1    
   104   52   53 1    
   105   52   54 1    
   106   52  175 1    
   107   53  176 1    
   108   53  177 1    
   109   53  178 1    
   110   54   55 am   BACKBONE|DICT|INTERRES
   111   54  179 1    
   112   55   56 2    
   113   55   57 1    
   114   57   58 1    
   115   57   59 1    
   116   57  180 1    
   117   58  181 1    
   118   58  182 1    
   119   58  183 1    
   120   59   60 am   BACKBONE|DICT|INTERRES
   121   59  184 1    
   122   60   61 2    
   123   60   62 1    
   124   62   63 1    
   125   62   64 1    
   126   62  185 1    
   127   63  186 1    
   128   63  187 1    
   129   63  188 1    
   130   64   65 am   BACKBONE|DICT|INTERRES
   131   64  189 1    
   132   65   66 2    
   133   67   68 2    
   134   67   69 am   BACKBONE|DICT|INTERRES
   135   69   70 1    
   136   69  190 1    
   137   70   71 1    
   138   70   72 1    
   139   70  191 1    
   140   71  192 1    
   141   71  193 1    
   142   71  194 1    
   143   72   73 2    
   144   72   74 am   BACKBONE|DICT|INTERRES
   145   74   75 1    
   146   74  195 1    
   147   75   76 1    
   148   75   77 1    
   149   75  196 1    
   150   76  197 1    
   151   76  198 1    
   152   76  199 1    
   153   77   78 2    
   154   77   79 am   BACKBONE|DICT|INTERRES
   155   79   80 1    
   156   79  200 1    
   157   80   81 1    
   158   80   82 1    
   159   80  201 1    
   160   81  202 1    
   161   81  203 1    
   162   81  204 1    
   163   82   83 2    
   164   82   84 am   BACKBONE|DICT|INTERRES
   165   84   85 1    
   166   84  205 1    
   167   85   86 1    
   168   85   87 1    
   169   85  206 1    
   170   86  207 1    
   171   86  208 1    
   172   86  209 1    
   173   87   88 2    
   174   87   89 am   BACKBONE|DICT|INTERRES
   175   89   90 1    
   176   89  210 1    
   177   90   91 1    
   178   90   92 1    
   179   90  211 1    
   180   91  212 1    
   181   91  213 1    
   182   91  214 1    
   183   92   93 2    
   184   92   94 am   BACKBONE|DICT|INTERRES
   185   94   95 1    
   186   94  215 1    
   187   95   96 1    
   188   95   97 1    
   189   95  216 1    
   190   96  217 1    
   191   96  218 1    
   192   96  219 1    
   193   97   98 2    
   194   97   99 am   BACKBONE|DICT|INTERRES
   195   99  100 1    
   196   99  220 1    
   197  100  101 1    
   198  100  102 1    
   199  100  221 1    
   200  101  222 1    
   201  101  223 1    
   202  101  224 1    
   203  102  103 2    
   204  102  104 am   BACKBONE|DICT|INTERRES
   205  104  105 1    
   206  104  225 1    
   207  105  106 1    
   208  105  107 1    
   209  105  226 1    
   210  106  227 1    
   211  106  228 1    
   212  106  229 1    
   213  107  108 2    
   214  107  109 am   BACKBONE|DICT|INTERRES
   215  109  110 1    
   216  109  230 1    
   217  110  111 1    
   218  110  112 1    
   219  110  231 1    
   220  111  232 1    
   221  111  233 1    
   222  111  234 1    
   223  112  113 2    
   224  112  114 am   BACKBONE|DICT|INTERRES
   225  114  115 1    
   226  114  235 1    
   227  115  116 1    
   228  115  117 1    
   229  115  236 1    
   230  116  237 1    
   231  116  238 1    
   232  116  239 1    
   233  117  118 2    
   234  117  119 am   BACKBONE|DICT|INTERRES
   235  119  120 1    
   236  119  240 1    
   237  120  121 1    
   238  120  124 1    
   239  120  241 1    
   240  121  122 am   BACKBONE|DICT|INTERRES
   241  121  123 2    
   242  122  242 1    
   243  122  243 1    
   244  124  125 1    
   245  124  244 1    
   246  124  245 1    
   247  125  126 1    
   248  126  246 1    
   249  126  247 1    
@<TRIPOS>SUBSTRUCTURE
     1 UNK         1 GROUP             0       ****    0 ROOT    
