@<TRIPOS>MOLECULE
3R540
247   249    1
SMALL
USER_CHARGES


@<TRIPOS>ATOM
      1 CA         -2.1151  -12.0687  -47.6665 C.3       0 UNK        -0.1800 
      2 C          -0.7327  -12.4332  -47.1452 C.2       0 UNK         0.5000 
      3 O          -0.6193  -12.9399  -46.0300 O.2       0 UNK        -0.5000 
      4 N           0.3074  -12.1818  -47.9542 N.am      1 UNK        -0.5000 
      5 CA          1.7260  -12.4552  -47.6744 C.3       1 UNK         0.1400 
      6 C6          2.0674  -13.9668  -47.5484 C.3       23 UNK        -0.0398 
      7 S7          1.4538  -15.0038  -48.9236 S.3       23 UNK        -0.2404 
      8 C8          0.2381  -15.9961  -48.0058 C.3       23 UNK        -0.0205 
      9 C9         -0.2578  -17.2087  -48.7736 C.ar      23 UNK        -0.0193 
     10 C10        -1.5906  -17.2929  -49.1846 C.ar      23 UNK        -0.1150 
     11 C11        -2.0723  -18.4571  -49.7900 C.ar      23 UNK        -0.0193 
     12 C12        -1.2120  -19.5431  -49.9748 C.ar      23 UNK        -0.1150 
     13 C13         0.1264  -19.4699  -49.5755 C.ar      23 UNK        -0.0193 
     14 C14         0.5999  -18.2884  -48.9947 C.ar      23 UNK        -0.1150 
     15 C15         1.0360  -20.6806  -49.7708 C.3       23 UNK        -0.0205 
     16 S16         2.2151  -20.9974  -48.4057 S.3       23 UNK        -0.2404 
     17 C17         1.1825  -20.8989  -46.9005 C.3       23 UNK        -0.0398 
     18 CA          0.5610  -22.2484  -46.4760 C.3       11 UNK         0.1400 
     19 N           0.2207  -22.2572  -45.0533 N.am      11 UNK        -0.5000 
     20 C          -0.2383  -23.3157  -44.3720 C.2       10 UNK         0.5000 
     21 O          -0.3770  -24.4393  -44.8549 O.2       10 UNK        -0.5000 
     22 CA         -0.6662  -23.0544  -42.9185 C.3       10 UNK         0.1400 
     23 CB          0.5498  -23.0378  -41.9799 C.3       10 UNK        -0.1800 
     24 N          -1.4060  -21.7986  -42.7879 N.am      10 UNK        -0.5000 
     25 C          -2.6295  -21.5862  -43.2931 C.2       9 UNK         0.5000 
     26 O          -3.2800  -22.4402  -43.8957 O.2       9 UNK        -0.5000 
     27 CA         -3.2017  -20.1663  -43.1313 C.3       9 UNK         0.1400 
     28 CB         -3.7840  -19.9697  -41.7237 C.3       9 UNK        -0.1800 
     29 N          -2.2077  -19.1248  -43.3961 N.am      9 UNK        -0.5000 
     30 C          -1.6499  -18.9027  -44.5943 C.2       8 UNK         0.5000 
     31 O          -1.9176  -19.5498  -45.6044 O.2       8 UNK        -0.5000 
     32 CA         -0.5779  -17.8040  -44.6705 C.3       8 UNK         0.1400 
     33 CB         -1.2346  -16.4306  -44.8704 C.3       8 UNK        -0.1800 
     34 N           0.3106  -17.7616  -43.5066 N.am      8 UNK        -0.5000 
     35 C           1.0919  -18.7736  -43.0980 C.2       7 UNK         0.5000 
     36 O           1.0820  -19.8890  -43.6202 O.2       7 UNK        -0.5000 
     37 CA          2.0478  -18.5135  -41.9194 C.3       7 UNK         0.1400 
     38 CB          3.5060  -18.5130  -42.4048 C.3       7 UNK        -0.1800 
     39 N           1.7745  -17.2501  -41.2323 N.am      7 UNK        -0.5000 
     40 C           0.8948  -17.1084  -40.2302 C.2       6 UNK         0.5000 
     41 O           0.2212  -18.0369  -39.7822 O.2       6 UNK        -0.5000 
     42 CA          0.7269  -15.6976  -39.6278 C.3       6 UNK         0.1400 
     43 CB          1.5975  -15.5448  -38.3714 C.3       6 UNK        -0.1800 
     44 N           1.0500  -14.6181  -40.5627 N.am      6 UNK        -0.5000 
     45 C           0.3497  -14.3316  -41.6684 C.2       5 UNK         0.5000 
     46 O          -0.6819  -14.9216  -41.9862 O.2       5 UNK        -0.5000 
     47 CA          0.9118  -13.2330  -42.5927 C.3       5 UNK         0.1400 
     48 CB          0.2187  -11.8922  -42.3119 C.3       5 UNK        -0.1800 
     49 N           2.3656  -13.0445  -42.5152 N.am      5 UNK        -0.5000 
     50 C           3.2849  -13.9840  -42.7811 C.2       4 UNK         0.5000 
     51 O           3.0055  -15.1648  -42.9956 O.2       4 UNK        -0.5000 
     52 CA          4.7485  -13.5121  -42.8210 C.3       4 UNK         0.1400 
     53 CB          5.7083  -14.5731  -43.3949 C.3       4 UNK        -0.1800 
     54 N           4.8527  -12.2760  -43.5957 N.am      4 UNK        -0.5000 
     55 C           5.7670  -11.3163  -43.4035 C.2       3 UNK         0.5000 
     56 O           6.6168  -11.3604  -42.5126 O.2       3 UNK        -0.5000 
     57 CA          5.7537  -10.1042  -44.3618 C.3       3 UNK         0.1400 
     58 CB          6.8572  -10.2513  -45.4212 C.3       3 UNK        -0.1800 
     59 N           4.4762   -9.8873  -45.0445 N.am      3 UNK        -0.5000 
     60 C           3.3457   -9.4860  -44.4492 C.2       2 UNK         0.5000 
     61 O           3.2707   -9.2050  -43.2526 O.2       2 UNK        -0.5000 
     62 CA          2.0752   -9.4022  -45.3232 C.3       2 UNK         0.1400 
     63 CB          1.8915   -7.9709  -45.8509 C.3       2 UNK        -0.1800 
     64 N           1.9742  -10.3378  -46.4543 N.am      2 UNK        -0.5000 
     65 C           2.2064  -11.6596  -46.4392 C.2       1 UNK         0.5000 
     66 O           2.7330  -12.2503  -45.4974 O.2       1 UNK        -0.5000 
     67 C          -0.6577  -22.6093  -47.3470 C.2       11 UNK         0.5000 
     68 O          -0.5570  -23.5064  -48.1820 O.2       11 UNK        -0.5000 
     69 N          -1.7973  -21.9438  -47.1086 N.am      12 UNK        -0.5000 
     70 CA         -3.0602  -22.1899  -47.8020 C.3       12 UNK         0.1400 
     71 CB         -4.1009  -21.1434  -47.3800 C.3       12 UNK        -0.1800 
     72 C          -3.5988  -23.6136  -47.5855 C.2       12 UNK         0.5000 
     73 O          -4.0886  -24.2154  -48.5399 O.2       12 UNK        -0.5000 
     74 N          -3.4698  -24.1435  -46.3619 N.am      13 UNK        -0.5000 
     75 CA         -3.8285  -25.5225  -46.0305 C.3       13 UNK         0.1400 
     76 CB         -3.7695  -25.7224  -44.5085 C.3       13 UNK        -0.1800 
     77 C          -2.9459  -26.5554  -46.7572 C.2       13 UNK         0.5000 
     78 O          -3.4716  -27.5333  -47.2900 O.2       13 UNK        -0.5000 
     79 N          -1.6286  -26.3121  -46.7818 N.am      14 UNK        -0.5000 
     80 CA         -0.6384  -27.1769  -47.4228 C.3       14 UNK         0.1400 
     81 CB          0.7670  -26.7784  -46.9460 C.3       14 UNK        -0.1800 
     82 C          -0.7141  -27.1519  -48.9605 C.2       14 UNK         0.5000 
     83 O          -0.6544  -28.2092  -49.5891 O.2       14 UNK        -0.5000 
     84 N          -0.8336  -25.9498  -49.5375 N.am      15 UNK        -0.5000 
     85 CA         -0.7865  -25.7076  -50.9809 C.3       15 UNK         0.1400 
     86 CB         -0.1219  -24.3427  -51.2279 C.3       15 UNK        -0.1800 
     87 C          -2.1643  -25.7716  -51.6673 C.2       15 UNK         0.5000 
     88 O          -2.2385  -25.4968  -52.8654 O.2       15 UNK        -0.5000 
     89 N          -3.2288  -26.0893  -50.9146 N.am      16 UNK        -0.5000 
     90 CA         -4.6292  -26.1622  -51.3532 C.3       16 UNK         0.1400 
     91 CB         -4.8366  -27.3416  -52.3260 C.3       16 UNK        -0.1800 
     92 C          -5.1175  -24.8161  -51.9261 C.2       16 UNK         0.5000 
     93 O          -5.5355  -24.7357  -53.0832 O.2       16 UNK        -0.5000 
     94 N          -4.9832  -23.7669  -51.1035 N.am      17 UNK        -0.5000 
     95 CA         -5.2598  -22.3591  -51.4029 C.3       17 UNK         0.1400 
     96 CB         -6.7749  -22.1348  -51.5919 C.3       17 UNK        -0.1800 
     97 C          -4.4044  -21.8281  -52.5727 C.2       17 UNK         0.5000 
     98 O          -4.9047  -21.0734  -53.4059 O.2       17 UNK        -0.5000 
     99 N          -3.1362  -22.2686  -52.6171 N.am      18 UNK        -0.5000 
    100 CA        -2.1503  -22.0339  -53.6797 C.3       18 UNK         0.1400 
    101 CB        -1.7354  -20.5487  -53.7297 C.3       18 UNK        -0.1800 
    102 C         -2.6382  -22.5719  -55.0399 C.2       18 UNK         0.5000 
    103 O         -2.6533  -21.8382  -56.0273 O.2       18 UNK        -0.5000 
    104 N         -3.0853  -23.8365  -55.0482 N.am      19 UNK        -0.5000 
    105 CA        -3.7647  -24.5198  -56.1562 C.3       19 UNK         0.1400 
    106 CB        -2.7762  -24.8153  -57.3029 C.3       19 UNK        -0.1800 
    107 C         -5.0260  -23.7557  -56.6182 C.2       19 UNK         0.5000 
    108 O         -5.2289  -23.5423  -57.8147 O.2       19 UNK        -0.5000 
    109 N         -5.8223  -23.3247  -55.6306 N.am      20 UNK        -0.5000 
    110 CA        -7.0354  -22.5070  -55.7227 C.3       20 UNK         0.1400 
    111 CB        -8.1257  -23.2254  -56.5440 C.3       20 UNK        -0.1800 
    112 C         -6.8255  -21.0476  -56.1873 C.2       20 UNK         0.5000 
    113 O         -7.8180  -20.3323  -56.3399 O.2       20 UNK        -0.5000 
    114 N         -5.5752  -20.5919  -56.3677 N.am      21 UNK        -0.5000 
    115 CA        -5.2493  -19.2222  -56.7842 C.3       21 UNK         0.1400 
    116 CB        -3.7592  -19.1157  -57.1361 C.3       21 UNK        -0.1800 
    117 C         -5.6349  -18.1463  -55.7498 C.2       21 UNK         0.5000 
    118 O         -5.9265  -17.0160  -56.1442 O.2       21 UNK        -0.5000 
    119 N         -5.6646  -18.5122  -54.4614 N.am      22 UNK        -0.5000 
    120 CA        -6.1897  -17.6710  -53.3731 C.3       22 UNK         0.1400 
    121 C         -7.7476  -17.6087  -53.3160 C.2       22 UNK         0.5000 
    122 N         -8.4902  -18.3514  -54.1304 N.am      22 UNK        -0.7600 
    123 O         -8.3002  -16.8577  -52.5168 O.2       22 UNK        -0.5000 
    124 C124       -5.6063  -18.0642  -51.9909 C.3       23 UNK        -0.0398 
    125 S125       -3.7914  -17.9225  -51.8929 S.3       23 UNK        -0.2404 
    126 C126       -3.5307  -18.5530  -50.2076 C.3       23 UNK        -0.0205 
    127 H127       -2.0713  -11.6315  -48.6643 H         1 UNK         0.0600 
    128 H128       -2.5893  -11.3487  -46.9996 H         1 UNK         0.0600 
    129 H129       -2.7433  -12.9583  -47.7124 H         1 UNK         0.0600 
    130 H130        0.1252  -11.7713  -48.8592 H         1 UNK         0.3000 
    131 H131        2.2850  -12.0657  -48.5265 H         1 UNK         0.0600 
    132 H132        3.1499  -14.0967  -47.5029 H         1 UNK         0.0800 
    133 H133        1.6887  -14.3585  -46.6025 H         1 UNK         0.0800 
    134 H134        0.6980  -16.3510  -47.0838 H         1 UNK         0.0800 
    135 H135       -0.5953  -15.3574  -47.7118 H         1 UNK         0.0800 
    136 H136       -2.2610  -16.4623  -49.0140 H         1 UNK         0.1150 
    137 H137       -1.5894  -20.4501  -50.4249 H         1 UNK         0.1150 
    138 H138        1.6299  -18.2191  -48.6744 H         1 UNK         0.1150 
    139 H139        0.4386  -21.5801  -49.9195 H         1 UNK         0.0800 
    140 H140        1.6029  -20.5397  -50.6916 H         1 UNK         0.0800 
    141 H141        0.4232  -20.1222  -46.9862 H         1 UNK         0.0800 
    142 H142        1.8534  -20.5505  -46.1143 H         1 UNK         0.0800 
    143 H143        1.3100  -23.0304  -46.6184 H         1 UNK         0.0600 
    144 H144        0.3412  -21.3796  -44.5545 H         1 UNK         0.3000 
    145 H145       -1.3229  -23.8711  -42.6110 H         1 UNK         0.0600 
    146 H146        0.2440  -22.9108  -40.9413 H         1 UNK         0.0600 
    147 H147        1.1022  -23.9761  -42.0433 H         1 UNK         0.0600 
    148 H148        1.2429  -22.2327  -42.2261 H         1 UNK         0.0600 
    149 H149       -0.9215  -21.0281  -42.3521 H         1 UNK         0.3000 
    150 H150       -4.0119  -20.0514  -43.8546 H         1 UNK         0.0600 
    151 H151       -4.2679  -18.9973  -41.6301 H         1 UNK         0.0600 
    152 H152       -4.5362  -20.7284  -41.5034 H         1 UNK         0.0600 
    153 H153       -3.0140  -20.0367  -40.9541 H         1 UNK         0.0600 
    154 H154       -1.9193  -18.5528  -42.6157 H         1 UNK         0.3000 
    155 H155        0.0430  -18.0185  -45.5419 H         1 UNK         0.0600 
    156 H156       -1.8898  -16.1728  -44.0379 H         1 UNK         0.0600 
    157 H157       -1.8416  -16.4171  -45.7765 H         1 UNK         0.0600 
    158 H158       -0.4887  -15.6408  -44.9644 H         1 UNK         0.0600 
    159 H159        0.3604  -16.8847  -43.0068 H         1 UNK         0.3000 
    160 H160        1.9306  -19.3413  -41.2168 H         1 UNK         0.0600 
    161 H161        3.6827  -17.7418  -43.1551 H         1 UNK         0.0600 
    162 H162        3.7674  -19.4715  -42.8551 H         1 UNK         0.0600 
    163 H163        4.1975  -18.3432  -41.5794 H         1 UNK         0.0600 
    164 H164        2.2573  -16.4332  -41.5930 H         1 UNK         0.3000 
    165 H165       -0.3194  -15.5887  -39.3343 H         1 UNK         0.0600 
    166 H166        1.4303  -14.5812  -37.8897 H         1 UNK         0.0600 
    167 H167        1.3643  -16.3178  -37.6379 H         1 UNK         0.0600 
    168 H168        2.6598  -15.6246  -38.6059 H         1 UNK         0.0600 
    169 H169        1.8877  -14.0869  -40.3766 H         1 UNK         0.3000 
    170 H170        0.6801  -13.5274  -43.6185 H         1 UNK         0.0600 
    171 H171       -0.8649  -11.9876  -42.3940 H         1 UNK         0.0600 
    172 H172        0.4436  -11.5242  -41.3102 H         1 UNK         0.0600 
    173 H173        0.5295  -11.1328  -43.0277 H         1 UNK         0.0600 
    174 H174        2.6861  -12.1000  -42.3572 H         1 UNK         0.3000 
    175 H175        5.0329  -13.3151  -41.7855 H         1 UNK         0.0600 
    176 H176        5.4607  -14.8156  -44.4290 H         1 UNK         0.0600 
    177 H177        6.7420  -14.2282  -43.3696 H         1 UNK         0.0600 
    178 H178        5.6627  -15.4979  -42.8184 H         1 UNK         0.0600 
    179 H179        4.1572  -12.1664  -44.3333 H         1 UNK         0.3000 
    180 H180        5.9718   -9.2164  -43.7647 H         1 UNK         0.0600 
    181 H181        6.6841  -11.1156  -46.0636 H         1 UNK         0.0600 
    182 H182        7.8343  -10.3803  -44.9537 H         1 UNK         0.0600 
    183 H183        6.9169   -9.3665  -46.0553 H         1 UNK         0.0600 
    184 H184        4.4418  -10.1154  -46.0270 H         1 UNK         0.3000 
    185 H185        1.2316   -9.6222  -44.6680 H         1 UNK         0.0600 
    186 H186        1.9294   -7.2439  -45.0382 H         1 UNK         0.0600 
    187 H187        2.6710   -7.7049  -46.5660 H         1 UNK         0.0600 
    188 H188        0.9268   -7.8512  -46.3443 H         1 UNK         0.0600 
    189 H189        1.5419   -9.9592  -47.2845 H         1 UNK         0.3000 
    190 H190       -1.8002  -21.1856  -46.4290 H         1 UNK         0.3000 
    191 H191       -2.8735  -22.0691  -48.8708 H         1 UNK         0.0600 
    192 H192       -3.7578  -20.1339  -47.6061 H         1 UNK         0.0600 
    193 H193       -5.0449  -21.2930  -47.9053 H         1 UNK         0.0600 
    194 H194       -4.3067  -21.1922  -46.3101 H         1 UNK         0.0600 
    195 H195       -3.1049  -23.5693  -45.6093 H         1 UNK         0.3000 
    196 H196       -4.8599  -25.6852  -46.3506 H         1 UNK         0.0600 
    197 H197       -4.0489  -26.7411  -44.2370 H         1 UNK         0.0600 
    198 H198       -4.4573  -25.0491  -43.9967 H         1 UNK         0.0600 
    199 H199       -2.7696  -25.5397  -44.1148 H         1 UNK         0.0600 
    200 H200       -1.2702  -25.4988  -46.2899 H         1 UNK         0.3000 
    201 H201       -0.8246  -28.2029  -47.0982 H         1 UNK         0.0600 
    202 H202        0.8593  -26.8823  -45.8647 H         1 UNK         0.0600 
    203 H203        1.0009  -25.7441  -47.2019 H         1 UNK         0.0600 
    204 H204        1.5300  -27.4115  -47.4005 H         1 UNK         0.0600 
    205 H205       -0.8470  -25.1193  -48.9464 H         1 UNK         0.3000 
    206 H206       -0.1604  -26.4692  -51.4502 H         1 UNK         0.0600 
    207 H207        0.8278  -24.2627  -50.6982 H         1 UNK         0.0600 
    208 H208        0.0901  -24.1976  -52.2873 H         1 UNK         0.0600 
    209 H209       -0.7578  -23.5204  -50.8993 H         1 UNK         0.0600 
    210 H210       -3.0696  -26.2445  -49.9284 H         1 UNK         0.3000 
    211 H211       -5.2264  -26.3580  -50.4612 H         1 UNK         0.0600 
    212 H212       -4.2887  -27.2042  -53.2587 H         1 UNK         0.0600 
    213 H213       -5.8909  -27.4531  -52.5816 H         1 UNK         0.0600 
    214 H214       -4.5089  -28.2808  -51.8804 H         1 UNK         0.0600 
    215 H215       -4.6305  -23.9565  -50.1643 H         1 UNK         0.3000 
    216 H216       -4.9528  -21.7900  -50.5252 H         1 UNK         0.0600 
    217 H217       -7.0086  -21.0879  -51.7819 H         1 UNK         0.0600 
    218 H218       -7.3248  -22.4289  -50.6980 H         1 UNK         0.0600 
    219 H219       -7.1707  -22.7121  -52.4258 H         1 UNK         0.0600 
    220 H220       -2.8570  -22.9289  -51.9078 H         1 UNK         0.3000 
    221 H221       -1.2635  -22.6130  -53.4241 H         1 UNK         0.0600 
    222 H222       -2.5748  -19.8991  -53.9772 H         1 UNK         0.0600 
    223 H223       -1.3295  -20.2180  -52.7754 H         1 UNK         0.0600 
    224 H224       -0.9631  -20.3835  -54.4815 H         1 UNK         0.0600 
    225 H225       -2.9952  -24.3813  -54.1934 H         1 UNK         0.3000 
    226 H226       -4.1109  -25.4758  -55.7606 H         1 UNK         0.0600 
    227 H227       -1.9106  -25.3708  -56.9420 H         1 UNK         0.0600 
    228 H228       -3.2487  -25.4187  -58.0787 H         1 UNK         0.0600 
    229 H229       -2.4153  -23.9008  -57.7745 H         1 UNK         0.0600 
    230 H230       -5.5673  -23.5987  -54.6852 H         1 UNK         0.3000 
    231 H231       -7.4057  -22.4292  -54.7012 H         1 UNK         0.0600 
    232 H232       -7.8691  -23.2787  -57.6022 H         1 UNK         0.0600 
    233 H233       -9.0805  -22.7038  -56.4686 H         1 UNK         0.0600 
    234 H234       -8.2852  -24.2418  -56.1841 H         1 UNK         0.0600 
    235 H235       -4.7935  -21.2085  -56.1815 H         1 UNK         0.3000 
    236 H236       -5.8193  -19.0167  -57.6925 H         1 UNK         0.0600 
    237 H237       -3.4709  -19.8634  -57.8751 H         1 UNK         0.0600 
    238 H238       -3.5282  -18.1362  -57.5564 H         1 UNK         0.0600 
    239 H239       -3.1294  -19.2475  -56.2565 H         1 UNK         0.0600 
    240 H240       -5.3924  -19.4593  -54.2055 H         1 UNK         0.3000 
    241 H241       -5.8691  -16.6460  -53.5685 H         1 UNK         0.0600 
    242 H242       -8.0718  -18.9605  -54.8235 H         1 UNK         0.3800 
    243 H243       -9.4940  -18.2848  -54.0743 H         1 UNK         0.3800 
    244 H244       -6.0219  -17.4272  -51.2079 H         1 UNK         0.0800 
    245 H245       -5.8917  -19.0839  -51.7367 H         1 UNK         0.0800 
    246 H246       -4.1513  -17.9913  -49.5077 H         1 UNK         0.0800 
    247 H247       -3.8674  -19.5886  -50.1549 H         1 UNK         0.0800 
@<TRIPOS>BOND
     1    1    2 1    
     2    1  127 1    
     3    1  128 1    
     4    1  129 1    
     5    2    3 2    
     6    2    4 am   BACKBONE|DICT|INTERRES
     7    4    5 1    
     8    4  130 1    
     9    5    6 1    
    10    5   65 1    
    11    5  131 1    
    12    6    7 1    
    13    6  132 1    
    14    6  133 1    
    15    7    8 1    
    16    8    9 1    
    17    8  134 1    
    18    8  135 1    
    19    9   10 ar   
    20    9   14 ar   
    21   10   11 ar   
    22   10  136 1    
    23   11   12 ar   
    24   11  126 1    
    25   12   13 ar   
    26   12  137 1    
    27   13   14 ar   
    28   13   15 1    
    29   14  138 1    
    30   15   16 1    
    31   15  139 1    
    32   15  140 1    
    33   16   17 1    
    34   17   18 1    
    35   17  141 1    
    36   17  142 1    
    37   18   19 1    
    38   18   67 1    
    39   18  143 1    
    40   19   20 am   BACKBONE|DICT|INTERRES
    41   19  144 1    
    42   20   21 2    
    43   20   22 1    
    44   22   23 1    
    45   22   24 1    
    46   22  145 1    
    47   23  146 1    
    48   23  147 1    
    49   23  148 1    
    50   24   25 am   BACKBONE|DICT|INTERRES
    51   24  149 1    
    52   25   26 2    
    53   25   27 1    
    54   27   28 1    
    55   27   29 1    
    56   27  150 1    
    57   28  151 1    
    58   28  152 1    
    59   28  153 1    
    60   29   30 am   BACKBONE|DICT|INTERRES
    61   29  154 1    
    62   30   31 2    
    63   30   32 1    
    64   32   33 1    
    65   32   34 1    
    66   32  155 1    
    67   33  156 1    
    68   33  157 1    
    69   33  158 1    
    70   34   35 am   BACKBONE|DICT|INTERRES
    71   34  159 1    
    72   35   36 2    
    73   35   37 1    
    74   37   38 1    
    75   37   39 1    
    76   37  160 1    
    77   38  161 1    
    78   38  162 1    
    79   38  163 1    
    80   39   40 am   BACKBONE|DICT|INTERRES
    81   39  164 1    
    82   40   41 2    
    83   40   42 1    
    84   42   43 1    
    85   42   44 1    
    86   42  165 1    
    87   43  166 1    
    88   43  167 1    
    89   43  168 1    
    90   44   45 am   BACKBONE|DICT|INTERRES
    91   44  169 1    
    92   45   46 2    
    93   45   47 1    
    94   47   48 1    
    95   47   49 1    
    96   47  170 1    
    97   48  171 1    
    98   48  172 1    
    99   48  173 1    
   100   49   50 am   BACKBONE|DICT|INTERRES
   101   49  174 1    
   102   50   51 2    
   103   50   52 1    
   104   52   53 1    
   105   52   54 1    
   106   52  175 1    
   107   53  176 1    
   108   53  177 1    
   109   53  178 1    
   110   54   55 am   BACKBONE|DICT|INTERRES
   111   54  179 1    
   112   55   56 2    
   113   55   57 1    
   114   57   58 1    
   115   57   59 1    
   116   57  180 1    
   117   58  181 1    
   118   58  182 1    
   119   58  183 1    
   120   59   60 am   BACKBONE|DICT|INTERRES
   121   59  184 1    
   122   60   61 2    
   123   60   62 1    
   124   62   63 1    
   125   62   64 1    
   126   62  185 1    
   127   63  186 1    
   128   63  187 1    
   129   63  188 1    
   130   64   65 am   BACKBONE|DICT|INTERRES
   131   64  189 1    
   132   65   66 2    
   133   67   68 2    
   134   67   69 am   BACKBONE|DICT|INTERRES
   135   69   70 1    
   136   69  190 1    
   137   70   71 1    
   138   70   72 1    
   139   70  191 1    
   140   71  192 1    
   141   71  193 1    
   142   71  194 1    
   143   72   73 2    
   144   72   74 am   BACKBONE|DICT|INTERRES
   145   74   75 1    
   146   74  195 1    
   147   75   76 1    
   148   75   77 1    
   149   75  196 1    
   150   76  197 1    
   151   76  198 1    
   152   76  199 1    
   153   77   78 2    
   154   77   79 am   BACKBONE|DICT|INTERRES
   155   79   80 1    
   156   79  200 1    
   157   80   81 1    
   158   80   82 1    
   159   80  201 1    
   160   81  202 1    
   161   81  203 1    
   162   81  204 1    
   163   82   83 2    
   164   82   84 am   BACKBONE|DICT|INTERRES
   165   84   85 1    
   166   84  205 1    
   167   85   86 1    
   168   85   87 1    
   169   85  206 1    
   170   86  207 1    
   171   86  208 1    
   172   86  209 1    
   173   87   88 2    
   174   87   89 am   BACKBONE|DICT|INTERRES
   175   89   90 1    
   176   89  210 1    
   177   90   91 1    
   178   90   92 1    
   179   90  211 1    
   180   91  212 1    
   181   91  213 1    
   182   91  214 1    
   183   92   93 2    
   184   92   94 am   BACKBONE|DICT|INTERRES
   185   94   95 1    
   186   94  215 1    
   187   95   96 1    
   188   95   97 1    
   189   95  216 1    
   190   96  217 1    
   191   96  218 1    
   192   96  219 1    
   193   97   98 2    
   194   97   99 am   BACKBONE|DICT|INTERRES
   195   99  100 1    
   196   99  220 1    
   197  100  101 1    
   198  100  102 1    
   199  100  221 1    
   200  101  222 1    
   201  101  223 1    
   202  101  224 1    
   203  102  103 2    
   204  102  104 am   BACKBONE|DICT|INTERRES
   205  104  105 1    
   206  104  225 1    
   207  105  106 1    
   208  105  107 1    
   209  105  226 1    
   210  106  227 1    
   211  106  228 1    
   212  106  229 1    
   213  107  108 2    
   214  107  109 am   BACKBONE|DICT|INTERRES
   215  109  110 1    
   216  109  230 1    
   217  110  111 1    
   218  110  112 1    
   219  110  231 1    
   220  111  232 1    
   221  111  233 1    
   222  111  234 1    
   223  112  113 2    
   224  112  114 am   BACKBONE|DICT|INTERRES
   225  114  115 1    
   226  114  235 1    
   227  115  116 1    
   228  115  117 1    
   229  115  236 1    
   230  116  237 1    
   231  116  238 1    
   232  116  239 1    
   233  117  118 2    
   234  117  119 am   BACKBONE|DICT|INTERRES
   235  119  120 1    
   236  119  240 1    
   237  120  121 1    
   238  120  124 1    
   239  120  241 1    
   240  121  122 am   BACKBONE|DICT|INTERRES
   241  121  123 2    
   242  122  242 1    
   243  122  243 1    
   244  124  125 1    
   245  124  244 1    
   246  124  245 1    
   247  125  126 1    
   248  126  246 1    
   249  126  247 1    
@<TRIPOS>SUBSTRUCTURE
     1 UNK         1 GROUP             0       ****    0 ROOT    
