@<TRIPOS>MOLECULE
3R540
247   249    1
SMALL
USER_CHARGES


@<TRIPOS>ATOM
      1 CA          6.9098  -11.0808  -46.2323 C.3       0 UNK        -0.1800 
      2 C           5.5592  -11.7505  -46.0298 C.2       0 UNK         0.5000 
      3 O           4.8204  -11.3701  -45.1236 O.2       0 UNK        -0.5000 
      4 N           5.2242  -12.7284  -46.8821 N.am      1 UNK        -0.5000 
      5 CA          4.0015  -13.5496  -46.8513 C.3       1 UNK         0.1400 
      6 C6          4.0552  -14.6135  -47.9764 C.3       23 UNK        -0.0398 
      7 S7          2.9128  -16.0173  -47.7447 S.3       23 UNK        -0.2404 
      8 C8          1.8861  -15.8510  -49.2388 C.3       23 UNK        -0.0205 
      9 C9          0.9060  -17.0043  -49.3797 C.ar      23 UNK        -0.0193 
     10 C10        -0.4581  -16.8101  -49.1466 C.ar      23 UNK        -0.1150 
     11 C11        -1.3589  -17.8693  -49.2897 C.ar      23 UNK        -0.0193 
     12 C12        -0.8848  -19.1341  -49.6486 C.ar      23 UNK        -0.1150 
     13 C13         0.4772  -19.3428  -49.8840 C.ar      23 UNK        -0.0193 
     14 C14         1.3641  -18.2674  -49.7643 C.ar      23 UNK        -0.1150 
     15 C15         0.9758  -20.7346  -50.2602 C.3       23 UNK        -0.0205 
     16 S16         2.4375  -21.2807  -49.3086 S.3       23 UNK        -0.2404 
     17 C17         1.9147  -20.9958  -47.5816 C.3       23 UNK        -0.0398 
     18 CA          1.4244  -22.2657  -46.8532 C.3       11 UNK         0.1400 
     19 N           1.3329  -22.0416  -45.4122 N.am      11 UNK        -0.5000 
     20 C           1.1392  -22.9949  -44.4927 C.2       10 UNK         0.5000 
     21 O           1.1010  -24.1980  -44.7504 O.2       10 UNK        -0.5000 
     22 CA          0.9096  -22.5152  -43.0471 C.3       10 UNK         0.1400 
     23 CB          2.2479  -22.2558  -42.3397 C.3       10 UNK        -0.1800 
     24 N           0.0739  -21.3132  -42.9765 N.am      10 UNK        -0.5000 
     25 C          -1.2082  -21.2630  -43.3671 C.2       9 UNK         0.5000 
     26 O          -1.8301  -22.2382  -43.7876 O.2       9 UNK        -0.5000 
     27 CA         -1.9046  -19.8911  -43.3170 C.3       9 UNK         0.1400 
     28 CB         -2.3473  -19.5565  -41.8850 C.3       9 UNK        -0.1800 
     29 N          -1.0730  -18.8086  -43.8447 N.am      9 UNK        -0.5000 
     30 C          -0.6495  -18.7221  -45.1141 C.2       8 UNK         0.5000 
     31 O          -0.9423  -19.5364  -45.9865 O.2       8 UNK        -0.5000 
     32 CA          0.3099  -17.5682  -45.4547 C.3       8 UNK         0.1400 
     33 CB         -0.4549  -16.2487  -45.6288 C.3       8 UNK        -0.1800 
     34 N           1.3618  -17.4043  -44.4514 N.am      8 UNK        -0.5000 
     35 C           2.2667  -18.3443  -44.1424 C.2       7 UNK         0.5000 
     36 O           2.3513  -19.4317  -44.7116 O.2       7 UNK        -0.5000 
     37 CA          3.1890  -18.0466  -42.9506 C.3       7 UNK         0.1400 
     38 CB          4.3752  -17.1675  -43.3762 C.3       7 UNK        -0.1800 
     39 N           2.4545  -17.4134  -41.8544 N.am      7 UNK        -0.5000 
     40 C           1.5587  -18.0507  -41.0857 C.2       6 UNK         0.5000 
     41 O           1.2951  -19.2481  -41.1962 O.2       6 UNK        -0.5000 
     42 CA          0.8029  -17.2028  -40.0449 C.3       6 UNK         0.1400 
     43 CB          1.6296  -17.0632  -38.7581 C.3       6 UNK        -0.1800 
     44 N           0.4545  -15.8718  -40.5438 N.am      6 UNK        -0.5000 
     45 C          -0.4178  -15.6380  -41.5345 C.2       5 UNK         0.5000 
     46 O          -1.0667  -16.5219  -42.0912 O.2       5 UNK        -0.5000 
     47 CA         -0.5536  -14.1805  -42.0183 C.3       5 UNK         0.1400 
     48 CB         -1.6621  -13.4561  -41.2412 C.3       5 UNK        -0.1800 
     49 N           0.6867  -13.4059  -41.9237 N.am      5 UNK        -0.5000 
     50 C           1.8464  -13.7237  -42.5124 C.2       4 UNK         0.5000 
     51 O           2.0026  -14.7264  -43.2115 O.2       4 UNK        -0.5000 
     52 CA          3.0201  -12.7623  -42.2543 C.3       4 UNK         0.1400 
     53 CB          4.3853  -13.4259  -42.5070 C.3       4 UNK        -0.1800 
     54 N           2.9139  -11.5662  -43.0835 N.am      4 UNK        -0.5000 
     55 C           2.0800  -10.5391  -42.8751 C.2       3 UNK         0.5000 
     56 O           1.2949  -10.4803  -41.9272 O.2       3 UNK        -0.5000 
     57 CA          2.1302   -9.3882  -43.8932 C.3       3 UNK         0.1400 
     58 CB          3.3012   -8.4440  -43.5782 C.3       3 UNK        -0.1800 
     59 N           2.2787   -9.8942  -45.2580 N.am      3 UNK        -0.5000 
     60 C           1.2908   -9.9645  -46.1608 C.2       2 UNK         0.5000 
     61 O           0.1434   -9.5684  -45.9512 O.2       2 UNK        -0.5000 
     62 CA          1.6328  -10.5724  -47.5382 C.3       2 UNK         0.1400 
     63 CB          1.9725   -9.4621  -48.5442 C.3       2 UNK        -0.1800 
     64 N           2.7389  -11.5310  -47.5002 N.am      2 UNK        -0.5000 
     65 C           2.6895  -12.7269  -46.8958 C.2       1 UNK         0.5000 
     66 O           1.6738  -13.1649  -46.3575 O.2       1 UNK        -0.5000 
     67 C           0.0890  -22.7906  -47.4191 C.2       11 UNK         0.5000 
     68 O           0.0859  -23.8178  -48.0958 O.2       11 UNK        -0.5000 
     69 N          -1.0253  -22.1178  -47.0962 N.am      12 UNK        -0.5000 
     70 CA         -2.3817  -22.4898  -47.5078 C.3       12 UNK         0.1400 
     71 CB         -3.3763  -21.4222  -47.0336 C.3       12 UNK        -0.1800 
     72 C          -2.8154  -23.8821  -47.0158 C.2       12 UNK         0.5000 
     73 O          -3.5150  -24.5856  -47.7405 O.2       12 UNK        -0.5000 
     74 N          -2.3616  -24.2844  -45.8213 N.am      13 UNK        -0.5000 
     75 CA         -2.5815  -25.6208  -45.2647 C.3       13 UNK         0.1400 
     76 CB         -2.0994  -25.6518  -43.8066 C.3       13 UNK        -0.1800 
     77 C          -1.9178  -26.7479  -46.0842 C.2       13 UNK         0.5000 
     78 O          -2.4301  -27.8680  -46.0862 O.2       13 UNK        -0.5000 
     79 N          -0.8096  -26.4370  -46.7705 N.am      14 UNK        -0.5000 
     80 CA         -0.1033  -27.3550  -47.6622 C.3       14 UNK         0.1400 
     81 CB          1.4051  -27.0666  -47.5922 C.3       14 UNK        -0.1800 
     82 C          -0.6133  -27.2439  -49.1103 C.2       14 UNK         0.5000 
     83 O          -0.8323  -28.2683  -49.7578 O.2       14 UNK        -0.5000 
     84 N          -0.7805  -26.0068  -49.5966 N.am      15 UNK        -0.5000 
     85 CA         -1.1613  -25.6870  -50.9743 C.3       15 UNK         0.1400 
     86 CB         -0.8035  -24.2184  -51.2551 C.3       15 UNK        -0.1800 
     87 C          -2.6468  -25.9396  -51.2941 C.2       15 UNK         0.5000 
     88 O          -2.9859  -26.0951  -52.4683 O.2       15 UNK        -0.5000 
     89 N          -3.4987  -25.9552  -50.2593 N.am      16 UNK        -0.5000 
     90 CA         -4.9608  -25.9873  -50.3161 C.3       16 UNK         0.1400 
     91 CB         -5.4731  -27.3033  -50.9458 C.3       16 UNK        -0.1800 
     92 C          -5.5090  -24.6996  -50.9676 C.2       16 UNK         0.5000 
     93 O          -5.0071  -23.6114  -50.6723 O.2       16 UNK        -0.5000 
     94 N          -6.5300  -24.8284  -51.8251 N.am      17 UNK        -0.5000 
     95 CA         -7.1229  -23.7152  -52.5674 C.3       17 UNK         0.1400 
     96 CB         -8.4385  -24.1758  -53.2134 C.3       17 UNK        -0.1800 
     97 C          -6.1724  -23.1373  -53.6315 C.2       17 UNK         0.5000 
     98 O          -6.1431  -21.9217  -53.8119 O.2       17 UNK        -0.5000 
     99 N          -5.4066  -24.0163  -54.2995 N.am      18 UNK        -0.5000 
    100 CA        -4.4754  -23.7090  -55.3927 C.3       18 UNK         0.1400 
    101 CB        -3.2176  -23.0014  -54.8485 C.3       18 UNK        -0.1800 
    102 C         -5.1733  -22.9431  -56.5385 C.2       18 UNK         0.5000 
    103 O         -4.7677  -21.8361  -56.8980 O.2       18 UNK        -0.5000 
    104 N         -6.2571  -23.5490  -57.0452 N.am      19 UNK        -0.5000 
    105 CA        -7.2175  -22.9933  -58.0004 C.3       19 UNK         0.1400 
    106 CB        -6.5539  -22.6963  -59.3658 C.3       19 UNK        -0.1800 
    107 C         -7.9860  -21.8068  -57.3811 C.2       19 UNK         0.5000 
    108 O         -8.6879  -22.0046  -56.3886 O.2       19 UNK        -0.5000 
    109 N         -7.8647  -20.6137  -57.9748 N.am      20 UNK        -0.5000 
    110 CA        -8.5769  -19.3961  -57.5775 C.3       20 UNK         0.1400 
    111 CB        -8.7436  -18.5114  -58.8252 C.3       20 UNK        -0.1800 
    112 C         -7.8958  -18.6096  -56.4362 C.2       20 UNK         0.5000 
    113 O         -8.4106  -17.5596  -56.0462 O.2       20 UNK        -0.5000 
    114 N         -6.7458  -19.0889  -55.9452 N.am      21 UNK        -0.5000 
    115 CA        -5.9548  -18.4562  -54.8894 C.3       21 UNK         0.1400 
    116 CB        -4.5065  -18.9674  -54.9993 C.3       21 UNK        -0.1800 
    117 C         -6.5403  -18.6642  -53.4725 C.2       21 UNK         0.5000 
    118 O         -7.6474  -19.1808  -53.3043 O.2       21 UNK        -0.5000 
    119 N         -5.7697  -18.2331  -52.4690 N.am      22 UNK        -0.5000 
    120 CA        -6.0493  -18.3543  -51.0285 C.3       22 UNK         0.1400 
    121 C         -5.7392  -19.7513  -50.4051 C.2       22 UNK         0.5000 
    122 N         -5.3651  -20.7633  -51.1762 N.am      22 UNK        -0.7600 
    123 O         -5.8577  -19.9238  -49.1956 O.2       22 UNK        -0.5000 
    124 C124       -5.3864  -17.1908  -50.2385 C.3       23 UNK        -0.0398 
    125 S125       -3.6047  -16.9809  -50.5931 S.3       23 UNK        -0.2404 
    126 C126       -2.8469  -17.6451  -49.0807 C.3       23 UNK        -0.0205 
    127 H127        7.5234  -11.2012  -45.3396 H         1 UNK         0.0600 
    128 H128        7.4512  -11.5049  -47.0782 H         1 UNK         0.0600 
    129 H129        6.7751  -10.0144  -46.4132 H         1 UNK         0.0600 
    130 H130        5.8821  -12.9687  -47.6101 H         1 UNK         0.3000 
    131 H131        4.0084  -14.0725  -45.8928 H         1 UNK         0.0600 
    132 H132        5.0545  -15.0493  -48.0198 H         1 UNK         0.0800 
    133 H133        3.8981  -14.1490  -48.9515 H         1 UNK         0.0800 
    134 H134        2.5272  -15.8206  -50.1211 H         1 UNK         0.0800 
    135 H135        1.3564  -14.8975  -49.2044 H         1 UNK         0.0800 
    136 H136       -0.8230  -15.8319  -48.8667 H         1 UNK         0.1150 
    137 H137       -1.5813  -19.9548  -49.7503 H         1 UNK         0.1150 
    138 H138        2.4186  -18.4174  -49.9485 H         1 UNK         0.1150 
    139 H139        0.1836  -21.4726  -50.1279 H         1 UNK         0.0800 
    140 H140        1.2256  -20.7416  -51.3217 H         1 UNK         0.0800 
    141 H141        1.1724  -20.2008  -47.5172 H         1 UNK         0.0800 
    142 H142        2.7933  -20.6058  -47.0665 H         1 UNK         0.0800 
    143 H143        2.1722  -23.0472  -47.0055 H         1 UNK         0.0600 
    144 H144        1.4141  -21.0773  -45.1017 H         1 UNK         0.3000 
    145 H145        0.3914  -23.3139  -42.5124 H         1 UNK         0.0600 
    146 H146        2.0953  -21.9931  -41.2928 H         1 UNK         0.0600 
    147 H147        2.8812  -23.1434  -42.3638 H         1 UNK         0.0600 
    148 H148        2.8016  -21.4432  -42.8107 H         1 UNK         0.0600 
    149 H149        0.5071  -20.4779  -42.5958 H         1 UNK         0.3000 
    150 H150       -2.7992  -19.9523  -43.9397 H         1 UNK         0.0600 
    151 H151       -2.9775  -20.3471  -41.4757 H         1 UNK         0.0600 
    152 H152       -2.9258  -18.6331  -41.8577 H         1 UNK         0.0600 
    153 H153       -1.4944  -19.4362  -41.2167 H         1 UNK         0.0600 
    154 H154       -0.8363  -18.0623  -43.1968 H         1 UNK         0.3000 
    155 H155        0.7912  -17.8099  -46.4044 H         1 UNK         0.0600 
    156 H156       -0.9373  -15.9352  -44.7047 H         1 UNK         0.0600 
    157 H157       -1.2349  -16.3473  -46.3836 H         1 UNK         0.0600 
    158 H158        0.2116  -15.4483  -45.9498 H         1 UNK         0.0600 
    159 H159        1.3978  -16.5178  -43.9586 H         1 UNK         0.3000 
    160 H160        3.5887  -18.9961  -42.5882 H         1 UNK         0.0600 
    161 H161        5.0230  -16.9381  -42.5301 H         1 UNK         0.0600 
    162 H162        4.0491  -16.2259  -43.8170 H         1 UNK         0.0600 
    163 H163        4.9838  -17.6784  -44.1232 H         1 UNK         0.0600 
    164 H164        2.5513  -16.4118  -41.7666 H         1 UNK         0.3000 
    165 H165       -0.1238  -17.7260  -39.7997 H         1 UNK         0.0600 
    166 H166        1.0719  -16.5313  -37.9870 H         1 UNK         0.0600 
    167 H167        1.8884  -18.0425  -38.3532 H         1 UNK         0.0600 
    168 H168        2.5611  -16.5233  -38.9325 H         1 UNK         0.0600 
    169 H169        0.9408  -15.0869  -40.1366 H         1 UNK         0.3000 
    170 H170       -0.8388  -14.2083  -43.0713 H         1 UNK         0.0600 
    171 H171       -2.6075  -13.9953  -41.3150 H         1 UNK         0.0600 
    172 H172       -1.4174  -13.3644  -40.1822 H         1 UNK         0.0600 
    173 H173       -1.8294  -12.4535  -41.6354 H         1 UNK         0.0600 
    174 H174        0.6363  -12.5231  -41.4297 H         1 UNK         0.3000 
    175 H175        2.9878  -12.4663  -41.2037 H         1 UNK         0.0600 
    176 H176        4.5025  -13.7280  -43.5477 H         1 UNK         0.0600 
    177 H177        5.2030  -12.7468  -42.2654 H         1 UNK         0.0600 
    178 H178        4.5081  -14.3163  -41.8894 H         1 UNK         0.0600 
    179 H179        3.5485  -11.5236  -43.8780 H         1 UNK         0.3000 
    180 H180        1.2046   -8.8172  -43.7954 H         1 UNK         0.0600 
    181 H181        4.2636   -8.9512  -43.6590 H         1 UNK         0.0600 
    182 H182        3.2218   -8.0477  -42.5651 H         1 UNK         0.0600 
    183 H183        3.3137   -7.5936  -44.2600 H         1 UNK         0.0600 
    184 H184        3.1826  -10.2905  -45.4911 H         1 UNK         0.3000 
    185 H185        0.7436  -11.0963  -47.8955 H         1 UNK         0.0600 
    186 H186        1.1568   -8.7419  -48.6214 H         1 UNK         0.0600 
    187 H187        2.8681   -8.9132  -48.2504 H         1 UNK         0.0600 
    188 H188        2.1391   -9.8699  -49.5415 H         1 UNK         0.0600 
    189 H189        3.6126  -11.2351  -47.9102 H         1 UNK         0.3000 
    190 H190       -0.9444  -21.2562  -46.5585 H         1 UNK         0.3000 
    191 H191       -2.3996  -22.5068  -48.5992 H         1 UNK         0.0600 
    192 H192       -3.1172  -20.4407  -47.4274 H         1 UNK         0.0600 
    193 H193       -3.4017  -21.3504  -45.9463 H         1 UNK         0.0600 
    194 H194       -4.3868  -21.6514  -47.3743 H         1 UNK         0.0600 
    195 H195       -1.8573  -23.6208  -45.2415 H         1 UNK         0.3000 
    196 H196       -3.6575  -25.8065  -45.2678 H         1 UNK         0.0600 
    197 H197       -2.2873  -26.6260  -43.3536 H         1 UNK         0.0600 
    198 H198       -2.6190  -24.9073  -43.2031 H         1 UNK         0.0600 
    199 H199       -1.0299  -25.4563  -43.7317 H         1 UNK         0.0600 
    200 H200       -0.4671  -25.4848  -46.7363 H         1 UNK         0.3000 
    201 H201       -0.2582  -28.3837  -47.3299 H         1 UNK         0.0600 
    202 H202        1.7820  -27.1948  -46.5774 H         1 UNK         0.0600 
    203 H203        1.6410  -26.0498  -47.9079 H         1 UNK         0.0600 
    204 H204        1.9627  -27.7480  -48.2357 H         1 UNK         0.0600 
    205 H205       -0.5373  -25.2142  -49.0041 H         1 UNK         0.3000 
    206 H206       -0.5705  -26.3143  -51.6450 H         1 UNK         0.0600 
    207 H207        0.2547  -24.0270  -51.0754 H         1 UNK         0.0600 
    208 H208       -1.0098  -23.9557  -52.2930 H         1 UNK         0.0600 
    209 H209       -1.3787  -23.5396  -50.6245 H         1 UNK         0.0600 
    210 H210       -3.1301  -25.7174  -49.3444 H         1 UNK         0.3000 
    211 H211       -5.3026  -25.9680  -49.2807 H         1 UNK         0.0600 
    212 H212       -5.2564  -27.3647  -52.0126 H         1 UNK         0.0600 
    213 H213       -6.5511  -27.4078  -50.8186 H         1 UNK         0.0600 
    214 H214       -5.0128  -28.1673  -50.4662 H         1 UNK         0.0600 
    215 H215       -6.8979  -25.7501  -52.0096 H         1 UNK         0.3000 
    216 H216       -7.3552  -22.9164  -51.8596 H         1 UNK         0.0600 
    217 H217       -8.9068  -23.3586  -53.7644 H         1 UNK         0.0600 
    218 H218       -9.1524  -24.5102  -52.4605 H         1 UNK         0.0600 
    219 H219       -8.2801  -24.9950  -53.9157 H         1 UNK         0.0600 
    220 H220       -5.4794  -24.9912  -54.0464 H         1 UNK         0.3000 
    221 H221       -4.1549  -24.6641  -55.8115 H         1 UNK         0.0600 
    222 H222       -3.4567  -22.0588  -54.3586 H         1 UNK         0.0600 
    223 H223       -2.7048  -23.6297  -54.1205 H         1 UNK         0.0600 
    224 H224       -2.5095  -22.7872  -55.6496 H         1 UNK         0.0600 
    225 H225       -6.5244  -24.4348  -56.6399 H         1 UNK         0.3000 
    226 H226       -7.9615  -23.7731  -58.1694 H         1 UNK         0.0600 
    227 H227       -6.0728  -23.5895  -59.7643 H         1 UNK         0.0600 
    228 H228       -7.2958  -22.3804  -60.1003 H         1 UNK         0.0600 
    229 H229       -5.7955  -21.9157  -59.3050 H         1 UNK         0.0600 
    230 H230       -7.2439  -20.5325  -58.7672 H         1 UNK         0.3000 
    231 H231       -9.5738  -19.6686  -57.2248 H         1 UNK         0.0600 
    232 H232       -9.2696  -19.0428  -59.6186 H         1 UNK         0.0600 
    233 H233       -7.7797  -18.1870  -59.2191 H         1 UNK         0.0600 
    234 H234       -9.3242  -17.6159  -58.5996 H         1 UNK         0.0600 
    235 H235       -6.4102  -19.9812  -56.2819 H         1 UNK         0.3000 
    236 H236       -5.9418  -17.3801  -55.0742 H         1 UNK         0.0600 
    237 H237       -3.8311  -18.4221  -54.3396 H         1 UNK         0.0600 
    238 H238       -4.4397  -20.0229  -54.7411 H         1 UNK         0.0600 
    239 H239       -4.1224  -18.8505  -56.0129 H         1 UNK         0.0600 
    240 H240       -4.8683  -17.8326  -52.6857 H         1 UNK         0.3000 
    241 H241       -7.1269  -18.2369  -50.9010 H         1 UNK         0.0600 
    242 H242       -5.1838  -21.6741  -50.7660 H         1 UNK         0.3800 
    243 H243       -5.3806  -20.6795  -52.1831 H         1 UNK         0.3800 
    244 H244       -5.8782  -16.2561  -50.5109 H         1 UNK         0.0800 
    245 H245       -5.5476  -17.2941  -49.1640 H         1 UNK         0.0800 
    246 H246       -3.0134  -16.9564  -48.2513 H         1 UNK         0.0800 
    247 H247       -3.3337  -18.5823  -48.8108 H         1 UNK         0.0800 
@<TRIPOS>BOND
     1    1    2 1    
     2    1  127 1    
     3    1  128 1    
     4    1  129 1    
     5    2    3 2    
     6    2    4 am   BACKBONE|DICT|INTERRES
     7    4    5 1    
     8    4  130 1    
     9    5    6 1    
    10    5   65 1    
    11    5  131 1    
    12    6    7 1    
    13    6  132 1    
    14    6  133 1    
    15    7    8 1    
    16    8    9 1    
    17    8  134 1    
    18    8  135 1    
    19    9   10 ar   
    20    9   14 ar   
    21   10   11 ar   
    22   10  136 1    
    23   11   12 ar   
    24   11  126 1    
    25   12   13 ar   
    26   12  137 1    
    27   13   14 ar   
    28   13   15 1    
    29   14  138 1    
    30   15   16 1    
    31   15  139 1    
    32   15  140 1    
    33   16   17 1    
    34   17   18 1    
    35   17  141 1    
    36   17  142 1    
    37   18   19 1    
    38   18   67 1    
    39   18  143 1    
    40   19   20 am   BACKBONE|DICT|INTERRES
    41   19  144 1    
    42   20   21 2    
    43   20   22 1    
    44   22   23 1    
    45   22   24 1    
    46   22  145 1    
    47   23  146 1    
    48   23  147 1    
    49   23  148 1    
    50   24   25 am   BACKBONE|DICT|INTERRES
    51   24  149 1    
    52   25   26 2    
    53   25   27 1    
    54   27   28 1    
    55   27   29 1    
    56   27  150 1    
    57   28  151 1    
    58   28  152 1    
    59   28  153 1    
    60   29   30 am   BACKBONE|DICT|INTERRES
    61   29  154 1    
    62   30   31 2    
    63   30   32 1    
    64   32   33 1    
    65   32   34 1    
    66   32  155 1    
    67   33  156 1    
    68   33  157 1    
    69   33  158 1    
    70   34   35 am   BACKBONE|DICT|INTERRES
    71   34  159 1    
    72   35   36 2    
    73   35   37 1    
    74   37   38 1    
    75   37   39 1    
    76   37  160 1    
    77   38  161 1    
    78   38  162 1    
    79   38  163 1    
    80   39   40 am   BACKBONE|DICT|INTERRES
    81   39  164 1    
    82   40   41 2    
    83   40   42 1    
    84   42   43 1    
    85   42   44 1    
    86   42  165 1    
    87   43  166 1    
    88   43  167 1    
    89   43  168 1    
    90   44   45 am   BACKBONE|DICT|INTERRES
    91   44  169 1    
    92   45   46 2    
    93   45   47 1    
    94   47   48 1    
    95   47   49 1    
    96   47  170 1    
    97   48  171 1    
    98   48  172 1    
    99   48  173 1    
   100   49   50 am   BACKBONE|DICT|INTERRES
   101   49  174 1    
   102   50   51 2    
   103   50   52 1    
   104   52   53 1    
   105   52   54 1    
   106   52  175 1    
   107   53  176 1    
   108   53  177 1    
   109   53  178 1    
   110   54   55 am   BACKBONE|DICT|INTERRES
   111   54  179 1    
   112   55   56 2    
   113   55   57 1    
   114   57   58 1    
   115   57   59 1    
   116   57  180 1    
   117   58  181 1    
   118   58  182 1    
   119   58  183 1    
   120   59   60 am   BACKBONE|DICT|INTERRES
   121   59  184 1    
   122   60   61 2    
   123   60   62 1    
   124   62   63 1    
   125   62   64 1    
   126   62  185 1    
   127   63  186 1    
   128   63  187 1    
   129   63  188 1    
   130   64   65 am   BACKBONE|DICT|INTERRES
   131   64  189 1    
   132   65   66 2    
   133   67   68 2    
   134   67   69 am   BACKBONE|DICT|INTERRES
   135   69   70 1    
   136   69  190 1    
   137   70   71 1    
   138   70   72 1    
   139   70  191 1    
   140   71  192 1    
   141   71  193 1    
   142   71  194 1    
   143   72   73 2    
   144   72   74 am   BACKBONE|DICT|INTERRES
   145   74   75 1    
   146   74  195 1    
   147   75   76 1    
   148   75   77 1    
   149   75  196 1    
   150   76  197 1    
   151   76  198 1    
   152   76  199 1    
   153   77   78 2    
   154   77   79 am   BACKBONE|DICT|INTERRES
   155   79   80 1    
   156   79  200 1    
   157   80   81 1    
   158   80   82 1    
   159   80  201 1    
   160   81  202 1    
   161   81  203 1    
   162   81  204 1    
   163   82   83 2    
   164   82   84 am   BACKBONE|DICT|INTERRES
   165   84   85 1    
   166   84  205 1    
   167   85   86 1    
   168   85   87 1    
   169   85  206 1    
   170   86  207 1    
   171   86  208 1    
   172   86  209 1    
   173   87   88 2    
   174   87   89 am   BACKBONE|DICT|INTERRES
   175   89   90 1    
   176   89  210 1    
   177   90   91 1    
   178   90   92 1    
   179   90  211 1    
   180   91  212 1    
   181   91  213 1    
   182   91  214 1    
   183   92   93 2    
   184   92   94 am   BACKBONE|DICT|INTERRES
   185   94   95 1    
   186   94  215 1    
   187   95   96 1    
   188   95   97 1    
   189   95  216 1    
   190   96  217 1    
   191   96  218 1    
   192   96  219 1    
   193   97   98 2    
   194   97   99 am   BACKBONE|DICT|INTERRES
   195   99  100 1    
   196   99  220 1    
   197  100  101 1    
   198  100  102 1    
   199  100  221 1    
   200  101  222 1    
   201  101  223 1    
   202  101  224 1    
   203  102  103 2    
   204  102  104 am   BACKBONE|DICT|INTERRES
   205  104  105 1    
   206  104  225 1    
   207  105  106 1    
   208  105  107 1    
   209  105  226 1    
   210  106  227 1    
   211  106  228 1    
   212  106  229 1    
   213  107  108 2    
   214  107  109 am   BACKBONE|DICT|INTERRES
   215  109  110 1    
   216  109  230 1    
   217  110  111 1    
   218  110  112 1    
   219  110  231 1    
   220  111  232 1    
   221  111  233 1    
   222  111  234 1    
   223  112  113 2    
   224  112  114 am   BACKBONE|DICT|INTERRES
   225  114  115 1    
   226  114  235 1    
   227  115  116 1    
   228  115  117 1    
   229  115  236 1    
   230  116  237 1    
   231  116  238 1    
   232  116  239 1    
   233  117  118 2    
   234  117  119 am   BACKBONE|DICT|INTERRES
   235  119  120 1    
   236  119  240 1    
   237  120  121 1    
   238  120  124 1    
   239  120  241 1    
   240  121  122 am   BACKBONE|DICT|INTERRES
   241  121  123 2    
   242  122  242 1    
   243  122  243 1    
   244  124  125 1    
   245  124  244 1    
   246  124  245 1    
   247  125  126 1    
   248  126  246 1    
   249  126  247 1    
@<TRIPOS>SUBSTRUCTURE
     1 UNK         1 GROUP             0       ****    0 ROOT    
