@<TRIPOS>MOLECULE
3R540
247   249    1
SMALL
USER_CHARGES


@<TRIPOS>ATOM
      1 CA          1.4033   -9.8511  -49.1869 C.3       0 UNK        -0.1800 
      2 C           1.8116  -10.9956  -48.2705 C.2       0 UNK         0.5000 
      3 O           2.5380  -10.7754  -47.3006 O.2       0 UNK        -0.5000 
      4 N           1.3525  -12.2153  -48.5749 N.am      1 UNK        -0.5000 
      5 CA          1.6000  -13.4271  -47.7900 C.3       1 UNK         0.1400 
      6 C6          1.4672  -14.7106  -48.6442 C.3       23 UNK        -0.0398 
      7 S7          2.8698  -14.8436  -49.8003 S.3       23 UNK        -0.2404 
      8 C8          2.0231  -15.1289  -51.3877 C.3       23 UNK        -0.0205 
      9 C9          1.4730  -16.5432  -51.5569 C.ar      23 UNK        -0.0193 
     10 C10         0.2817  -16.7339  -52.2632 C.ar      23 UNK        -0.1150 
     11 C11        -0.1964  -18.0214  -52.5217 C.ar      23 UNK        -0.0193 
     12 C12         0.5158  -19.1260  -52.0452 C.ar      23 UNK        -0.1150 
     13 C13         1.7016  -18.9550  -51.3262 C.ar      23 UNK        -0.0193 
     14 C14         2.1762  -17.6618  -51.0917 C.ar      23 UNK        -0.1150 
     15 C15         2.5124  -20.1608  -50.8644 C.3       23 UNK        -0.0205 
     16 S16         1.5562  -21.3425  -49.8606 S.3       23 UNK        -0.2404 
     17 C17         1.2782  -20.3963  -48.3258 C.3       23 UNK        -0.0398 
     18 CA         -0.0388  -20.8120  -47.6273 C.3       11 UNK         0.1400 
     19 N          -0.0217  -20.4998  -46.1954 N.am      11 UNK        -0.5000 
     20 C          -0.8863  -21.0051  -45.3028 C.2       10 UNK         0.5000 
     21 O          -1.7788  -21.7997  -45.5926 O.2       10 UNK        -0.5000 
     22 CA         -0.7681  -20.5046  -43.8524 C.3       10 UNK         0.1400 
     23 CB          0.2612  -21.3375  -43.0748 C.3       10 UNK        -0.1800 
     24 N          -0.4186  -19.0870  -43.7726 N.am      10 UNK        -0.5000 
     25 C          -1.1989  -18.0924  -44.2234 C.2       9 UNK         0.5000 
     26 O          -2.2989  -18.2736  -44.7413 O.2       9 UNK        -0.5000 
     27 CA         -0.6626  -16.6552  -44.1022 C.3       9 UNK         0.1400 
     28 CB         -1.1594  -16.0577  -42.7783 C.3       9 UNK        -0.1800 
     29 N           0.7976  -16.5654  -44.1698 N.am      9 UNK        -0.5000 
     30 C           1.5586  -17.0178  -45.1783 C.2       8 UNK         0.5000 
     31 O           1.1039  -17.5243  -46.2061 O.2       8 UNK        -0.5000 
     32 CA          3.0865  -16.9607  -44.9824 C.3       8 UNK         0.1400 
     33 CB          3.6862  -15.7155  -45.6500 C.3       8 UNK        -0.1800 
     34 N           3.5192  -17.0028  -43.5829 N.am      8 UNK        -0.5000 
     35 C           3.2765  -18.0002  -42.7211 C.2       7 UNK         0.5000 
     36 O           2.5838  -18.9799  -43.0040 O.2       7 UNK        -0.5000 
     37 CA          3.9224  -17.8986  -41.3252 C.3       7 UNK         0.1400 
     38 CB          4.4387  -16.4878  -40.9753 C.3       7 UNK        -0.1800 
     39 N           2.9699  -18.3258  -40.3032 N.am      7 UNK        -0.5000 
     40 C           2.9216  -19.5477  -39.7542 C.2       6 UNK         0.5000 
     41 O           3.7112  -20.4507  -40.0362 O.2       6 UNK        -0.5000 
     42 CA          1.8387  -19.8155  -38.6874 C.3       6 UNK         0.1400 
     43 CB          2.4866  -20.1095  -37.3239 C.3       6 UNK        -0.1800 
     44 N           0.9085  -18.6986  -38.5195 N.am      6 UNK        -0.5000 
     45 C          -0.2451  -18.5501  -39.1824 C.2       5 UNK         0.5000 
     46 O          -0.6820  -19.3636  -39.9958 O.2       5 UNK        -0.5000 
     47 CA         -1.0384  -17.2585  -38.8952 C.3       5 UNK         0.1400 
     48 CB         -2.0345  -17.4894  -37.7487 C.3       5 UNK        -0.1800 
     49 N          -0.2046  -16.0917  -38.5768 N.am      5 UNK        -0.5000 
     50 C           0.7420  -15.5767  -39.3723 C.2       4 UNK         0.5000 
     51 O           1.0741  -16.0712  -40.4513 O.2       4 UNK        -0.5000 
     52 CA          1.4761  -14.3353  -38.8551 C.3       4 UNK         0.1400 
     53 CB          2.5991  -14.7405  -37.8815 C.3       4 UNK        -0.1800 
     54 N           2.0254  -13.6174  -40.0001 N.am      4 UNK        -0.5000 
     55 C           2.4706  -12.3588  -40.0054 C.2       3 UNK         0.5000 
     56 O           2.4814  -11.6352  -39.0086 O.2       3 UNK        -0.5000 
     57 CA          2.9663  -11.7948  -41.3506 C.3       3 UNK         0.1400 
     58 CB          4.3282  -12.3947  -41.7543 C.3       3 UNK        -0.1800 
     59 N           1.9788  -11.8878  -42.4347 N.am      3 UNK        -0.5000 
     60 C           1.5359  -12.9749  -43.0810 C.2       2 UNK         0.5000 
     61 O           1.9329  -14.1191  -42.8558 O.2       2 UNK        -0.5000 
     62 CA          0.4868  -12.7501  -44.1820 C.3       2 UNK         0.1400 
     63 CB         -0.2611  -11.4045  -44.0904 C.3       2 UNK        -0.1800 
     64 N           1.1606  -12.8472  -45.4674 N.am      2 UNK        -0.5000 
     65 C           0.6749  -13.4429  -46.5602 C.2       1 UNK         0.5000 
     66 O          -0.4430  -13.9553  -46.6332 O.2       1 UNK        -0.5000 
     67 C          -1.2744  -20.2032  -48.3201 C.2       11 UNK         0.5000 
     68 O          -1.9051  -20.8712  -49.1420 O.2       11 UNK        -0.5000 
     69 N          -1.6211  -18.9674  -47.9321 N.am      12 UNK        -0.5000 
     70 CA         -2.8109  -18.2593  -48.3976 C.3       12 UNK         0.1400 
     71 CB         -2.7295  -16.7844  -47.9754 C.3       12 UNK        -0.1800 
     72 C          -4.1104  -18.9183  -47.8990 C.2       12 UNK         0.5000 
     73 O          -5.0324  -19.1111  -48.6908 O.2       12 UNK        -0.5000 
     74 N          -4.1456  -19.2944  -46.6120 N.am      13 UNK        -0.5000 
     75 CA         -5.2626  -19.9880  -45.9653 C.3       13 UNK         0.1400 
     76 CB         -5.0174  -20.0563  -44.4505 C.3       13 UNK        -0.1800 
     77 C          -5.5112  -21.3957  -46.5364 C.2       13 UNK         0.5000 
     78 O          -6.6664  -21.7824  -46.7159 O.2       13 UNK        -0.5000 
     79 N          -4.4276  -22.1208  -46.8472 N.am      14 UNK        -0.5000 
     80 CA         -4.4610  -23.4188  -47.5250 C.3       14 UNK         0.1400 
     81 CB         -3.1175  -24.1327  -47.3063 C.3       14 UNK        -0.1800 
     82 C          -4.7612  -23.3126  -49.0330 C.2       14 UNK         0.5000 
     83 O          -4.9663  -24.3439  -49.6729 O.2       14 UNK        -0.5000 
     84 N          -4.7394  -22.0906  -49.5844 N.am      15 UNK        -0.5000 
     85 CA         -4.9262  -21.7461  -50.9946 C.3       15 UNK         0.1400 
     86 CB         -6.3864  -21.9991  -51.4181 C.3       15 UNK        -0.1800 
     87 C          -3.8955  -22.4479  -51.9019 C.2       15 UNK         0.5000 
     88 O          -4.2678  -23.0476  -52.9129 O.2       15 UNK        -0.5000 
     89 N          -2.6208  -22.3935  -51.4846 N.am      16 UNK        -0.5000 
     90 CA         -1.4644  -23.0724  -52.0818 C.3       16 UNK         0.1400 
     91 CB         -1.1758  -22.5276  -53.4969 C.3       16 UNK        -0.1800 
     92 C          -1.6035  -24.6105  -52.0552 C.2       16 UNK         0.5000 
     93 O          -1.2007  -25.2810  -53.0048 O.2       16 UNK        -0.5000 
     94 N          -2.2065  -25.1355  -50.9770 N.am      17 UNK        -0.5000 
     95 CA         -2.6348  -26.5292  -50.7953 C.3       17 UNK         0.1400 
     96 CB         -1.4269  -27.4880  -50.7420 C.3       17 UNK        -0.1800 
     97 C          -3.7017  -26.9344  -51.8358 C.2       17 UNK         0.5000 
     98 O          -3.6082  -27.9968  -52.4529 O.2       17 UNK        -0.5000 
     99 N          -4.6861  -26.0418  -52.0137 N.am      18 UNK        -0.5000 
    100 CA        -5.8114  -26.0952  -52.9516 C.3       18 UNK         0.1400 
    101 CB        -6.7675  -27.2485  -52.5846 C.3       18 UNK        -0.1800 
    102 C         -5.4101  -26.1099  -54.4441 C.2       18 UNK         0.5000 
    103 O         -6.2216  -26.5043  -55.2841 O.2       18 UNK        -0.5000 
    104 N         -4.1872  -25.6686  -54.7685 N.am      19 UNK        -0.5000 
    105 CA        -3.6690  -25.5935  -56.1324 C.3       19 UNK         0.1400 
    106 CB        -2.1331  -25.5631  -56.1043 C.3       19 UNK        -0.1800 
    107 C         -4.2516  -24.3706  -56.8591 C.2       19 UNK         0.5000 
    108 O         -3.7547  -23.2560  -56.6840 O.2       19 UNK        -0.5000 
    109 N         -5.3207  -24.6043  -57.6336 N.am      20 UNK        -0.5000 
    110 CA        -6.0345  -23.6389  -58.4812 C.3       20 UNK         0.1400 
    111 CB        -5.1390  -23.2015  -59.6597 C.3       20 UNK        -0.1800 
    112 C         -6.6267  -22.4374  -57.7105 C.2       20 UNK         0.5000 
    113 O         -6.7793  -21.3592  -58.2868 O.2       20 UNK        -0.5000 
    114 N         -6.9474  -22.6531  -56.4247 N.am      21 UNK        -0.5000 
    115 CA        -7.4073  -21.6615  -55.4470 C.3       21 UNK         0.1400 
    116 CB        -8.8184  -21.1482  -55.8026 C.3       21 UNK        -0.1800 
    117 C         -6.3747  -20.5298  -55.2529 C.2       21 UNK         0.5000 
    118 O         -6.6823  -19.3563  -55.4707 O.2       21 UNK        -0.5000 
    119 N         -5.1582  -20.9212  -54.8536 N.am      22 UNK        -0.5000 
    120 CA        -3.9760  -20.0585  -54.7108 C.3       22 UNK         0.1400 
    121 C         -3.3978  -19.5986  -56.0835 C.2       22 UNK         0.5000 
    122 N         -3.2963  -20.4905  -57.0605 N.am      22 UNK        -0.7600 
    123 O         -3.0297  -18.4430  -56.2763 O.2       22 UNK        -0.5000 
    124 C124       -4.1608  -18.9159  -53.6599 C.3       23 UNK        -0.0398 
    125 S125       -2.8376  -18.8586  -52.4020 S.3       23 UNK        -0.2404 
    126 C126       -1.4417  -18.2199  -53.3723 C.3       23 UNK        -0.0205 
    127 H127        2.2879   -9.3800  -49.6154 H         1 UNK         0.0600 
    128 H128        0.8534   -9.0976  -48.6232 H         1 UNK         0.0600 
    129 H129        0.7698  -10.1930  -50.0059 H         1 UNK         0.0600 
    130 H130        0.7458  -12.3289  -49.3739 H         1 UNK         0.3000 
    131 H131        2.6268  -13.3928  -47.4178 H         1 UNK         0.0600 
    132 H132        0.5183  -14.7264  -49.1830 H         1 UNK         0.0800 
    133 H133        1.4713  -15.6046  -48.0203 H         1 UNK         0.0800 
    134 H134        2.7361  -14.9470  -52.1926 H         1 UNK         0.0800 
    135 H135        1.2320  -14.3869  -51.5069 H         1 UNK         0.0800 
    136 H136       -0.2560  -15.8781  -52.6468 H         1 UNK         0.1150 
    137 H137        0.1568  -20.1239  -52.2443 H         1 UNK         0.1150 
    138 H138        3.1122  -17.5286  -50.5685 H         1 UNK         0.1150 
    139 H139        2.8887  -20.6804  -51.7465 H         1 UNK         0.0800 
    140 H140        3.3902  -19.8480  -50.2967 H         1 UNK         0.0800 
    141 H141        1.3000  -19.3228  -48.5241 H         1 UNK         0.0800 
    142 H142        2.1284  -20.5972  -47.6724 H         1 UNK         0.0800 
    143 H143       -0.1312  -21.8980  -47.7043 H         1 UNK         0.0600 
    144 H144        0.6384  -19.7975  -45.8889 H         1 UNK         0.3000 
    145 H145       -1.7402  -20.6337  -43.3726 H         1 UNK         0.0600 
    146 H146        0.3435  -21.0008  -42.0411 H         1 UNK         0.0600 
    147 H147       -0.0260  -22.3894  -43.0534 H         1 UNK         0.0600 
    148 H148        1.2523  -21.2776  -43.5256 H         1 UNK         0.0600 
    149 H149        0.4909  -18.8647  -43.3824 H         1 UNK         0.3000 
    150 H150       -1.0660  -16.0676  -44.9288 H         1 UNK         0.0600 
    151 H151       -2.2413  -15.9216  -42.7955 H         1 UNK         0.0600 
    152 H152       -0.7098  -15.0925  -42.5568 H         1 UNK         0.0600 
    153 H153       -0.9299  -16.7221  -41.9470 H         1 UNK         0.0600 
    154 H154        1.2620  -16.1277  -43.3818 H         1 UNK         0.3000 
    155 H155        3.5038  -17.8411  -45.4753 H         1 UNK         0.0600 
    156 H156        3.3000  -14.7968  -45.2088 H         1 UNK         0.0600 
    157 H157        3.4620  -15.6988  -46.7158 H         1 UNK         0.0600 
    158 H158        4.7720  -15.7010  -45.5541 H         1 UNK         0.0600 
    159 H159        4.0528  -16.2098  -43.2583 H         1 UNK         0.3000 
    160 H160        4.7854  -18.5670  -41.3324 H         1 UNK         0.0600 
    161 H161        3.6496  -15.7390  -41.0350 H         1 UNK         0.0600 
    162 H162        5.2433  -16.1798  -41.6438 H         1 UNK         0.0600 
    163 H163        4.8450  -16.4621  -39.9643 H         1 UNK         0.0600 
    164 H164        2.2258  -17.6670  -40.1021 H         1 UNK         0.3000 
    165 H165        1.2895  -20.7061  -39.0001 H         1 UNK         0.0600 
    166 H166        1.7328  -20.3419  -36.5713 H         1 UNK         0.0600 
    167 H167        3.1571  -20.9677  -37.3837 H         1 UNK         0.0600 
    168 H168        3.0703  -19.2611  -36.9644 H         1 UNK         0.0600 
    169 H169        1.1843  -17.9750  -37.8721 H         1 UNK         0.3000 
    170 H170       -1.6126  -17.0196  -39.7911 H         1 UNK         0.0600 
    171 H171       -2.6876  -18.3366  -37.9628 H         1 UNK         0.0600 
    172 H172       -1.5240  -17.6982  -36.8076 H         1 UNK         0.0600 
    173 H173       -2.6738  -16.6191  -37.5991 H         1 UNK         0.0600 
    174 H174       -0.4002  -15.6351  -37.6974 H         1 UNK         0.3000 
    175 H175        0.7568  -13.6917  -38.3447 H         1 UNK         0.0600 
    176 H176        3.3397  -15.3770  -38.3658 H         1 UNK         0.0600 
    177 H177        3.1183  -13.8685  -37.4843 H         1 UNK         0.0600 
    178 H178        2.2006  -15.2913  -37.0288 H         1 UNK         0.0600 
    179 H179        1.9993  -14.1326  -40.8781 H         1 UNK         0.3000 
    180 H180        3.1248  -10.7261  -41.1972 H         1 UNK         0.0600 
    181 H181        4.2773  -13.4718  -41.9110 H         1 UNK         0.0600 
    182 H182        5.0735  -12.2176  -40.9781 H         1 UNK         0.0600 
    183 H183        4.7011  -11.9409  -42.6724 H         1 UNK         0.0600 
    184 H184        1.5633  -11.0045  -42.6954 H         1 UNK         0.3000 
    185 H185       -0.2470  -13.5506  -44.0928 H         1 UNK         0.0600 
    186 H186       -0.7268  -11.2767  -43.1122 H         1 UNK         0.0600 
    187 H187        0.3985  -10.5539  -44.2668 H         1 UNK         0.0600 
    188 H188       -1.0584  -11.3565  -44.8324 H         1 UNK         0.0600 
    189 H189        2.0764  -12.4193  -45.5154 H         1 UNK         0.3000 
    190 H190       -1.0541  -18.5002  -47.2381 H         1 UNK         0.3000 
    191 H191       -2.8158  -18.2958  -49.4882 H         1 UNK         0.0600 
    192 H192       -2.7129  -16.6709  -46.8914 H         1 UNK         0.0600 
    193 H193       -3.5875  -16.2253  -48.3501 H         1 UNK         0.0600 
    194 H194       -1.8326  -16.3088  -48.3735 H         1 UNK         0.0600 
    195 H195       -3.3637  -19.0454  -46.0092 H         1 UNK         0.3000 
    196 H196       -6.1642  -19.3967  -46.1373 H         1 UNK         0.0600 
    197 H197       -5.8451  -20.5517  -43.9415 H         1 UNK         0.0600 
    198 H198       -4.9220  -19.0588  -44.0212 H         1 UNK         0.0600 
    199 H199       -4.1077  -20.6099  -44.2160 H         1 UNK         0.0600 
    200 H200       -3.5084  -21.7651  -46.6023 H         1 UNK         0.3000 
    201 H201       -5.2486  -24.0277  -47.0766 H         1 UNK         0.0600 
    202 H202       -2.9083  -24.2599  -46.2440 H         1 UNK         0.0600 
    203 H203       -2.2899  -23.5745  -47.7462 H         1 UNK         0.0600 
    204 H204       -3.1208  -25.1272  -47.7534 H         1 UNK         0.0600 
    205 H205       -4.5387  -21.3060  -48.9779 H         1 UNK         0.3000 
    206 H206       -4.7398  -20.6755  -51.0739 H         1 UNK         0.0600 
    207 H207       -7.0825  -21.5091  -50.7372 H         1 UNK         0.0600 
    208 H208       -6.5743  -21.5978  -52.4117 H         1 UNK         0.0600 
    209 H209       -6.6288  -23.0618  -51.4372 H         1 UNK         0.0600 
    210 H210       -2.4211  -21.8570  -50.6412 H         1 UNK         0.3000 
    211 H211       -0.6086  -22.8295  -51.4513 H         1 UNK         0.0600 
    212 H212       -0.2310  -22.9145  -53.8800 H         1 UNK         0.0600 
    213 H213       -1.1058  -21.4422  -53.5004 H         1 UNK         0.0600 
    214 H214       -1.9546  -22.8087  -54.2056 H         1 UNK         0.0600 
    215 H215       -2.5341  -24.4898  -50.2736 H         1 UNK         0.3000 
    216 H216       -3.1283  -26.5747  -49.8237 H         1 UNK         0.0600 
    217 H217       -1.7442  -28.4961  -50.4731 H         1 UNK         0.0600 
    218 H218       -0.7014  -27.1662  -49.9950 H         1 UNK         0.0600 
    219 H219       -0.9140  -27.5552  -51.7015 H         1 UNK         0.0600 
    220 H220       -4.6764  -25.2233  -51.4119 H         1 UNK         0.3000 
    221 H221       -6.3564  -25.1618  -52.8064 H         1 UNK         0.0600 
    222 H222       -6.3137  -28.2231  -52.7663 H         1 UNK         0.0600 
    223 H223       -7.0551  -27.2022  -51.5342 H         1 UNK         0.0600 
    224 H224       -7.6853  -27.2011  -53.1717 H         1 UNK         0.0600 
    225 H225       -3.5954  -25.3020  -54.0350 H         1 UNK         0.3000 
    226 H226       -3.9638  -26.4964  -56.6717 H         1 UNK         0.0600 
    227 H227       -1.7309  -26.4418  -55.5996 H         1 UNK         0.0600 
    228 H228       -1.7266  -25.5526  -57.1160 H         1 UNK         0.0600 
    229 H229       -1.7517  -24.6810  -55.5916 H         1 UNK         0.0600 
    230 H230       -5.6936  -25.5447  -57.6435 H         1 UNK         0.3000 
    231 H231       -6.8881  -24.1746  -58.8988 H         1 UNK         0.0600 
    232 H232       -4.7449  -24.0640  -60.1971 H         1 UNK         0.0600 
    233 H233       -4.2934  -22.6010  -59.3230 H         1 UNK         0.0600 
    234 H234       -5.6992  -22.6030  -60.3790 H         1 UNK         0.0600 
    235 H235       -6.7763  -23.5802  -56.0620 H         1 UNK         0.3000 
    236 H236       -7.4843  -22.1855  -54.4939 H         1 UNK         0.0600 
    237 H237       -9.1982  -20.4873  -55.0227 H         1 UNK         0.0600 
    238 H238       -8.8272  -20.5870  -56.7372 H         1 UNK         0.0600 
    239 H239       -9.5241  -21.9731  -55.9008 H         1 UNK         0.0600 
    240 H240       -4.9839  -21.9072  -54.7005 H         1 UNK         0.3000 
    241 H241       -3.2152  -20.7331  -54.3247 H         1 UNK         0.0600 
    242 H242       -2.9264  -20.2052  -57.9523 H         1 UNK         0.3800 
    243 H243       -3.5459  -21.4670  -56.9082 H         1 UNK         0.3800 
    244 H244       -4.2704  -17.9347  -54.1237 H         1 UNK         0.0800 
    245 H245       -5.0872  -19.0620  -53.1035 H         1 UNK         0.0800 
    246 H246       -1.7360  -17.2851  -53.8522 H         1 UNK         0.0800 
    247 H247       -1.2060  -18.9188  -54.1753 H         1 UNK         0.0800 
@<TRIPOS>BOND
     1    1    2 1    
     2    1  127 1    
     3    1  128 1    
     4    1  129 1    
     5    2    3 2    
     6    2    4 am   BACKBONE|DICT|INTERRES
     7    4    5 1    
     8    4  130 1    
     9    5    6 1    
    10    5   65 1    
    11    5  131 1    
    12    6    7 1    
    13    6  132 1    
    14    6  133 1    
    15    7    8 1    
    16    8    9 1    
    17    8  134 1    
    18    8  135 1    
    19    9   10 ar   
    20    9   14 ar   
    21   10   11 ar   
    22   10  136 1    
    23   11   12 ar   
    24   11  126 1    
    25   12   13 ar   
    26   12  137 1    
    27   13   14 ar   
    28   13   15 1    
    29   14  138 1    
    30   15   16 1    
    31   15  139 1    
    32   15  140 1    
    33   16   17 1    
    34   17   18 1    
    35   17  141 1    
    36   17  142 1    
    37   18   19 1    
    38   18   67 1    
    39   18  143 1    
    40   19   20 am   BACKBONE|DICT|INTERRES
    41   19  144 1    
    42   20   21 2    
    43   20   22 1    
    44   22   23 1    
    45   22   24 1    
    46   22  145 1    
    47   23  146 1    
    48   23  147 1    
    49   23  148 1    
    50   24   25 am   BACKBONE|DICT|INTERRES
    51   24  149 1    
    52   25   26 2    
    53   25   27 1    
    54   27   28 1    
    55   27   29 1    
    56   27  150 1    
    57   28  151 1    
    58   28  152 1    
    59   28  153 1    
    60   29   30 am   BACKBONE|DICT|INTERRES
    61   29  154 1    
    62   30   31 2    
    63   30   32 1    
    64   32   33 1    
    65   32   34 1    
    66   32  155 1    
    67   33  156 1    
    68   33  157 1    
    69   33  158 1    
    70   34   35 am   BACKBONE|DICT|INTERRES
    71   34  159 1    
    72   35   36 2    
    73   35   37 1    
    74   37   38 1    
    75   37   39 1    
    76   37  160 1    
    77   38  161 1    
    78   38  162 1    
    79   38  163 1    
    80   39   40 am   BACKBONE|DICT|INTERRES
    81   39  164 1    
    82   40   41 2    
    83   40   42 1    
    84   42   43 1    
    85   42   44 1    
    86   42  165 1    
    87   43  166 1    
    88   43  167 1    
    89   43  168 1    
    90   44   45 am   BACKBONE|DICT|INTERRES
    91   44  169 1    
    92   45   46 2    
    93   45   47 1    
    94   47   48 1    
    95   47   49 1    
    96   47  170 1    
    97   48  171 1    
    98   48  172 1    
    99   48  173 1    
   100   49   50 am   BACKBONE|DICT|INTERRES
   101   49  174 1    
   102   50   51 2    
   103   50   52 1    
   104   52   53 1    
   105   52   54 1    
   106   52  175 1    
   107   53  176 1    
   108   53  177 1    
   109   53  178 1    
   110   54   55 am   BACKBONE|DICT|INTERRES
   111   54  179 1    
   112   55   56 2    
   113   55   57 1    
   114   57   58 1    
   115   57   59 1    
   116   57  180 1    
   117   58  181 1    
   118   58  182 1    
   119   58  183 1    
   120   59   60 am   BACKBONE|DICT|INTERRES
   121   59  184 1    
   122   60   61 2    
   123   60   62 1    
   124   62   63 1    
   125   62   64 1    
   126   62  185 1    
   127   63  186 1    
   128   63  187 1    
   129   63  188 1    
   130   64   65 am   BACKBONE|DICT|INTERRES
   131   64  189 1    
   132   65   66 2    
   133   67   68 2    
   134   67   69 am   BACKBONE|DICT|INTERRES
   135   69   70 1    
   136   69  190 1    
   137   70   71 1    
   138   70   72 1    
   139   70  191 1    
   140   71  192 1    
   141   71  193 1    
   142   71  194 1    
   143   72   73 2    
   144   72   74 am   BACKBONE|DICT|INTERRES
   145   74   75 1    
   146   74  195 1    
   147   75   76 1    
   148   75   77 1    
   149   75  196 1    
   150   76  197 1    
   151   76  198 1    
   152   76  199 1    
   153   77   78 2    
   154   77   79 am   BACKBONE|DICT|INTERRES
   155   79   80 1    
   156   79  200 1    
   157   80   81 1    
   158   80   82 1    
   159   80  201 1    
   160   81  202 1    
   161   81  203 1    
   162   81  204 1    
   163   82   83 2    
   164   82   84 am   BACKBONE|DICT|INTERRES
   165   84   85 1    
   166   84  205 1    
   167   85   86 1    
   168   85   87 1    
   169   85  206 1    
   170   86  207 1    
   171   86  208 1    
   172   86  209 1    
   173   87   88 2    
   174   87   89 am   BACKBONE|DICT|INTERRES
   175   89   90 1    
   176   89  210 1    
   177   90   91 1    
   178   90   92 1    
   179   90  211 1    
   180   91  212 1    
   181   91  213 1    
   182   91  214 1    
   183   92   93 2    
   184   92   94 am   BACKBONE|DICT|INTERRES
   185   94   95 1    
   186   94  215 1    
   187   95   96 1    
   188   95   97 1    
   189   95  216 1    
   190   96  217 1    
   191   96  218 1    
   192   96  219 1    
   193   97   98 2    
   194   97   99 am   BACKBONE|DICT|INTERRES
   195   99  100 1    
   196   99  220 1    
   197  100  101 1    
   198  100  102 1    
   199  100  221 1    
   200  101  222 1    
   201  101  223 1    
   202  101  224 1    
   203  102  103 2    
   204  102  104 am   BACKBONE|DICT|INTERRES
   205  104  105 1    
   206  104  225 1    
   207  105  106 1    
   208  105  107 1    
   209  105  226 1    
   210  106  227 1    
   211  106  228 1    
   212  106  229 1    
   213  107  108 2    
   214  107  109 am   BACKBONE|DICT|INTERRES
   215  109  110 1    
   216  109  230 1    
   217  110  111 1    
   218  110  112 1    
   219  110  231 1    
   220  111  232 1    
   221  111  233 1    
   222  111  234 1    
   223  112  113 2    
   224  112  114 am   BACKBONE|DICT|INTERRES
   225  114  115 1    
   226  114  235 1    
   227  115  116 1    
   228  115  117 1    
   229  115  236 1    
   230  116  237 1    
   231  116  238 1    
   232  116  239 1    
   233  117  118 2    
   234  117  119 am   BACKBONE|DICT|INTERRES
   235  119  120 1    
   236  119  240 1    
   237  120  121 1    
   238  120  124 1    
   239  120  241 1    
   240  121  122 am   BACKBONE|DICT|INTERRES
   241  121  123 2    
   242  122  242 1    
   243  122  243 1    
   244  124  125 1    
   245  124  244 1    
   246  124  245 1    
   247  125  126 1    
   248  126  246 1    
   249  126  247 1    
@<TRIPOS>SUBSTRUCTURE
     1 UNK         1 GROUP             0       ****    0 ROOT    
