@<TRIPOS>MOLECULE
3R540
247   249    1
SMALL
USER_CHARGES


@<TRIPOS>ATOM
      1 CA          3.9879  -15.2564  -47.1255 C.3       0 UNK        -0.1800 
      2 C           2.9522  -14.3390  -46.4933 C.2       0 UNK         0.5000 
      3 O           2.9516  -14.1630  -45.2779 O.2       0 UNK        -0.5000 
      4 N           2.0736  -13.7461  -47.3137 N.am      1 UNK        -0.5000 
      5 CA          0.9348  -12.9153  -46.8891 C.3       1 UNK         0.1400 
      6 C6         -0.0654  -12.6893  -48.0589 C.3       23 UNK        -0.0398 
      7 S7         -1.8147  -12.9186  -47.5796 S.3       23 UNK        -0.2404 
      8 C8         -1.9865  -14.7326  -47.4581 C.3       23 UNK        -0.0205 
      9 C9         -1.7284  -15.4471  -48.7763 C.ar      23 UNK        -0.0193 
     10 C10        -2.7568  -15.6217  -49.7076 C.ar      23 UNK        -0.1150 
     11 C11        -2.5074  -16.2654  -50.9244 C.ar      23 UNK        -0.0193 
     12 C12        -1.2196  -16.7328  -51.2052 C.ar      23 UNK        -0.1150 
     13 C13        -0.1880  -16.5730  -50.2772 C.ar      23 UNK        -0.0193 
     14 C14        -0.4527  -15.9398  -49.0610 C.ar      23 UNK        -0.1150 
     15 C15         1.2191  -17.0535  -50.5996 C.3       23 UNK        -0.0205 
     16 S16         1.3961  -18.8565  -50.4389 S.3       23 UNK        -0.2404 
     17 C17         1.1255  -19.1031  -48.6505 C.3       23 UNK        -0.0398 
     18 CA          0.1909  -20.2929  -48.3382 C.3       11 UNK         0.1400 
     19 N           0.2904  -20.6848  -46.9327 N.am      11 UNK        -0.5000 
     20 C          -0.1320  -21.8559  -46.4422 C.2       10 UNK         0.5000 
     21 O          -0.6634  -22.7294  -47.1264 O.2       10 UNK        -0.5000 
     22 CA          0.0372  -22.0734  -44.9286 C.3       10 UNK         0.1400 
     23 CB          1.4982  -22.3970  -44.5822 C.3       10 UNK        -0.1800 
     24 N          -0.4148  -20.9263  -44.1412 N.am      10 UNK        -0.5000 
     25 C          -1.6819  -20.4880  -44.1105 C.2       9 UNK         0.5000 
     26 O          -2.6047  -21.0150  -44.7317 O.2       9 UNK        -0.5000 
     27 CA         -1.9612  -19.2296  -43.2718 C.3       9 UNK         0.1400 
     28 CB         -2.0460  -19.5801  -41.7789 C.3       9 UNK        -0.1800 
     29 N          -0.9651  -18.1781  -43.4730 N.am      9 UNK        -0.5000 
     30 C          -0.7309  -17.5647  -44.6424 C.2       8 UNK         0.5000 
     31 O          -1.3265  -17.8173  -45.6866 O.2       8 UNK        -0.5000 
     32 CA          0.4014  -16.5293  -44.6624 C.3       8 UNK         0.1400 
     33 CB         -0.0103  -15.2629  -43.8922 C.3       8 UNK        -0.1800 
     34 N           1.6405  -17.0696  -44.1121 N.am      8 UNK        -0.5000 
     35 C           2.2915  -18.1502  -44.5642 C.2       7 UNK         0.5000 
     36 O           1.9440  -18.8063  -45.5453 O.2       7 UNK        -0.5000 
     37 CA          3.5136  -18.6015  -43.7503 C.3       7 UNK         0.1400 
     38 CB          4.7619  -17.7992  -44.1487 C.3       7 UNK        -0.1800 
     39 N           3.2794  -18.4727  -42.3124 N.am      7 UNK        -0.5000 
     40 C           2.4490  -19.2522  -41.6064 C.2       6 UNK         0.5000 
     41 O           1.8141  -20.1913  -42.0883 O.2       6 UNK        -0.5000 
     42 CA          2.2752  -18.8969  -40.1179 C.3       6 UNK         0.1400 
     43 CB          3.4607  -19.4169  -39.2909 C.3       6 UNK        -0.1800 
     44 N           2.1174  -17.4580  -39.8931 N.am      6 UNK        -0.5000 
     45 C           1.0513  -16.7524  -40.2932 C.2       5 UNK         0.5000 
     46 O           0.0895  -17.2466  -40.8818 O.2       5 UNK        -0.5000 
     47 CA          1.0661  -15.2353  -40.0189 C.3       5 UNK         0.1400 
     48 CB          0.6216  -14.9494  -38.5766 C.3       5 UNK        -0.1800 
     49 N           2.3300  -14.5334  -40.2793 N.am      5 UNK        -0.5000 
     50 C           3.1173  -14.6579  -41.3569 C.2       4 UNK         0.5000 
     51 O           2.9776  -15.5272  -42.2134 O.2       4 UNK        -0.5000 
     52 CA          4.2008  -13.5818  -41.5357 C.3       4 UNK         0.1400 
     53 CB          5.3242  -14.0251  -42.4900 C.3       4 UNK        -0.1800 
     54 N           3.5791  -12.3700  -42.0655 N.am      4 UNK        -0.5000 
     55 C           2.9679  -11.4371  -41.3252 C.2       3 UNK         0.5000 
     56 O           2.9251  -11.4876  -40.0942 O.2       3 UNK        -0.5000 
     57 CA          2.2455  -10.2809  -42.0520 C.3       3 UNK         0.1400 
     58 CB          2.6296   -8.9081  -41.4621 C.3       3 UNK        -0.1800 
     59 N           2.3625  -10.2685  -43.5172 N.am      3 UNK        -0.5000 
     60 C           3.4479  -10.0486  -44.2710 C.2       2 UNK         0.5000 
     61 O           4.5837   -9.9203  -43.8118 O.2       2 UNK        -0.5000 
     62 CA          3.2091   -9.9624  -45.7967 C.3       2 UNK         0.1400 
     63 CB          4.4977   -9.6542  -46.5809 C.3       2 UNK        -0.1800 
     64 N           2.6091  -11.1766  -46.3540 N.am      2 UNK        -0.5000 
     65 C           1.3386  -11.5810  -46.2146 C.2       1 UNK         0.5000 
     66 O           0.4981  -10.9461  -45.5755 O.2       1 UNK        -0.5000 
     67 C          -1.2730  -20.0554  -48.7728 C.2       11 UNK         0.5000 
     68 O          -1.6449  -20.4788  -49.8659 O.2       11 UNK        -0.5000 
     69 N          -2.0935  -19.4520  -47.8987 N.am      12 UNK        -0.5000 
     70 CA         -3.5253  -19.2467  -48.1292 C.3       12 UNK         0.1400 
     71 CB         -4.0973  -18.3000  -47.0644 C.3       12 UNK        -0.1800 
     72 C          -4.3323  -20.5580  -48.1666 C.2       12 UNK         0.5000 
     73 O          -5.3180  -20.6300  -48.8978 O.2       12 UNK        -0.5000 
     74 N          -3.9144  -21.5673  -47.3887 N.am      13 UNK        -0.5000 
     75 CA         -4.4740  -22.9195  -47.4330 C.3       13 UNK         0.1400 
     76 CB         -4.1230  -23.6656  -46.1376 C.3       13 UNK        -0.1800 
     77 C          -3.9787  -23.7077  -48.6584 C.2       13 UNK         0.5000 
     78 O          -4.7537  -24.4590  -49.2556 O.2       13 UNK        -0.5000 
     79 N          -2.7014  -23.5169  -49.0153 N.am      14 UNK        -0.5000 
     80 CA         -1.9800  -24.1693  -50.1079 C.3       14 UNK         0.1400 
     81 CB         -2.5591  -23.7273  -51.4704 C.3       14 UNK        -0.1800 
     82 C          -1.9411  -25.6977  -49.8974 C.2       14 UNK         0.5000 
     83 O          -1.6343  -26.1488  -48.7925 O.2       14 UNK        -0.5000 
     84 N          -2.3066  -26.4744  -50.9241 N.am      15 UNK        -0.5000 
     85 CA         -2.4724  -27.9302  -50.8766 C.3       15 UNK         0.1400 
     86 CB         -2.2434  -28.4895  -52.2931 C.3       15 UNK        -0.1800 
     87 C          -3.8457  -28.3427  -50.2931 C.2       15 UNK         0.5000 
     88 O          -4.4733  -29.2714  -50.8044 O.2       15 UNK        -0.5000 
     89 N          -4.2993  -27.6223  -49.2546 N.am      16 UNK        -0.5000 
     90 CA         -5.6164  -27.6987  -48.6094 C.3       16 UNK         0.1400 
     91 CB         -5.7742  -29.0282  -47.8429 C.3       16 UNK        -0.1800 
     92 C          -6.7662  -27.4256  -49.6037 C.2       16 UNK         0.5000 
     93 O          -7.7648  -28.1484  -49.6199 O.2       16 UNK        -0.5000 
     94 N          -6.5770  -26.3986  -50.4411 N.am      17 UNK        -0.5000 
     95 CA         -7.4521  -26.0667  -51.5669 C.3       17 UNK         0.1400 
     96 CB         -7.0573  -26.9281  -52.7818 C.3       17 UNK        -0.1800 
     97 C          -7.4377  -24.5742  -51.9426 C.2       17 UNK         0.5000 
     98 O          -8.2776  -24.1645  -52.7455 O.2       17 UNK        -0.5000 
     99 N          -6.4925  -23.7924  -51.3965 N.am      18 UNK        -0.5000 
    100 CA        -6.2083  -22.3731  -51.6514 C.3       18 UNK         0.1400 
    101 CB        -7.3940  -21.4742  -51.2524 C.3       18 UNK        -0.1800 
    102 C         -5.7334  -22.0675  -53.0833 C.2       18 UNK         0.5000 
    103 O         -4.6324  -21.5469  -53.2632 O.2       18 UNK        -0.5000 
    104 N         -6.5520  -22.4231  -54.0808 N.am      19 UNK        -0.5000 
    105 CA        -6.3646  -22.1621  -55.5112 C.3       19 UNK         0.1400 
    106 CB        -7.5799  -22.7061  -56.2760 C.3       19 UNK        -0.1800 
    107 C         -5.0596  -22.7260  -56.1053 C.2       19 UNK         0.5000 
    108 O         -4.5714  -22.1925  -57.1015 O.2       19 UNK        -0.5000 
    109 N         -4.4931  -23.7556  -55.4613 N.am      20 UNK        -0.5000 
    110 CA        -3.1898  -24.3388  -55.7826 C.3       20 UNK         0.1400 
    111 CB        -2.9851  -25.6001  -54.9282 C.3       20 UNK        -0.1800 
    112 C         -2.0058  -23.3584  -55.6230 C.2       20 UNK         0.5000 
    113 O         -0.9814  -23.5575  -56.2772 O.2       20 UNK        -0.5000 
    114 N         -2.1675  -22.3197  -54.7897 N.am      21 UNK        -0.5000 
    115 CA        -1.2228  -21.2094  -54.6530 C.3       21 UNK         0.1400 
    116 CB        -0.7405  -21.1131  -53.1976 C.3       21 UNK        -0.1800 
    117 C         -1.8658  -19.8816  -55.0852 C.2       21 UNK         0.5000 
    118 O         -1.2113  -19.0867  -55.7610 O.2       21 UNK        -0.5000 
    119 N         -3.1236  -19.6571  -54.6844 N.am      22 UNK        -0.5000 
    120 CA        -3.8557  -18.3968  -54.8858 C.3       22 UNK         0.1400 
    121 C         -4.4991  -18.2245  -56.2921 C.2       22 UNK         0.5000 
    122 N         -4.5082  -19.2258  -57.1627 N.am      22 UNK        -0.7600 
    123 O         -4.9931  -17.1459  -56.6087 O.2       22 UNK        -0.5000 
    124 C124       -4.8962  -18.1502  -53.7598 C.3       23 UNK        -0.0398 
    125 S125       -4.1498  -18.1618  -52.0929 S.3       23 UNK        -0.2404 
    126 C126       -3.6103  -16.4293  -51.9580 C.3       23 UNK        -0.0205 
    127 H127        4.9881  -14.9820  -46.7904 H         1 UNK         0.0600 
    128 H128        3.7986  -16.2881  -46.8291 H         1 UNK         0.0600 
    129 H129        3.9659  -15.2047  -48.2142 H         1 UNK         0.0600 
    130 H130        2.1600  -13.8935  -48.3090 H         1 UNK         0.3000 
    131 H131        0.4293  -13.4894  -46.1122 H         1 UNK         0.0600 
    132 H132        0.1442  -13.3502  -48.8982 H         1 UNK         0.0800 
    133 H133        0.0364  -11.6882  -48.4825 H         1 UNK         0.0800 
    134 H134       -1.3135  -15.1120  -46.6913 H         1 UNK         0.0800 
    135 H135       -2.9941  -14.9626  -47.1099 H         1 UNK         0.0800 
    136 H136       -3.7465  -15.2465  -49.4883 H         1 UNK         0.1150 
    137 H137       -1.0216  -17.2253  -52.1472 H         1 UNK         0.1150 
    138 H138        0.3406  -15.8127  -48.3387 H         1 UNK         0.1150 
    139 H139        1.4705  -16.7667  -51.6217 H         1 UNK         0.0800 
    140 H140        1.9527  -16.5627  -49.9580 H         1 UNK         0.0800 
    141 H141        0.7580  -18.1966  -48.1714 H         1 UNK         0.0800 
    142 H142        2.1081  -19.2860  -48.2135 H         1 UNK         0.0800 
    143 H143        0.5532  -21.1438  -48.9201 H         1 UNK         0.0600 
    144 H144        0.7360  -20.0156  -46.3087 H         1 UNK         0.3000 
    145 H145       -0.5754  -22.9326  -44.6477 H         1 UNK         0.0600 
    146 H146        1.6064  -22.6440  -43.5260 H         1 UNK         0.0600 
    147 H147        1.8555  -23.2537  -45.1549 H         1 UNK         0.0600 
    148 H148        2.1597  -21.5574  -44.7978 H         1 UNK         0.0600 
    149 H149        0.2858  -20.4501  -43.5844 H         1 UNK         0.3000 
    150 H150       -2.9293  -18.8326  -43.5838 H         1 UNK         0.0600 
    151 H151       -2.7821  -20.3652  -41.6015 H         1 UNK         0.0600 
    152 H152       -2.3454  -18.7141  -41.1883 H         1 UNK         0.0600 
    153 H153       -1.0880  -19.9316  -41.3931 H         1 UNK         0.0600 
    154 H154       -0.4350  -17.8955  -42.6533 H         1 UNK         0.3000 
    155 H155        0.5984  -16.2571  -45.7007 H         1 UNK         0.0600 
    156 H156       -0.2754  -15.4864  -42.8606 H         1 UNK         0.0600 
    157 H157       -0.8788  -14.7897  -44.3505 H         1 UNK         0.0600 
    158 H158        0.7908  -14.5254  -43.8711 H         1 UNK         0.0600 
    159 H159        2.0540  -16.5558  -43.3351 H         1 UNK         0.3000 
    160 H160        3.6992  -19.6539  -43.9746 H         1 UNK         0.0600 
    161 H161        4.9909  -17.9389  -45.2057 H         1 UNK         0.0600 
    162 H162        5.6357  -18.1196  -43.5815 H         1 UNK         0.0600 
    163 H163        4.6269  -16.7298  -43.9833 H         1 UNK         0.0600 
    164 H164        3.6699  -17.6540  -41.8663 H         1 UNK         0.3000 
    165 H165        1.3708  -19.3961  -39.7630 H         1 UNK         0.0600 
    166 H166        3.3032  -19.2458  -38.2259 H         1 UNK         0.0600 
    167 H167        3.5920  -20.4908  -39.4306 H         1 UNK         0.0600 
    168 H168        4.3956  -18.9320  -39.5745 H         1 UNK         0.0600 
    169 H169        2.8731  -16.9749  -39.4301 H         1 UNK         0.3000 
    170 H170        0.3264  -14.7871  -40.6839 H         1 UNK         0.0600 
    171 H171       -0.3289  -15.4367  -38.3547 H         1 UNK         0.0600 
    172 H172        1.3530  -15.3095  -37.8521 H         1 UNK         0.0600 
    173 H173        0.4829  -13.8808  -38.4105 H         1 UNK         0.0600 
    174 H174        2.5250  -13.7530  -39.6655 H         1 UNK         0.3000 
    175 H175        4.6506  -13.3791  -40.5615 H         1 UNK         0.0600 
    176 H176        4.9526  -14.2111  -43.4979 H         1 UNK         0.0600 
    177 H177        6.1028  -13.2653  -42.5584 H         1 UNK         0.0600 
    178 H178        5.7944  -14.9443  -42.1389 H         1 UNK         0.0600 
    179 H179        3.5382  -12.2903  -43.0717 H         1 UNK         0.3000 
    180 H180        1.1843  -10.4325  -41.8502 H         1 UNK         0.0600 
    181 H181        3.6949   -8.7031  -41.5711 H         1 UNK         0.0600 
    182 H182        2.3974   -8.8591  -40.3976 H         1 UNK         0.0600 
    183 H183        2.0804   -8.1018  -41.9482 H         1 UNK         0.0600 
    184 H184        1.4930  -10.4180  -44.0233 H         1 UNK         0.3000 
    185 H185        2.5181   -9.1332  -45.9620 H         1 UNK         0.0600 
    186 H186        4.9581   -8.7293  -46.2311 H         1 UNK         0.0600 
    187 H187        5.2350  -10.4508  -46.4731 H         1 UNK         0.0600 
    188 H188        4.2921   -9.5289  -47.6441 H         1 UNK         0.0600 
    189 H189        3.2345  -11.7868  -46.8594 H         1 UNK         0.3000 
    190 H190       -1.7199  -19.0791  -47.0295 H         1 UNK         0.3000 
    191 H191       -3.6370  -18.7639  -49.1022 H         1 UNK         0.0600 
    192 H192       -3.9783  -18.7074  -46.0598 H         1 UNK         0.0600 
    193 H193       -5.1615  -18.1253  -47.2268 H         1 UNK         0.0600 
    194 H194       -3.6023  -17.3305  -47.0959 H         1 UNK         0.0600 
    195 H195       -3.1457  -21.4078  -46.7473 H         1 UNK         0.3000 
    196 H196       -5.5618  -22.8494  -47.4988 H         1 UNK         0.0600 
    197 H197       -3.0443  -23.7530  -46.0018 H         1 UNK         0.0600 
    198 H198       -4.5372  -24.6746  -46.1429 H         1 UNK         0.0600 
    199 H199       -4.5277  -23.1511  -45.2659 H         1 UNK         0.0600 
    200 H200       -2.1188  -22.9565  -48.4010 H         1 UNK         0.3000 
    201 H201       -0.9501  -23.8150  -50.0477 H         1 UNK         0.0600 
    202 H202       -2.6677  -22.6440  -51.5072 H         1 UNK         0.0600 
    203 H203       -3.5427  -24.1534  -51.6666 H         1 UNK         0.0600 
    204 H204       -1.8947  -24.0101  -52.2868 H         1 UNK         0.0600 
    205 H205       -2.5721  -26.0275  -51.7879 H         1 UNK         0.3000 
    206 H206       -1.7074  -28.3553  -50.2237 H         1 UNK         0.0600 
    207 H207       -1.2690  -28.1933  -52.6820 H         1 UNK         0.0600 
    208 H208       -2.2719  -29.5798  -52.2949 H         1 UNK         0.0600 
    209 H209       -3.0042  -28.1389  -52.9917 H         1 UNK         0.0600 
    210 H210       -3.6916  -26.8881  -48.9125 H         1 UNK         0.3000 
    211 H211       -5.6478  -26.8902  -47.8774 H         1 UNK         0.0600 
    212 H212       -5.7982  -29.8854  -48.5163 H         1 UNK         0.0600 
    213 H213       -6.7003  -29.0389  -47.2672 H         1 UNK         0.0600 
    214 H214       -4.9544  -29.1769  -47.1401 H         1 UNK         0.0600 
    215 H215       -5.7510  -25.8287  -50.3002 H         1 UNK         0.3000 
    216 H216       -8.4841  -26.2988  -51.2955 H         1 UNK         0.0600 
    217 H217       -7.6911  -26.7130  -53.6431 H         1 UNK         0.0600 
    218 H218       -7.1608  -27.9913  -52.5639 H         1 UNK         0.0600 
    219 H219       -6.0234  -26.7487  -53.0795 H         1 UNK         0.0600 
    220 H220       -5.8775  -24.1975  -50.6979 H         1 UNK         0.3000 
    221 H221       -5.3716  -22.1244  -50.9987 H         1 UNK         0.0600 
    222 H222       -8.2742  -21.6467  -51.8718 H         1 UNK         0.0600 
    223 H223       -7.6771  -21.6406  -50.2131 H         1 UNK         0.0600 
    224 H224       -7.1273  -20.4209  -51.3493 H         1 UNK         0.0600 
    225 H225       -7.4010  -22.9168  -53.8154 H         1 UNK         0.3000 
    226 H226       -6.3350  -21.0786  -55.6404 H         1 UNK         0.0600 
    227 H227       -8.5028  -22.2369  -55.9346 H         1 UNK         0.0600 
    228 H228       -7.4921  -22.5079  -57.3452 H         1 UNK         0.0600 
    229 H229       -7.6843  -23.7842  -56.1474 H         1 UNK         0.0600 
    230 H230       -4.9698  -24.1235  -54.6524 H         1 UNK         0.3000 
    231 H231       -3.2133  -24.6413  -56.8316 H         1 UNK         0.0600 
    232 H232       -3.7373  -26.3553  -55.1571 H         1 UNK         0.0600 
    233 H233       -3.0483  -25.3808  -53.8640 H         1 UNK         0.0600 
    234 H234       -2.0089  -26.0495  -55.1158 H         1 UNK         0.0600 
    235 H235       -3.0481  -22.2234  -54.2957 H         1 UNK         0.3000 
    236 H236       -0.3469  -21.3679  -55.2853 H         1 UNK         0.0600 
    237 H237        0.0091  -20.3287  -53.0859 H         1 UNK         0.0600 
    238 H238       -1.5601  -20.8729  -52.5203 H         1 UNK         0.0600 
    239 H239       -0.2876  -22.0466  -52.8644 H         1 UNK         0.0600 
    240 H240       -3.5986  -20.3457  -54.1055 H         1 UNK         0.3000 
    241 H241       -3.1252  -17.5889  -54.8169 H         1 UNK         0.0600 
    242 H242       -4.9216  -19.0796  -58.0697 H         1 UNK         0.3800 
    243 H243       -4.1348  -20.1375  -56.9336 H         1 UNK         0.3800 
    244 H244       -5.4097  -17.1977  -53.9027 H         1 UNK         0.0800 
    245 H245       -5.6706  -18.9182  -53.7894 H         1 UNK         0.0800 
    246 H246       -3.2383  -16.0789  -52.9215 H         1 UNK         0.0800 
    247 H247       -4.4705  -15.8043  -51.7137 H         1 UNK         0.0800 
@<TRIPOS>BOND
     1    1    2 1    
     2    1  127 1    
     3    1  128 1    
     4    1  129 1    
     5    2    3 2    
     6    2    4 am   BACKBONE|DICT|INTERRES
     7    4    5 1    
     8    4  130 1    
     9    5    6 1    
    10    5   65 1    
    11    5  131 1    
    12    6    7 1    
    13    6  132 1    
    14    6  133 1    
    15    7    8 1    
    16    8    9 1    
    17    8  134 1    
    18    8  135 1    
    19    9   10 ar   
    20    9   14 ar   
    21   10   11 ar   
    22   10  136 1    
    23   11   12 ar   
    24   11  126 1    
    25   12   13 ar   
    26   12  137 1    
    27   13   14 ar   
    28   13   15 1    
    29   14  138 1    
    30   15   16 1    
    31   15  139 1    
    32   15  140 1    
    33   16   17 1    
    34   17   18 1    
    35   17  141 1    
    36   17  142 1    
    37   18   19 1    
    38   18   67 1    
    39   18  143 1    
    40   19   20 am   BACKBONE|DICT|INTERRES
    41   19  144 1    
    42   20   21 2    
    43   20   22 1    
    44   22   23 1    
    45   22   24 1    
    46   22  145 1    
    47   23  146 1    
    48   23  147 1    
    49   23  148 1    
    50   24   25 am   BACKBONE|DICT|INTERRES
    51   24  149 1    
    52   25   26 2    
    53   25   27 1    
    54   27   28 1    
    55   27   29 1    
    56   27  150 1    
    57   28  151 1    
    58   28  152 1    
    59   28  153 1    
    60   29   30 am   BACKBONE|DICT|INTERRES
    61   29  154 1    
    62   30   31 2    
    63   30   32 1    
    64   32   33 1    
    65   32   34 1    
    66   32  155 1    
    67   33  156 1    
    68   33  157 1    
    69   33  158 1    
    70   34   35 am   BACKBONE|DICT|INTERRES
    71   34  159 1    
    72   35   36 2    
    73   35   37 1    
    74   37   38 1    
    75   37   39 1    
    76   37  160 1    
    77   38  161 1    
    78   38  162 1    
    79   38  163 1    
    80   39   40 am   BACKBONE|DICT|INTERRES
    81   39  164 1    
    82   40   41 2    
    83   40   42 1    
    84   42   43 1    
    85   42   44 1    
    86   42  165 1    
    87   43  166 1    
    88   43  167 1    
    89   43  168 1    
    90   44   45 am   BACKBONE|DICT|INTERRES
    91   44  169 1    
    92   45   46 2    
    93   45   47 1    
    94   47   48 1    
    95   47   49 1    
    96   47  170 1    
    97   48  171 1    
    98   48  172 1    
    99   48  173 1    
   100   49   50 am   BACKBONE|DICT|INTERRES
   101   49  174 1    
   102   50   51 2    
   103   50   52 1    
   104   52   53 1    
   105   52   54 1    
   106   52  175 1    
   107   53  176 1    
   108   53  177 1    
   109   53  178 1    
   110   54   55 am   BACKBONE|DICT|INTERRES
   111   54  179 1    
   112   55   56 2    
   113   55   57 1    
   114   57   58 1    
   115   57   59 1    
   116   57  180 1    
   117   58  181 1    
   118   58  182 1    
   119   58  183 1    
   120   59   60 am   BACKBONE|DICT|INTERRES
   121   59  184 1    
   122   60   61 2    
   123   60   62 1    
   124   62   63 1    
   125   62   64 1    
   126   62  185 1    
   127   63  186 1    
   128   63  187 1    
   129   63  188 1    
   130   64   65 am   BACKBONE|DICT|INTERRES
   131   64  189 1    
   132   65   66 2    
   133   67   68 2    
   134   67   69 am   BACKBONE|DICT|INTERRES
   135   69   70 1    
   136   69  190 1    
   137   70   71 1    
   138   70   72 1    
   139   70  191 1    
   140   71  192 1    
   141   71  193 1    
   142   71  194 1    
   143   72   73 2    
   144   72   74 am   BACKBONE|DICT|INTERRES
   145   74   75 1    
   146   74  195 1    
   147   75   76 1    
   148   75   77 1    
   149   75  196 1    
   150   76  197 1    
   151   76  198 1    
   152   76  199 1    
   153   77   78 2    
   154   77   79 am   BACKBONE|DICT|INTERRES
   155   79   80 1    
   156   79  200 1    
   157   80   81 1    
   158   80   82 1    
   159   80  201 1    
   160   81  202 1    
   161   81  203 1    
   162   81  204 1    
   163   82   83 2    
   164   82   84 am   BACKBONE|DICT|INTERRES
   165   84   85 1    
   166   84  205 1    
   167   85   86 1    
   168   85   87 1    
   169   85  206 1    
   170   86  207 1    
   171   86  208 1    
   172   86  209 1    
   173   87   88 2    
   174   87   89 am   BACKBONE|DICT|INTERRES
   175   89   90 1    
   176   89  210 1    
   177   90   91 1    
   178   90   92 1    
   179   90  211 1    
   180   91  212 1    
   181   91  213 1    
   182   91  214 1    
   183   92   93 2    
   184   92   94 am   BACKBONE|DICT|INTERRES
   185   94   95 1    
   186   94  215 1    
   187   95   96 1    
   188   95   97 1    
   189   95  216 1    
   190   96  217 1    
   191   96  218 1    
   192   96  219 1    
   193   97   98 2    
   194   97   99 am   BACKBONE|DICT|INTERRES
   195   99  100 1    
   196   99  220 1    
   197  100  101 1    
   198  100  102 1    
   199  100  221 1    
   200  101  222 1    
   201  101  223 1    
   202  101  224 1    
   203  102  103 2    
   204  102  104 am   BACKBONE|DICT|INTERRES
   205  104  105 1    
   206  104  225 1    
   207  105  106 1    
   208  105  107 1    
   209  105  226 1    
   210  106  227 1    
   211  106  228 1    
   212  106  229 1    
   213  107  108 2    
   214  107  109 am   BACKBONE|DICT|INTERRES
   215  109  110 1    
   216  109  230 1    
   217  110  111 1    
   218  110  112 1    
   219  110  231 1    
   220  111  232 1    
   221  111  233 1    
   222  111  234 1    
   223  112  113 2    
   224  112  114 am   BACKBONE|DICT|INTERRES
   225  114  115 1    
   226  114  235 1    
   227  115  116 1    
   228  115  117 1    
   229  115  236 1    
   230  116  237 1    
   231  116  238 1    
   232  116  239 1    
   233  117  118 2    
   234  117  119 am   BACKBONE|DICT|INTERRES
   235  119  120 1    
   236  119  240 1    
   237  120  121 1    
   238  120  124 1    
   239  120  241 1    
   240  121  122 am   BACKBONE|DICT|INTERRES
   241  121  123 2    
   242  122  242 1    
   243  122  243 1    
   244  124  125 1    
   245  124  244 1    
   246  124  245 1    
   247  125  126 1    
   248  126  246 1    
   249  126  247 1    
@<TRIPOS>SUBSTRUCTURE
     1 UNK         1 GROUP             0       ****    0 ROOT    
