@<TRIPOS>MOLECULE
3R540
247   249    1
SMALL
USER_CHARGES


@<TRIPOS>ATOM
      1 CA         -1.0228  -15.2273  -49.6740 C.3       0 UNK        -0.1800 
      2 C           0.1070  -15.0510  -50.6734 C.2       0 UNK         0.5000 
      3 O          -0.0205  -15.4862  -51.8171 O.2       0 UNK        -0.5000 
      4 N           1.2056  -14.4134  -50.2505 N.am      1 UNK        -0.5000 
      5 CA          2.3901  -14.1739  -51.0784 C.3       1 UNK         0.1400 
      6 C6          3.3810  -15.3765  -51.0433 C.3       23 UNK        -0.0398 
      7 S7          4.1971  -15.7252  -49.4375 S.3       23 UNK        -0.2404 
      8 C8          2.9652  -16.6722  -48.4914 C.3       23 UNK        -0.0205 
      9 C9          2.8545  -18.1279  -48.9128 C.ar      23 UNK        -0.0193 
     10 C10         2.0113  -18.5009  -49.9612 C.ar      23 UNK        -0.1150 
     11 C11         1.8513  -19.8460  -50.3037 C.ar      23 UNK        -0.0193 
     12 C12         2.5381  -20.8259  -49.5808 C.ar      23 UNK        -0.1150 
     13 C13         3.3792  -20.4659  -48.5228 C.ar      23 UNK        -0.0193 
     14 C14         3.5415  -19.1155  -48.2020 C.ar      23 UNK        -0.1150 
     15 C15         4.1100  -21.5279  -47.7148 C.3       23 UNK        -0.0205 
     16 S16         3.2405  -21.8990  -46.1574 S.3       23 UNK        -0.2404 
     17 C17         1.7881  -22.8213  -46.7623 C.3       23 UNK        -0.0398 
     18 CA          1.4858  -24.0692  -45.9011 C.3       11 UNK         0.1400 
     19 N           1.0608  -23.7149  -44.5444 N.am      11 UNK        -0.5000 
     20 C           1.0341  -24.5749  -43.5177 C.2       10 UNK         0.5000 
     21 O           1.4320  -25.7385  -43.6072 O.2       10 UNK        -0.5000 
     22 CA          0.4508  -24.0689  -42.1794 C.3       10 UNK         0.1400 
     23 CB          0.9660  -24.8702  -40.9651 C.3       10 UNK        -0.1800 
     24 N           0.6072  -22.6297  -41.9415 N.am      10 UNK        -0.5000 
     25 C           1.7409  -21.9227  -41.8352 C.2       9 UNK         0.5000 
     26 O           2.8616  -22.4055  -42.0056 O.2       9 UNK        -0.5000 
     27 CA          1.5886  -20.4295  -41.4504 C.3       9 UNK         0.1400 
     28 CB          2.9104  -19.6508  -41.5738 C.3       9 UNK        -0.1800 
     29 N           0.5613  -19.7237  -42.2218 N.am      9 UNK        -0.5000 
     30 C          -0.7669  -19.8528  -42.0931 C.2       8 UNK         0.5000 
     31 O          -1.2901  -20.5954  -41.2612 O.2       8 UNK        -0.5000 
     32 CA         -1.6732  -19.0567  -43.0569 C.3       8 UNK         0.1400 
     33 CB         -2.4436  -17.9674  -42.2945 C.3       8 UNK        -0.1800 
     34 N          -0.9792  -18.4381  -44.1883 N.am      8 UNK        -0.5000 
     35 C          -0.3286  -19.0887  -45.1620 C.2       7 UNK         0.5000 
     36 O          -0.2305  -20.3140  -45.2137 O.2       7 UNK        -0.5000 
     37 CA          0.3679  -18.2176  -46.2218 C.3       7 UNK         0.1400 
     38 CB         -0.5836  -17.8793  -47.3773 C.3       7 UNK        -0.1800 
     39 N           0.8975  -16.9712  -45.6635 N.am      7 UNK        -0.5000 
     40 C           1.9733  -16.8903  -44.8681 C.2       6 UNK         0.5000 
     41 O           2.6612  -17.8586  -44.5495 O.2       6 UNK        -0.5000 
     42 CA          2.3273  -15.4946  -44.3227 C.3       6 UNK         0.1400 
     43 CB          3.1960  -14.7120  -45.3196 C.3       6 UNK        -0.1800 
     44 N           1.1318  -14.7140  -44.0077 N.am      6 UNK        -0.5000 
     45 C           0.3749  -14.9128  -42.9187 C.2       5 UNK         0.5000 
     46 O           0.6435  -15.7334  -42.0413 O.2       5 UNK        -0.5000 
     47 CA         -0.9106  -14.0708  -42.7958 C.3       5 UNK         0.1400 
     48 CB         -0.6394  -12.7923  -41.9889 C.3       5 UNK        -0.1800 
     49 N          -1.4993  -13.7049  -44.0859 N.am      5 UNK        -0.5000 
     50 C          -1.9721  -14.5749  -44.9894 C.2       4 UNK         0.5000 
     51 O          -1.9666  -15.7938  -44.8279 O.2       4 UNK        -0.5000 
     52 CA         -2.4912  -13.9900  -46.3152 C.3       4 UNK         0.1400 
     53 CB         -4.0057  -13.7499  -46.2421 C.3       4 UNK        -0.1800 
     54 N          -1.8205  -12.7469  -46.7097 N.am      4 UNK        -0.5000 
     55 C          -0.5205  -12.6394  -47.0140 C.2       3 UNK         0.5000 
     56 O           0.2776  -13.5793  -46.9737 O.2       3 UNK        -0.5000 
     57 CA         -0.0177  -11.2406  -47.4038 C.3       3 UNK         0.1400 
     58 CB          0.9759  -10.7181  -46.3544 C.3       3 UNK        -0.1800 
     59 N           0.6340  -11.2666  -48.7111 N.am      3 UNK        -0.5000 
     60 C          -0.0012  -11.4121  -49.8831 C.2       2 UNK         0.5000 
     61 O          -1.2247  -11.4969  -49.9871 O.2       2 UNK        -0.5000 
     62 CA          0.8700  -11.4890  -51.1539 C.3       2 UNK         0.1400 
     63 CB          0.7084  -10.2033  -51.9798 C.3       2 UNK        -0.1800 
     64 N           2.2935  -11.6618  -50.8426 N.am      2 UNK        -0.5000 
     65 C           3.0263  -12.7872  -50.7916 C.2       1 UNK         0.5000 
     66 O           4.2247  -12.7132  -50.5275 O.2       1 UNK        -0.5000 
     67 C           0.4105  -24.9466  -46.5743 C.2       11 UNK         0.5000 
     68 O          -0.7598  -24.5603  -46.6014 O.2       11 UNK        -0.5000 
     69 N           0.8204  -26.0950  -47.1307 N.am      12 UNK        -0.5000 
     70 CA         -0.0686  -27.0587  -47.7897 C.3       12 UNK         0.1400 
     71 CB          0.7173  -28.3353  -48.1226 C.3       12 UNK        -0.1800 
     72 C          -0.7469  -26.4943  -49.0514 C.2       12 UNK         0.5000 
     73 O          -1.9274  -26.7580  -49.2803 O.2       12 UNK        -0.5000 
     74 N          -0.0016  -25.6869  -49.8193 N.am      13 UNK        -0.5000 
     75 CA         -0.5001  -24.9742  -50.9970 C.3       13 UNK         0.1400 
     76 CB          0.6815  -24.3370  -51.7426 C.3       13 UNK        -0.1800 
     77 C          -1.5555  -23.9117  -50.6419 C.2       13 UNK         0.5000 
     78 O          -2.5229  -23.7451  -51.3831 O.2       13 UNK        -0.5000 
     79 N          -1.3721  -23.2449  -49.4944 N.am      14 UNK        -0.5000 
     80 CA         -2.3188  -22.2729  -48.9542 C.3       14 UNK         0.1400 
     81 CB         -1.6499  -21.4522  -47.8508 C.3       14 UNK        -0.1800 
     82 C          -3.5866  -22.9479  -48.4189 C.2       14 UNK         0.5000 
     83 O          -4.6803  -22.4389  -48.6540 O.2       14 UNK        -0.5000 
     84 N          -3.4270  -24.0944  -47.7432 N.am      15 UNK        -0.5000 
     85 CA         -4.5272  -24.9293  -47.2609 C.3       15 UNK         0.1400 
     86 CB         -3.9715  -26.0755  -46.4027 C.3       15 UNK        -0.1800 
     87 C          -5.3986  -25.4639  -48.4125 C.2       15 UNK         0.5000 
     88 O          -6.6247  -25.3882  -48.3292 O.2       15 UNK        -0.5000 
     89 N          -4.7515  -25.9272  -49.4921 N.am      16 UNK        -0.5000 
     90 CA         -5.3983  -26.3549  -50.7353 C.3       16 UNK         0.1400 
     91 CB         -4.3506  -26.9955  -51.6579 C.3       16 UNK        -0.1800 
     92 C          -6.1349  -25.2103  -51.4604 C.2       16 UNK         0.5000 
     93 O          -7.2046  -25.4382  -52.0260 O.2       16 UNK        -0.5000 
     94 N          -5.5679  -23.9979  -51.4035 N.am      17 UNK        -0.5000 
     95 CA         -6.1446  -22.7686  -51.9525 C.3       17 UNK         0.1400 
     96 CB         -5.0060  -21.7745  -52.2336 C.3       17 UNK        -0.1800 
     97 C          -7.2147  -22.1229  -51.0462 C.2       17 UNK         0.5000 
     98 O          -7.7838  -21.1046  -51.4376 O.2       17 UNK        -0.5000 
     99 N          -7.4558  -22.6917  -49.8550 N.am      18 UNK        -0.5000 
    100 CA        -8.3713  -22.2163  -48.8111 C.3       18 UNK         0.1400 
    101 CB        -9.8379  -22.3132  -49.2809 C.3       18 UNK        -0.1800 
    102 C         -7.9943  -20.8188  -48.2693 C.2       18 UNK         0.5000 
    103 O         -8.8703  -19.9841  -48.0361 O.2       18 UNK        -0.5000 
    104 N         -6.6844  -20.6012  -48.0831 N.am      19 UNK        -0.5000 
    105 CA        -6.0301  -19.3893  -47.5768 C.3       19 UNK         0.1400 
    106 CB        -6.4522  -19.0937  -46.1223 C.3       19 UNK        -0.1800 
    107 C         -6.1601  -18.1628  -48.5062 C.2       19 UNK         0.5000 
    108 O         -6.0343  -17.0272  -48.0435 O.2       19 UNK        -0.5000 
    109 N         -6.3793  -18.4073  -49.8051 N.am      20 UNK        -0.5000 
    110 CA        -6.3295  -17.3990  -50.8640 C.3       20 UNK         0.1400 
    111 CB        -7.0591  -17.9498  -52.1006 C.3       20 UNK        -0.1800 
    112 C         -4.8780  -17.0006  -51.2073 C.2       20 UNK         0.5000 
    113 O         -3.9260  -17.5801  -50.6772 O.2       20 UNK        -0.5000 
    114 N         -4.7334  -16.0226  -52.1113 N.am      21 UNK        -0.5000 
    115 CA        -3.4576  -15.5343  -52.6384 C.3       21 UNK         0.1400 
    116 CB        -3.6799  -14.1582  -53.2899 C.3       21 UNK        -0.1800 
    117 C         -2.8033  -16.5492  -53.6004 C.2       21 UNK         0.5000 
    118 O         -2.8192  -16.3542  -54.8174 O.2       21 UNK        -0.5000 
    119 N         -2.2784  -17.6373  -53.0297 N.am      22 UNK        -0.5000 
    120 CA        -1.5876  -18.7322  -53.7241 C.3       22 UNK         0.1400 
    121 C         -0.2117  -18.3663  -54.3552 C.2       22 UNK         0.5000 
    122 N          0.4370  -17.2724  -53.9750 N.am      22 UNK        -0.7600 
    123 O          0.2740  -19.0917  -55.2188 O.2       22 UNK        -0.5000 
    124 C124       -1.4978  -20.0031  -52.8357 C.3       23 UNK        -0.0398 
    125 S125       -0.7710  -19.7115  -51.1846 S.3       23 UNK        -0.2404 
    126 C126        0.9506  -20.2267  -51.4675 C.3       23 UNK        -0.0205 
    127 H127       -1.5383  -16.1730  -49.8432 H         1 UNK         0.0600 
    128 H128       -0.6416  -15.2346  -48.6567 H         1 UNK         0.0600 
    129 H129       -1.7445  -14.4160  -49.7678 H         1 UNK         0.0600 
    130 H130        1.2578  -14.0724  -49.2989 H         1 UNK         0.3000 
    131 H131        2.0644  -14.0916  -52.1175 H         1 UNK         0.0600 
    132 H132        4.1755  -15.2024  -51.7704 H         1 UNK         0.0800 
    133 H133        2.8820  -16.2769  -51.3963 H         1 UNK         0.0800 
    134 H134        1.9906  -16.1911  -48.5267 H         1 UNK         0.0800 
    135 H135        3.2690  -16.6350  -47.4470 H         1 UNK         0.0800 
    136 H136        1.4566  -17.7492  -50.5034 H         1 UNK         0.1150 
    137 H137        2.4180  -21.8674  -49.8406 H         1 UNK         0.1150 
    138 H138        4.1800  -18.8369  -47.3751 H         1 UNK         0.1150 
    139 H139        4.2396  -22.4410  -48.2977 H         1 UNK         0.0800 
    140 H140        5.1150  -21.1750  -47.4790 H         1 UNK         0.0800 
    141 H141        1.9655  -23.1158  -47.7972 H         1 UNK         0.0800 
    142 H142        0.9377  -22.1410  -46.7792 H         1 UNK         0.0800 
    143 H143        2.4056  -24.6538  -45.8258 H         1 UNK         0.0600 
    144 H144        0.7094  -22.7766  -44.4126 H         1 UNK         0.3000 
    145 H145       -0.6242  -24.2409  -42.2475 H         1 UNK         0.0600 
    146 H146        0.5169  -24.5140  -40.0380 H         1 UNK         0.0600 
    147 H147        0.7171  -25.9281  -41.0564 H         1 UNK         0.0600 
    148 H148        2.0492  -24.7965  -40.8633 H         1 UNK         0.0600 
    149 H149       -0.2538  -22.1193  -41.7652 H         1 UNK         0.3000 
    150 H150        1.2927  -20.4072  -40.3997 H         1 UNK         0.0600 
    151 H151        3.6783  -20.0740  -40.9252 H         1 UNK         0.0600 
    152 H152        2.7840  -18.6065  -41.2869 H         1 UNK         0.0600 
    153 H153        3.2930  -19.6737  -42.5950 H         1 UNK         0.0600 
    154 H154        0.9019  -19.1206  -42.9576 H         1 UNK         0.3000 
    155 H155       -2.3983  -19.7629  -43.4659 H         1 UNK         0.0600 
    156 H156       -1.7695  -17.2168  -41.8811 H         1 UNK         0.0600 
    157 H157       -3.0102  -18.3926  -41.4652 H         1 UNK         0.0600 
    158 H158       -3.1560  -17.4586  -42.9441 H         1 UNK         0.0600 
    159 H159       -1.0739  -17.4303  -44.2721 H         1 UNK         0.3000 
    160 H160        1.1969  -18.8032  -46.6226 H         1 UNK         0.0600 
    161 H161       -0.0415  -17.4093  -48.1939 H         1 UNK         0.0600 
    162 H162       -1.3861  -17.2107  -47.0667 H         1 UNK         0.0600 
    163 H163       -1.0469  -18.7697  -47.7922 H         1 UNK         0.0600 
    164 H164        0.3729  -16.1290  -45.8520 H         1 UNK         0.3000 
    165 H165        2.9080  -15.6317  -43.4078 H         1 UNK         0.0600 
    166 H166        3.4861  -13.7433  -44.9124 H         1 UNK         0.0600 
    167 H167        4.1138  -15.2553  -45.5473 H         1 UNK         0.0600 
    168 H168        2.6759  -14.5344  -46.2611 H         1 UNK         0.0600 
    169 H169        0.8308  -14.0419  -44.7005 H         1 UNK         0.3000 
    170 H170       -1.6447  -14.6698  -42.2530 H         1 UNK         0.0600 
    171 H171       -0.2212  -13.0297  -41.0097 H         1 UNK         0.0600 
    172 H172        0.0685  -12.1373  -42.4985 H         1 UNK         0.0600 
    173 H173       -1.5576  -12.2295  -41.8202 H         1 UNK         0.0600 
    174 H174       -1.5415  -12.7204  -44.3032 H         1 UNK         0.3000 
    175 H175       -2.3085  -14.7347  -47.0906 H         1 UNK         0.0600 
    176 H176       -4.3989  -13.4178  -47.2032 H         1 UNK         0.0600 
    177 H177       -4.5336  -14.6679  -45.9787 H         1 UNK         0.0600 
    178 H178       -4.2601  -12.9974  -45.4948 H         1 UNK         0.0600 
    179 H179       -2.4064  -11.9270  -46.7783 H         1 UNK         0.3000 
    180 H180       -0.8629  -10.5506  -47.4503 H         1 UNK         0.0600 
    181 H181        1.8562  -11.3580  -46.2765 H         1 UNK         0.0600 
    182 H182        0.5147  -10.6740  -45.3669 H         1 UNK         0.0600 
    183 H183        1.3144   -9.7112  -46.5991 H         1 UNK         0.0600 
    184 H184        1.6427  -11.2360  -48.7120 H         1 UNK         0.3000 
    185 H185        0.5078  -12.3144  -51.7672 H         1 UNK         0.0600 
    186 H186        1.0330   -9.3222  -51.4247 H         1 UNK         0.0600 
    187 H187        1.2886  -10.2516  -52.9016 H         1 UNK         0.0600 
    188 H188       -0.3337  -10.0475  -52.2626 H         1 UNK         0.0600 
    189 H189        2.7835  -10.7975  -50.6637 H         1 UNK         0.3000 
    190 H190        1.7933  -26.3573  -47.0610 H         1 UNK         0.3000 
    191 H191       -0.8579  -27.3213  -47.0822 H         1 UNK         0.0600 
    192 H192        1.1262  -28.7928  -47.2215 H         1 UNK         0.0600 
    193 H193        1.5455  -28.1346  -48.8035 H         1 UNK         0.0600 
    194 H194        0.0737  -29.0768  -48.5981 H         1 UNK         0.0600 
    195 H195        0.9637  -25.5375  -49.5668 H         1 UNK         0.3000 
    196 H196       -0.9732  -25.7010  -51.6609 H         1 UNK         0.0600 
    197 H197        0.3385  -23.7720  -52.6106 H         1 UNK         0.0600 
    198 H198        1.3740  -25.0974  -52.1040 H         1 UNK         0.0600 
    199 H199        1.2396  -23.6536  -51.1028 H         1 UNK         0.0600 
    200 H200       -0.5831  -23.4820  -48.9144 H         1 UNK         0.3000 
    201 H201       -2.6103  -21.5922  -49.7561 H         1 UNK         0.0600 
    202 H202       -0.7262  -20.9953  -48.2057 H         1 UNK         0.0600 
    203 H203       -1.4136  -22.0594  -46.9779 H         1 UNK         0.0600 
    204 H204       -2.3127  -20.6553  -47.5130 H         1 UNK         0.0600 
    205 H205       -2.4847  -24.4085  -47.5318 H         1 UNK         0.3000 
    206 H206       -5.1603  -24.3064  -46.6256 H         1 UNK         0.0600 
    207 H207       -3.3832  -25.6934  -45.5681 H         1 UNK         0.0600 
    208 H208       -4.7804  -26.6756  -45.9845 H         1 UNK         0.0600 
    209 H209       -3.3342  -26.7434  -46.9817 H         1 UNK         0.0600 
    210 H210       -3.7386  -26.0008  -49.4582 H         1 UNK         0.3000 
    211 H211       -6.1388  -27.1158  -50.4805 H         1 UNK         0.0600 
    212 H212       -3.5662  -26.2879  -51.9280 H         1 UNK         0.0600 
    213 H213       -4.8076  -27.3494  -52.5828 H         1 UNK         0.0600 
    214 H214       -3.8763  -27.8529  -51.1800 H         1 UNK         0.0600 
    215 H215       -4.6589  -23.9075  -50.9654 H         1 UNK         0.3000 
    216 H216       -6.6273  -23.0036  -52.9032 H         1 UNK         0.0600 
    217 H217       -4.5065  -21.4646  -51.3153 H         1 UNK         0.0600 
    218 H218       -5.3778  -20.8756  -52.7250 H         1 UNK         0.0600 
    219 H219       -4.2566  -22.2123  -52.8930 H         1 UNK         0.0600 
    220 H220       -6.9111  -23.5087  -49.6097 H         1 UNK         0.3000 
    221 H221       -8.2518  -22.9043  -47.9729 H         1 UNK         0.0600 
    222 H222      -10.0549  -21.6097  -50.0851 H         1 UNK         0.0600 
    223 H223      -10.0705  -23.3158  -49.6400 H         1 UNK         0.0600 
    224 H224      -10.5250  -22.0951  -48.4626 H         1 UNK         0.0600 
    225 H225       -6.0416  -21.3537  -48.3322 H         1 UNK         0.3000 
    226 H226       -4.9647  -19.6238  -47.5589 H         1 UNK         0.0600 
    227 H227       -6.3287  -19.9727  -45.4897 H         1 UNK         0.0600 
    228 H228       -7.4931  -18.7762  -46.0588 H         1 UNK         0.0600 
    229 H229       -5.8422  -18.2988  -45.6916 H         1 UNK         0.0600 
    230 H230       -6.4820  -19.3671  -50.1021 H         1 UNK         0.3000 
    231 H231       -6.8542  -16.5051  -50.5205 H         1 UNK         0.0600 
    232 H232       -8.0703  -18.2718  -51.8503 H         1 UNK         0.0600 
    233 H233       -6.5344  -18.8034  -52.5294 H         1 UNK         0.0600 
    234 H234       -7.1485  -17.1944  -52.8817 H         1 UNK         0.0600 
    235 H235       -5.5618  -15.6151  -52.5197 H         1 UNK         0.3000 
    236 H236       -2.7752  -15.3890  -51.8025 H         1 UNK         0.0600 
    237 H237       -2.7440  -13.7596  -53.6838 H         1 UNK         0.0600 
    238 H238       -4.3901  -14.2104  -54.1160 H         1 UNK         0.0600 
    239 H239       -4.0585  -13.4364  -52.5659 H         1 UNK         0.0600 
    240 H240       -2.3718  -17.7410  -52.0249 H         1 UNK         0.3000 
    241 H241       -2.2210  -18.9961  -54.5731 H         1 UNK         0.0600 
    242 H242        1.3184  -17.0509  -54.4071 H         1 UNK         0.3800 
    243 H243        0.0823  -16.6755  -53.2305 H         1 UNK         0.3800 
    244 H244       -2.5035  -20.3897  -52.6728 H         1 UNK         0.0800 
    245 H245       -0.9610  -20.8063  -53.3438 H         1 UNK         0.0800 
    246 H246        1.3374  -19.7524  -52.3693 H         1 UNK         0.0800 
    247 H247        0.9741  -21.3016  -51.6462 H         1 UNK         0.0800 
@<TRIPOS>BOND
     1    1    2 1    
     2    1  127 1    
     3    1  128 1    
     4    1  129 1    
     5    2    3 2    
     6    2    4 am   BACKBONE|DICT|INTERRES
     7    4    5 1    
     8    4  130 1    
     9    5    6 1    
    10    5   65 1    
    11    5  131 1    
    12    6    7 1    
    13    6  132 1    
    14    6  133 1    
    15    7    8 1    
    16    8    9 1    
    17    8  134 1    
    18    8  135 1    
    19    9   10 ar   
    20    9   14 ar   
    21   10   11 ar   
    22   10  136 1    
    23   11   12 ar   
    24   11  126 1    
    25   12   13 ar   
    26   12  137 1    
    27   13   14 ar   
    28   13   15 1    
    29   14  138 1    
    30   15   16 1    
    31   15  139 1    
    32   15  140 1    
    33   16   17 1    
    34   17   18 1    
    35   17  141 1    
    36   17  142 1    
    37   18   19 1    
    38   18   67 1    
    39   18  143 1    
    40   19   20 am   BACKBONE|DICT|INTERRES
    41   19  144 1    
    42   20   21 2    
    43   20   22 1    
    44   22   23 1    
    45   22   24 1    
    46   22  145 1    
    47   23  146 1    
    48   23  147 1    
    49   23  148 1    
    50   24   25 am   BACKBONE|DICT|INTERRES
    51   24  149 1    
    52   25   26 2    
    53   25   27 1    
    54   27   28 1    
    55   27   29 1    
    56   27  150 1    
    57   28  151 1    
    58   28  152 1    
    59   28  153 1    
    60   29   30 am   BACKBONE|DICT|INTERRES
    61   29  154 1    
    62   30   31 2    
    63   30   32 1    
    64   32   33 1    
    65   32   34 1    
    66   32  155 1    
    67   33  156 1    
    68   33  157 1    
    69   33  158 1    
    70   34   35 am   BACKBONE|DICT|INTERRES
    71   34  159 1    
    72   35   36 2    
    73   35   37 1    
    74   37   38 1    
    75   37   39 1    
    76   37  160 1    
    77   38  161 1    
    78   38  162 1    
    79   38  163 1    
    80   39   40 am   BACKBONE|DICT|INTERRES
    81   39  164 1    
    82   40   41 2    
    83   40   42 1    
    84   42   43 1    
    85   42   44 1    
    86   42  165 1    
    87   43  166 1    
    88   43  167 1    
    89   43  168 1    
    90   44   45 am   BACKBONE|DICT|INTERRES
    91   44  169 1    
    92   45   46 2    
    93   45   47 1    
    94   47   48 1    
    95   47   49 1    
    96   47  170 1    
    97   48  171 1    
    98   48  172 1    
    99   48  173 1    
   100   49   50 am   BACKBONE|DICT|INTERRES
   101   49  174 1    
   102   50   51 2    
   103   50   52 1    
   104   52   53 1    
   105   52   54 1    
   106   52  175 1    
   107   53  176 1    
   108   53  177 1    
   109   53  178 1    
   110   54   55 am   BACKBONE|DICT|INTERRES
   111   54  179 1    
   112   55   56 2    
   113   55   57 1    
   114   57   58 1    
   115   57   59 1    
   116   57  180 1    
   117   58  181 1    
   118   58  182 1    
   119   58  183 1    
   120   59   60 am   BACKBONE|DICT|INTERRES
   121   59  184 1    
   122   60   61 2    
   123   60   62 1    
   124   62   63 1    
   125   62   64 1    
   126   62  185 1    
   127   63  186 1    
   128   63  187 1    
   129   63  188 1    
   130   64   65 am   BACKBONE|DICT|INTERRES
   131   64  189 1    
   132   65   66 2    
   133   67   68 2    
   134   67   69 am   BACKBONE|DICT|INTERRES
   135   69   70 1    
   136   69  190 1    
   137   70   71 1    
   138   70   72 1    
   139   70  191 1    
   140   71  192 1    
   141   71  193 1    
   142   71  194 1    
   143   72   73 2    
   144   72   74 am   BACKBONE|DICT|INTERRES
   145   74   75 1    
   146   74  195 1    
   147   75   76 1    
   148   75   77 1    
   149   75  196 1    
   150   76  197 1    
   151   76  198 1    
   152   76  199 1    
   153   77   78 2    
   154   77   79 am   BACKBONE|DICT|INTERRES
   155   79   80 1    
   156   79  200 1    
   157   80   81 1    
   158   80   82 1    
   159   80  201 1    
   160   81  202 1    
   161   81  203 1    
   162   81  204 1    
   163   82   83 2    
   164   82   84 am   BACKBONE|DICT|INTERRES
   165   84   85 1    
   166   84  205 1    
   167   85   86 1    
   168   85   87 1    
   169   85  206 1    
   170   86  207 1    
   171   86  208 1    
   172   86  209 1    
   173   87   88 2    
   174   87   89 am   BACKBONE|DICT|INTERRES
   175   89   90 1    
   176   89  210 1    
   177   90   91 1    
   178   90   92 1    
   179   90  211 1    
   180   91  212 1    
   181   91  213 1    
   182   91  214 1    
   183   92   93 2    
   184   92   94 am   BACKBONE|DICT|INTERRES
   185   94   95 1    
   186   94  215 1    
   187   95   96 1    
   188   95   97 1    
   189   95  216 1    
   190   96  217 1    
   191   96  218 1    
   192   96  219 1    
   193   97   98 2    
   194   97   99 am   BACKBONE|DICT|INTERRES
   195   99  100 1    
   196   99  220 1    
   197  100  101 1    
   198  100  102 1    
   199  100  221 1    
   200  101  222 1    
   201  101  223 1    
   202  101  224 1    
   203  102  103 2    
   204  102  104 am   BACKBONE|DICT|INTERRES
   205  104  105 1    
   206  104  225 1    
   207  105  106 1    
   208  105  107 1    
   209  105  226 1    
   210  106  227 1    
   211  106  228 1    
   212  106  229 1    
   213  107  108 2    
   214  107  109 am   BACKBONE|DICT|INTERRES
   215  109  110 1    
   216  109  230 1    
   217  110  111 1    
   218  110  112 1    
   219  110  231 1    
   220  111  232 1    
   221  111  233 1    
   222  111  234 1    
   223  112  113 2    
   224  112  114 am   BACKBONE|DICT|INTERRES
   225  114  115 1    
   226  114  235 1    
   227  115  116 1    
   228  115  117 1    
   229  115  236 1    
   230  116  237 1    
   231  116  238 1    
   232  116  239 1    
   233  117  118 2    
   234  117  119 am   BACKBONE|DICT|INTERRES
   235  119  120 1    
   236  119  240 1    
   237  120  121 1    
   238  120  124 1    
   239  120  241 1    
   240  121  122 am   BACKBONE|DICT|INTERRES
   241  121  123 2    
   242  122  242 1    
   243  122  243 1    
   244  124  125 1    
   245  124  244 1    
   246  124  245 1    
   247  125  126 1    
   248  126  246 1    
   249  126  247 1    
@<TRIPOS>SUBSTRUCTURE
     1 UNK         1 GROUP             0       ****    0 ROOT    
