@<TRIPOS>MOLECULE
3R540
247   249    1
SMALL
USER_CHARGES


@<TRIPOS>ATOM
      1 CA         -6.2981  -18.3003  -45.2324 C.3       0 UNK        -0.1800 
      2 C          -5.8700  -17.0991  -46.0622 C.2       0 UNK         0.5000 
      3 O          -6.5781  -16.0937  -46.1025 O.2       0 UNK        -0.5000 
      4 N          -4.7074  -17.1965  -46.7128 N.am      1 UNK        -0.5000 
      5 CA         -4.1047  -16.1677  -47.5638 C.3       1 UNK         0.1400 
      6 C6         -3.5934  -16.7802  -48.9013 C.3       23 UNK        -0.0398 
      7 S7         -4.4813  -16.1257  -50.3558 S.3       23 UNK        -0.2404 
      8 C8         -6.0875  -16.9880  -50.2827 C.3       23 UNK        -0.0205 
      9 C9         -5.9677  -18.4811  -50.5526 C.ar      23 UNK        -0.0193 
     10 C10        -5.9363  -18.9721  -51.8626 C.ar      23 UNK        -0.1150 
     11 C11        -5.8009  -20.3470  -52.1102 C.ar      23 UNK        -0.0193 
     12 C12        -5.7102  -21.2235  -51.0225 C.ar      23 UNK        -0.1150 
     13 C13        -5.7537  -20.7447  -49.7103 C.ar      23 UNK        -0.0193 
     14 C14        -5.8936  -19.3754  -49.4839 C.ar      23 UNK        -0.1150 
     15 C15        -5.6380  -21.6905  -48.5275 C.3       23 UNK        -0.0205 
     16 S16        -3.9507  -21.6710  -47.8537 S.3       23 UNK        -0.2404 
     17 C17        -4.2472  -22.3422  -46.1896 C.3       23 UNK        -0.0398 
     18 CA         -2.9309  -22.6379  -45.4246 C.3       11 UNK         0.1400 
     19 N          -3.0699  -22.2842  -44.0016 N.am      11 UNK        -0.5000 
     20 C          -2.2423  -22.5288  -42.9741 C.2       10 UNK         0.5000 
     21 O          -1.3424  -23.3678  -42.9820 O.2       10 UNK        -0.5000 
     22 CA         -2.4390  -21.6259  -41.7396 C.3       10 UNK         0.1400 
     23 CB         -1.4670  -21.9659  -40.5953 C.3       10 UNK        -0.1800 
     24 N          -2.2380  -20.2281  -42.1218 N.am      10 UNK        -0.5000 
     25 C          -3.1716  -19.4230  -42.6463 C.2       9 UNK         0.5000 
     26 O          -4.3538  -19.7417  -42.7712 O.2       9 UNK        -0.5000 
     27 CA         -2.6704  -18.0819  -43.2113 C.3       9 UNK         0.1400 
     28 CB         -2.2087  -17.1417  -42.0842 C.3       9 UNK        -0.1800 
     29 N          -1.5807  -18.3114  -44.1630 N.am      9 UNK        -0.5000 
     30 C          -1.7401  -18.8886  -45.3650 C.2       8 UNK         0.5000 
     31 O          -2.8411  -19.1263  -45.8588 O.2       8 UNK        -0.5000 
     32 CA         -0.4745  -19.2972  -46.1391 C.3       8 UNK         0.1400 
     33 CB         -0.1028  -18.2357  -47.1824 C.3       8 UNK        -0.1800 
     34 N           0.6561  -19.5231  -45.2384 N.am      8 UNK        -0.5000 
     35 C           0.9223  -20.7001  -44.6527 C.2       7 UNK         0.5000 
     36 O           0.3124  -21.7349  -44.9091 O.2       7 UNK        -0.5000 
     37 CA          2.0581  -20.7473  -43.6110 C.3       7 UNK         0.1400 
     38 CB          3.3379  -21.3188  -44.2395 C.3       7 UNK        -0.1800 
     39 N           2.3588  -19.4483  -43.0116 N.am      7 UNK        -0.5000 
     40 C           1.5420  -18.7831  -42.1830 C.2       6 UNK         0.5000 
     41 O           0.4688  -19.2324  -41.7827 O.2       6 UNK        -0.5000 
     42 CA          1.9615  -17.3469  -41.8047 C.3       6 UNK         0.1400 
     43 CB          2.7542  -17.3456  -40.4899 C.3       6 UNK        -0.1800 
     44 N           2.7507  -16.6839  -42.8514 N.am      6 UNK        -0.5000 
     45 C           2.3073  -16.4455  -44.0934 C.2       5 UNK         0.5000 
     46 O           1.1628  -16.7174  -44.4618 O.2       5 UNK        -0.5000 
     47 CA          3.3468  -15.9280  -45.1048 C.3       5 UNK         0.1400 
     48 CB          4.2770  -17.0754  -45.5336 C.3       5 UNK        -0.1800 
     49 N           2.7230  -15.3754  -46.3069 N.am      5 UNK        -0.5000 
     50 C           2.1101  -14.1881  -46.3758 C.2       4 UNK         0.5000 
     51 O           2.0595  -13.4050  -45.4249 O.2       4 UNK        -0.5000 
     52 CA          1.4845  -13.7912  -47.7327 C.3       4 UNK         0.1400 
     53 CB          1.3301  -14.9609  -48.7287 C.3       4 UNK        -0.1800 
     54 N           0.1804  -13.1672  -47.5146 N.am      4 UNK        -0.5000 
     55 C          -0.0251  -11.8489  -47.3676 C.2       3 UNK         0.5000 
     56 O           0.8425  -10.9962  -47.5627 O.2       3 UNK        -0.5000 
     57 CA         -1.4302  -11.3922  -46.9157 C.3       3 UNK         0.1400 
     58 CB         -2.2518  -10.8791  -48.1075 C.3       3 UNK        -0.1800 
     59 N          -2.1866  -12.4455  -46.2389 N.am      3 UNK        -0.5000 
     60 C          -1.8970  -12.9385  -45.0275 C.2       2 UNK         0.5000 
     61 O          -1.0636  -12.4357  -44.2738 O.2       2 UNK        -0.5000 
     62 CA         -2.6433  -14.2131  -44.5805 C.3       2 UNK         0.1400 
     63 CB         -3.5224  -13.9326  -43.3514 C.3       2 UNK        -0.1800 
     64 N          -3.4715  -14.8565  -45.6058 N.am      2 UNK        -0.5000 
     65 C          -3.0332  -15.4256  -46.7373 C.2       1 UNK         0.5000 
     66 O          -1.8578  -15.3795  -47.1022 O.2       1 UNK        -0.5000 
     67 C          -2.4034  -24.0518  -45.7573 C.2       11 UNK         0.5000 
     68 O          -1.6956  -24.2206  -46.7533 O.2       11 UNK        -0.5000 
     69 N          -2.7372  -25.0404  -44.9174 N.am      12 UNK        -0.5000 
     70 CA         -2.2594  -26.4199  -45.0115 C.3       12 UNK         0.1400 
     71 CB         -2.9720  -27.2698  -43.9495 C.3       12 UNK        -0.1800 
     72 C          -0.7291  -26.5623  -44.8780 C.2       12 UNK         0.5000 
     73 O          -0.1631  -27.4803  -45.4711 O.2       12 UNK        -0.5000 
     74 N          -0.0772  -25.6476  -44.1446 N.am      13 UNK        -0.5000 
     75 CA          1.3773  -25.6069  -43.9727 C.3       13 UNK         0.1400 
     76 CB          1.7310  -24.6385  -42.8364 C.3       13 UNK        -0.1800 
     77 C           2.1216  -25.2306  -45.2680 C.2       13 UNK         0.5000 
     78 O           3.2029  -25.7621  -45.5208 O.2       13 UNK        -0.5000 
     79 N           1.5112  -24.3618  -46.0853 N.am      14 UNK        -0.5000 
     80 CA          1.9696  -24.0162  -47.4332 C.3       14 UNK         0.1400 
     81 CB          1.5441  -22.5731  -47.7573 C.3       14 UNK        -0.1800 
     82 C           1.4406  -24.9881  -48.5070 C.2       14 UNK         0.5000 
     83 O           1.6781  -24.7513  -49.6907 O.2       14 UNK        -0.5000 
     84 N           0.6960  -26.0287  -48.0999 N.am      15 UNK        -0.5000 
     85 CA          0.0099  -27.0134  -48.9454 C.3       15 UNK         0.1400 
     86 CB          1.0329  -27.9248  -49.6544 C.3       15 UNK        -0.1800 
     87 C          -0.9996  -26.3670  -49.9200 C.2       15 UNK         0.5000 
     88 O          -1.1800  -26.8533  -51.0376 O.2       15 UNK        -0.5000 
     89 N          -1.6203  -25.2643  -49.4739 N.am      16 UNK        -0.5000 
     90 CA         -2.5509  -24.4059  -50.2083 C.3       16 UNK         0.1400 
     91 CB         -3.8675  -25.1516  -50.5093 C.3       16 UNK        -0.1800 
     92 C          -1.9408  -23.7161  -51.4493 C.2       16 UNK         0.5000 
     93 O          -2.6813  -23.3758  -52.3735 O.2       16 UNK        -0.5000 
     94 N          -0.6131  -23.4995  -51.4518 N.am      17 UNK        -0.5000 
     95 CA          0.1013  -22.7680  -52.5049 C.3       17 UNK         0.1400 
     96 CB          1.6186  -22.8858  -52.2976 C.3       17 UNK        -0.1800 
     97 C          -0.3282  -21.2917  -52.5840 C.2       17 UNK         0.5000 
     98 O          -0.6027  -20.8083  -53.6805 O.2       17 UNK        -0.5000 
     99 N          -0.4256  -20.6460  -51.4085 N.am      18 UNK        -0.5000 
    100 CA        -1.0951  -19.3681  -51.1395 C.3       18 UNK         0.1400 
    101 CB        -2.6033  -19.6225  -51.0315 C.3       18 UNK        -0.1800 
    102 C         -0.7524  -18.2332  -52.1265 C.2       18 UNK         0.5000 
    103 O         -1.6259  -17.7354  -52.8418 O.2       18 UNK        -0.5000 
    104 N          0.5316  -17.8515  -52.1374 N.am      19 UNK        -0.5000 
    105 CA         1.1664  -16.9222  -53.0808 C.3       19 UNK         0.1400 
    106 CB         2.6326  -16.7316  -52.6622 C.3       19 UNK        -0.1800 
    107 C          0.4855  -15.5479  -53.2630 C.2       19 UNK         0.5000 
    108 O          0.6762  -14.9215  -54.3058 O.2       19 UNK        -0.5000 
    109 N         -0.2976  -15.1071  -52.2693 N.am      20 UNK        -0.5000 
    110 CA        -1.0684  -13.8636  -52.3018 C.3       20 UNK         0.1400 
    111 CB        -1.5803  -13.5414  -50.8887 C.3       20 UNK        -0.1800 
    112 C         -2.2336  -13.8547  -53.3134 C.2       20 UNK         0.5000 
    113 O         -2.6475  -12.7655  -53.7150 O.2       20 UNK        -0.5000 
    114 N         -2.7477  -15.0302  -53.7054 N.am      21 UNK        -0.5000 
    115 CA        -3.8790  -15.1418  -54.6334 C.3       21 UNK         0.1400 
    116 CB        -5.1971  -15.2111  -53.8453 C.3       21 UNK        -0.1800 
    117 C         -3.7662  -16.3319  -55.5970 C.2       21 UNK         0.5000 
    118 O         -4.2055  -16.2113  -56.7418 O.2       21 UNK        -0.5000 
    119 N         -3.1962  -17.4498  -55.1364 N.am      22 UNK        -0.5000 
    120 CA        -3.0715  -18.7070  -55.8921 C.3       22 UNK         0.1400 
    121 C         -1.6282  -18.9757  -56.4096 C.2       22 UNK         0.5000 
    122 N         -0.6765  -18.0664  -56.2332 N.am      22 UNK        -0.7600 
    123 O         -1.3752  -20.0055  -57.0294 O.2       22 UNK        -0.5000 
    124 C124       -3.6429  -19.9000  -55.0816 C.3       23 UNK        -0.0398 
    125 S125       -5.4547  -19.7744  -54.8868 S.3       23 UNK        -0.2404 
    126 C126       -5.7797  -20.9435  -53.5203 C.3       23 UNK        -0.0205 
    127 H127       -6.3463  -18.0312  -44.1773 H         1 UNK         0.0600 
    128 H128       -5.6018  -19.1327  -45.3385 H         1 UNK         0.0600 
    129 H129       -7.2843  -18.6422  -45.5460 H         1 UNK         0.0600 
    130 H130       -4.1224  -18.0149  -46.5463 H         1 UNK         0.3000 
    131 H131       -4.8553  -15.4099  -47.7974 H         1 UNK         0.0600 
    132 H132       -2.5363  -16.5893  -49.0850 H         1 UNK         0.0800 
    133 H133       -3.6707  -17.8669  -48.8893 H         1 UNK         0.0800 
    134 H134       -6.7559  -16.5409  -51.0197 H         1 UNK         0.0800 
    135 H135       -6.5496  -16.8111  -49.3103 H         1 UNK         0.0800 
    136 H136       -6.0117  -18.2736  -52.6818 H         1 UNK         0.1150 
    137 H137       -5.6016  -22.2839  -51.1993 H         1 UNK         0.1150 
    138 H138       -5.9218  -19.0055  -48.4696 H         1 UNK         0.1150 
    139 H139       -5.9020  -22.7089  -48.8165 H         1 UNK         0.0800 
    140 H140       -6.3483  -21.3899  -47.7558 H         1 UNK         0.0800 
    141 H141       -4.8895  -23.2231  -46.2511 H         1 UNK         0.0800 
    142 H142       -4.8327  -21.5870  -45.6628 H         1 UNK         0.0800 
    143 H143       -2.1672  -21.9511  -45.7897 H         1 UNK         0.0600 
    144 H144       -3.7649  -21.5695  -43.8231 H         1 UNK         0.3000 
    145 H145       -3.4577  -21.7704  -41.3741 H         1 UNK         0.0600 
    146 H146       -1.6365  -21.3234  -39.7313 H         1 UNK         0.0600 
    147 H147       -1.5961  -22.9973  -40.2652 H         1 UNK         0.0600 
    148 H148       -0.4268  -21.8452  -40.9016 H         1 UNK         0.0600 
    149 H149       -1.2797  -19.8900  -42.0714 H         1 UNK         0.3000 
    150 H150       -3.4922  -17.5979  -43.7435 H         1 UNK         0.0600 
    151 H151       -1.5100  -17.6224  -41.4009 H         1 UNK         0.0600 
    152 H152       -3.0606  -16.8116  -41.4889 H         1 UNK         0.0600 
    153 H153       -1.7187  -16.2517  -42.4740 H         1 UNK         0.0600 
    154 H154       -0.6429  -18.1086  -43.8470 H         1 UNK         0.3000 
    155 H155       -0.7020  -20.2186  -46.6792 H         1 UNK         0.0600 
    156 H156        0.7794  -18.5289  -47.7511 H         1 UNK         0.0600 
    157 H157        0.0981  -17.2711  -46.7189 H         1 UNK         0.0600 
    158 H158       -0.9177  -18.0888  -47.8912 H         1 UNK         0.0600 
    159 H159        1.1722  -18.6971  -44.9613 H         1 UNK         0.3000 
    160 H160        1.7377  -21.4138  -42.8088 H         1 UNK         0.0600 
    161 H161        3.7161  -20.6775  -45.0366 H         1 UNK         0.0600 
    162 H162        3.1561  -22.3039  -44.6706 H         1 UNK         0.0600 
    163 H163        4.1262  -21.4332  -43.4954 H         1 UNK         0.0600 
    164 H164        3.2257  -19.0111  -43.2853 H         1 UNK         0.3000 
    165 H165        1.0482  -16.7669  -41.6559 H         1 UNK         0.0600 
    166 H166        2.9867  -16.3296  -40.1703 H         1 UNK         0.0600 
    167 H167        3.6933  -17.8923  -40.5844 H         1 UNK         0.0600 
    168 H168        2.1809  -17.8137  -39.6884 H         1 UNK         0.0600 
    169 H169        3.7033  -16.4457  -42.6140 H         1 UNK         0.3000 
    170 H170        3.9421  -15.1485  -44.6246 H         1 UNK         0.0600 
    171 H171        4.8163  -17.4898  -44.6811 H         1 UNK         0.0600 
    172 H172        3.7231  -17.8914  -46.0005 H         1 UNK         0.0600 
    173 H173        5.0256  -16.7293  -46.2467 H         1 UNK         0.0600 
    174 H174        2.6985  -15.9769  -47.1161 H         1 UNK         0.3000 
    175 H175        2.1684  -13.0714  -48.1865 H         1 UNK         0.0600 
    176 H176        0.6164  -15.7036  -48.3754 H         1 UNK         0.0600 
    177 H177        0.9794  -14.6017  -49.6942 H         1 UNK         0.0600 
    178 H178        2.2791  -15.4626  -48.9196 H         1 UNK         0.0600 
    179 H179       -0.5807  -13.8058  -47.3071 H         1 UNK         0.3000 
    180 H180       -1.2930  -10.5646  -46.2165 H         1 UNK         0.0600 
    181 H181       -2.4922  -11.6819  -48.8033 H         1 UNK         0.0600 
    182 H182       -1.7072  -10.1132  -48.6612 H         1 UNK         0.0600 
    183 H183       -3.1896  -10.4336  -47.7752 H         1 UNK         0.0600 
    184 H184       -2.8933  -12.9168  -46.7828 H         1 UNK         0.3000 
    185 H185       -1.8705  -14.9304  -44.3005 H         1 UNK         0.0600 
    186 H186       -3.9985  -14.8431  -42.9876 H         1 UNK         0.0600 
    187 H187       -2.9312  -13.5273  -42.5292 H         1 UNK         0.0600 
    188 H188       -4.3083  -13.2112  -43.5784 H         1 UNK         0.0600 
    189 H189       -4.4580  -14.9299  -45.3972 H         1 UNK         0.3000 
    190 H190       -3.2858  -24.8064  -44.1031 H         1 UNK         0.3000 
    191 H191       -2.5373  -26.7992  -45.9971 H         1 UNK         0.0600 
    192 H192       -2.6579  -28.3128  -44.0079 H         1 UNK         0.0600 
    193 H193       -4.0533  -27.2494  -44.0872 H         1 UNK         0.0600 
    194 H194       -2.7540  -26.9168  -42.9406 H         1 UNK         0.0600 
    195 H195       -0.6046  -24.8880  -43.7158 H         1 UNK         0.3000 
    196 H196        1.7110  -26.6047  -43.6802 H         1 UNK         0.0600 
    197 H197        1.3615  -23.6365  -43.0463 H         1 UNK         0.0600 
    198 H198        1.2936  -24.9624  -41.8920 H         1 UNK         0.0600 
    199 H199        2.8103  -24.5721  -42.6938 H         1 UNK         0.0600 
    200 H200        0.6356  -23.9456  -45.7904 H         1 UNK         0.3000 
    201 H201        3.0597  -24.0606  -47.4712 H         1 UNK         0.0600 
    202 H202        0.4642  -22.4434  -47.6739 H         1 UNK         0.0600 
    203 H203        1.8343  -22.2869  -48.7686 H         1 UNK         0.0600 
    204 H204        2.0242  -21.8652  -47.0836 H         1 UNK         0.0600 
    205 H205        0.5485  -26.1401  -47.1053 H         1 UNK         0.3000 
    206 H206       -0.5782  -27.6383  -48.2722 H         1 UNK         0.0600 
    207 H207        1.7250  -28.3696  -48.9395 H         1 UNK         0.0600 
    208 H208        0.5340  -28.7438  -50.1736 H         1 UNK         0.0600 
    209 H209        1.6190  -27.3778  -50.3936 H         1 UNK         0.0600 
    210 H210       -1.4200  -24.9549  -48.5256 H         1 UNK         0.3000 
    211 H211       -2.7902  -23.5953  -49.5240 H         1 UNK         0.0600 
    212 H212       -4.6192  -24.4740  -50.9143 H         1 UNK         0.0600 
    213 H213       -4.2860  -25.5906  -49.6037 H         1 UNK         0.0600 
    214 H214       -3.7234  -25.9507  -51.2365 H         1 UNK         0.0600 
    215 H215       -0.0512  -23.8670  -50.6934 H         1 UNK         0.3000 
    216 H216       -0.1446  -23.2370  -53.4599 H         1 UNK         0.0600 
    217 H217        1.9308  -22.4721  -51.3383 H         1 UNK         0.0600 
    218 H218        2.1617  -22.3518  -53.0784 H         1 UNK         0.0600 
    219 H219        1.9399  -23.9268  -52.3339 H         1 UNK         0.0600 
    220 H220       -0.1392  -21.1585  -50.5879 H         1 UNK         0.3000 
    221 H221       -0.7531  -19.0284  -50.1614 H         1 UNK         0.0600 
    222 H222       -2.8394  -20.1820  -50.1283 H         1 UNK         0.0600 
    223 H223       -2.9777  -20.1948  -51.8779 H         1 UNK         0.0600 
    224 H224       -3.1657  -18.6927  -50.9959 H         1 UNK         0.0600 
    225 H225        1.1636  -18.3296  -51.5123 H         1 UNK         0.3000 
    226 H226        1.1549  -17.4107  -54.0565 H         1 UNK         0.0600 
    227 H227        2.7108  -16.2903  -51.6677 H         1 UNK         0.0600 
    228 H228        3.1686  -17.6808  -52.6530 H         1 UNK         0.0600 
    229 H229        3.1574  -16.0729  -53.3556 H         1 UNK         0.0600 
    230 H230       -0.4189  -15.6978  -51.4612 H         1 UNK         0.3000 
    231 H231       -0.3922  -13.0595  -52.6002 H         1 UNK         0.0600 
    232 H232       -2.0713  -14.3974  -50.4275 H         1 UNK         0.0600 
    233 H233       -2.3007  -12.7230  -50.9099 H         1 UNK         0.0600 
    234 H234       -0.7663  -13.2274  -50.2380 H         1 UNK         0.0600 
    235 H235       -2.3534  -15.8890  -53.3373 H         1 UNK         0.3000 
    236 H236       -3.9154  -14.2532  -55.2673 H         1 UNK         0.0600 
    237 H237       -5.3202  -14.3436  -53.1969 H         1 UNK         0.0600 
    238 H238       -6.0548  -15.2411  -54.5182 H         1 UNK         0.0600 
    239 H239       -5.2385  -16.1044  -53.2234 H         1 UNK         0.0600 
    240 H240       -2.8104  -17.4857  -54.1964 H         1 UNK         0.3000 
    241 H241       -3.6653  -18.6380  -56.8052 H         1 UNK         0.0600 
    242 H242        0.2476  -18.2419  -56.5931 H         1 UNK         0.3800 
    243 H243       -0.8826  -17.2040  -55.7566 H         1 UNK         0.3800 
    244 H244       -3.1700  -19.9502  -54.1018 H         1 UNK         0.0800 
    245 H245       -3.4313  -20.8503  -55.5743 H         1 UNK         0.0800 
    246 H246       -5.0469  -21.7513  -53.5659 H         1 UNK         0.0800 
    247 H247       -6.7520  -21.4037  -53.6996 H         1 UNK         0.0800 
@<TRIPOS>BOND
     1    1    2 1    
     2    1  127 1    
     3    1  128 1    
     4    1  129 1    
     5    2    3 2    
     6    2    4 am   BACKBONE|DICT|INTERRES
     7    4    5 1    
     8    4  130 1    
     9    5    6 1    
    10    5   65 1    
    11    5  131 1    
    12    6    7 1    
    13    6  132 1    
    14    6  133 1    
    15    7    8 1    
    16    8    9 1    
    17    8  134 1    
    18    8  135 1    
    19    9   10 ar   
    20    9   14 ar   
    21   10   11 ar   
    22   10  136 1    
    23   11   12 ar   
    24   11  126 1    
    25   12   13 ar   
    26   12  137 1    
    27   13   14 ar   
    28   13   15 1    
    29   14  138 1    
    30   15   16 1    
    31   15  139 1    
    32   15  140 1    
    33   16   17 1    
    34   17   18 1    
    35   17  141 1    
    36   17  142 1    
    37   18   19 1    
    38   18   67 1    
    39   18  143 1    
    40   19   20 am   BACKBONE|DICT|INTERRES
    41   19  144 1    
    42   20   21 2    
    43   20   22 1    
    44   22   23 1    
    45   22   24 1    
    46   22  145 1    
    47   23  146 1    
    48   23  147 1    
    49   23  148 1    
    50   24   25 am   BACKBONE|DICT|INTERRES
    51   24  149 1    
    52   25   26 2    
    53   25   27 1    
    54   27   28 1    
    55   27   29 1    
    56   27  150 1    
    57   28  151 1    
    58   28  152 1    
    59   28  153 1    
    60   29   30 am   BACKBONE|DICT|INTERRES
    61   29  154 1    
    62   30   31 2    
    63   30   32 1    
    64   32   33 1    
    65   32   34 1    
    66   32  155 1    
    67   33  156 1    
    68   33  157 1    
    69   33  158 1    
    70   34   35 am   BACKBONE|DICT|INTERRES
    71   34  159 1    
    72   35   36 2    
    73   35   37 1    
    74   37   38 1    
    75   37   39 1    
    76   37  160 1    
    77   38  161 1    
    78   38  162 1    
    79   38  163 1    
    80   39   40 am   BACKBONE|DICT|INTERRES
    81   39  164 1    
    82   40   41 2    
    83   40   42 1    
    84   42   43 1    
    85   42   44 1    
    86   42  165 1    
    87   43  166 1    
    88   43  167 1    
    89   43  168 1    
    90   44   45 am   BACKBONE|DICT|INTERRES
    91   44  169 1    
    92   45   46 2    
    93   45   47 1    
    94   47   48 1    
    95   47   49 1    
    96   47  170 1    
    97   48  171 1    
    98   48  172 1    
    99   48  173 1    
   100   49   50 am   BACKBONE|DICT|INTERRES
   101   49  174 1    
   102   50   51 2    
   103   50   52 1    
   104   52   53 1    
   105   52   54 1    
   106   52  175 1    
   107   53  176 1    
   108   53  177 1    
   109   53  178 1    
   110   54   55 am   BACKBONE|DICT|INTERRES
   111   54  179 1    
   112   55   56 2    
   113   55   57 1    
   114   57   58 1    
   115   57   59 1    
   116   57  180 1    
   117   58  181 1    
   118   58  182 1    
   119   58  183 1    
   120   59   60 am   BACKBONE|DICT|INTERRES
   121   59  184 1    
   122   60   61 2    
   123   60   62 1    
   124   62   63 1    
   125   62   64 1    
   126   62  185 1    
   127   63  186 1    
   128   63  187 1    
   129   63  188 1    
   130   64   65 am   BACKBONE|DICT|INTERRES
   131   64  189 1    
   132   65   66 2    
   133   67   68 2    
   134   67   69 am   BACKBONE|DICT|INTERRES
   135   69   70 1    
   136   69  190 1    
   137   70   71 1    
   138   70   72 1    
   139   70  191 1    
   140   71  192 1    
   141   71  193 1    
   142   71  194 1    
   143   72   73 2    
   144   72   74 am   BACKBONE|DICT|INTERRES
   145   74   75 1    
   146   74  195 1    
   147   75   76 1    
   148   75   77 1    
   149   75  196 1    
   150   76  197 1    
   151   76  198 1    
   152   76  199 1    
   153   77   78 2    
   154   77   79 am   BACKBONE|DICT|INTERRES
   155   79   80 1    
   156   79  200 1    
   157   80   81 1    
   158   80   82 1    
   159   80  201 1    
   160   81  202 1    
   161   81  203 1    
   162   81  204 1    
   163   82   83 2    
   164   82   84 am   BACKBONE|DICT|INTERRES
   165   84   85 1    
   166   84  205 1    
   167   85   86 1    
   168   85   87 1    
   169   85  206 1    
   170   86  207 1    
   171   86  208 1    
   172   86  209 1    
   173   87   88 2    
   174   87   89 am   BACKBONE|DICT|INTERRES
   175   89   90 1    
   176   89  210 1    
   177   90   91 1    
   178   90   92 1    
   179   90  211 1    
   180   91  212 1    
   181   91  213 1    
   182   91  214 1    
   183   92   93 2    
   184   92   94 am   BACKBONE|DICT|INTERRES
   185   94   95 1    
   186   94  215 1    
   187   95   96 1    
   188   95   97 1    
   189   95  216 1    
   190   96  217 1    
   191   96  218 1    
   192   96  219 1    
   193   97   98 2    
   194   97   99 am   BACKBONE|DICT|INTERRES
   195   99  100 1    
   196   99  220 1    
   197  100  101 1    
   198  100  102 1    
   199  100  221 1    
   200  101  222 1    
   201  101  223 1    
   202  101  224 1    
   203  102  103 2    
   204  102  104 am   BACKBONE|DICT|INTERRES
   205  104  105 1    
   206  104  225 1    
   207  105  106 1    
   208  105  107 1    
   209  105  226 1    
   210  106  227 1    
   211  106  228 1    
   212  106  229 1    
   213  107  108 2    
   214  107  109 am   BACKBONE|DICT|INTERRES
   215  109  110 1    
   216  109  230 1    
   217  110  111 1    
   218  110  112 1    
   219  110  231 1    
   220  111  232 1    
   221  111  233 1    
   222  111  234 1    
   223  112  113 2    
   224  112  114 am   BACKBONE|DICT|INTERRES
   225  114  115 1    
   226  114  235 1    
   227  115  116 1    
   228  115  117 1    
   229  115  236 1    
   230  116  237 1    
   231  116  238 1    
   232  116  239 1    
   233  117  118 2    
   234  117  119 am   BACKBONE|DICT|INTERRES
   235  119  120 1    
   236  119  240 1    
   237  120  121 1    
   238  120  124 1    
   239  120  241 1    
   240  121  122 am   BACKBONE|DICT|INTERRES
   241  121  123 2    
   242  122  242 1    
   243  122  243 1    
   244  124  125 1    
   245  124  244 1    
   246  124  245 1    
   247  125  126 1    
   248  126  246 1    
   249  126  247 1    
@<TRIPOS>SUBSTRUCTURE
     1 UNK         1 GROUP             0       ****    0 ROOT    
