@<TRIPOS>MOLECULE
3R540
247   249    1
SMALL
USER_CHARGES


@<TRIPOS>ATOM
      1 CA         -2.0929  -11.3917  -46.4571 C.3       0 UNK        -0.1800 
      2 C          -0.9552  -11.7189  -47.4148 C.2       0 UNK         0.5000 
      3 O          -1.1023  -11.5545  -48.6256 O.2       0 UNK        -0.5000 
      4 N           0.1749  -12.1795  -46.8745 N.am      1 UNK        -0.5000 
      5 CA          1.3974  -12.5472  -47.5843 C.3       1 UNK         0.1400 
      6 C6          1.2405  -13.8501  -48.4189 C.3       23 UNK        -0.0398 
      7 S7          2.3915  -13.9285  -49.8337 S.3       23 UNK        -0.2404 
      8 C8          2.9489  -15.6687  -49.7474 C.3       23 UNK        -0.0205 
      9 C9          1.9082  -16.7352  -50.1078 C.ar      23 UNK        -0.0193 
     10 C10         0.6420  -16.4285  -50.6264 C.ar      23 UNK        -0.1150 
     11 C11        -0.2671  -17.4403  -50.9464 C.ar      23 UNK        -0.0193 
     12 C12         0.0939  -18.7752  -50.7482 C.ar      23 UNK        -0.1150 
     13 C13         1.3516  -19.1051  -50.2380 C.ar      23 UNK        -0.0193 
     14 C14         2.2525  -18.0794  -49.9284 C.ar      23 UNK        -0.1150 
     15 C15         1.7273  -20.5737  -50.0600 C.3       23 UNK        -0.0205 
     16 S16         2.5619  -20.9516  -48.4807 S.3       23 UNK        -0.2404 
     17 C17         1.3358  -20.4142  -47.2413 C.3       23 UNK        -0.0398 
     18 CA          0.4560  -21.5751  -46.7158 C.3       11 UNK         0.1400 
     19 N          -0.0043  -21.3426  -45.3444 N.am      11 UNK        -0.5000 
     20 C          -0.6663  -22.2303  -44.5887 C.2       10 UNK         0.5000 
     21 O          -0.9206  -23.3793  -44.9474 O.2       10 UNK        -0.5000 
     22 CA         -1.1825  -21.7333  -43.2255 C.3       10 UNK         0.1400 
     23 CB         -0.0669  -21.7443  -42.1701 C.3       10 UNK        -0.1800 
     24 N          -1.7756  -20.3978  -43.3121 N.am      10 UNK        -0.5000 
     25 C          -2.8794  -20.1142  -44.0189 C.2       9 UNK         0.5000 
     26 O          -3.5496  -20.9650  -44.6052 O.2       9 UNK        -0.5000 
     27 CA         -3.2763  -18.6305  -44.1291 C.3       9 UNK         0.1400 
     28 CB         -4.0592  -18.1813  -42.8867 C.3       9 UNK        -0.1800 
     29 N          -2.1270  -17.7470  -44.3335 N.am      9 UNK        -0.5000 
     30 C          -1.3218  -17.7804  -45.4057 C.2       8 UNK         0.5000 
     31 O          -1.4826  -18.5405  -46.3576 O.2       8 UNK        -0.5000 
     32 CA         -0.0962  -16.8515  -45.3865 C.3       8 UNK         0.1400 
     33 CB         -0.5032  -15.4072  -45.7082 C.3       8 UNK        -0.1800 
     34 N           0.6050  -16.8893  -44.1045 N.am      8 UNK        -0.5000 
     35 C           1.1745  -17.9784  -43.5705 C.2       7 UNK         0.5000 
     36 O           1.2179  -19.0719  -44.1299 O.2       7 UNK        -0.5000 
     37 CA          1.7362  -17.8385  -42.1462 C.3       7 UNK         0.1400 
     38 CB          3.1552  -17.2495  -42.1652 C.3       7 UNK        -0.1800 
     39 N           0.8655  -17.0202  -41.3022 N.am      7 UNK        -0.5000 
     40 C          -0.3446  -17.4051  -40.8717 C.2       6 UNK         0.5000 
     41 O          -0.8311  -18.5128  -41.1014 O.2       6 UNK        -0.5000 
     42 CA         -1.1611  -16.3598  -40.0884 C.3       6 UNK         0.1400 
     43 CB         -0.7308  -16.3286  -38.6143 C.3       6 UNK        -0.1800 
     44 N          -1.0431  -15.0155  -40.6577 N.am      6 UNK        -0.5000 
     45 C          -1.5417  -14.6561  -41.8491 C.2       5 UNK         0.5000 
     46 O          -2.1977  -15.4101  -42.5667 O.2       5 UNK        -0.5000 
     47 CA         -1.2102  -13.2341  -42.3471 C.3       5 UNK         0.1400 
     48 CB         -2.2699  -12.2321  -41.8672 C.3       5 UNK        -0.1800 
     49 N           0.1228  -12.7578  -41.9587 N.am      5 UNK        -0.5000 
     50 C           1.2707  -13.3668  -42.2825 C.2       4 UNK         0.5000 
     51 O           1.3221  -14.4283  -42.9090 O.2       4 UNK        -0.5000 
     52 CA          2.5705  -12.7170  -41.7887 C.3       4 UNK         0.1400 
     53 CB          2.7135  -12.8700  -40.2621 C.3       4 UNK        -0.1800 
     54 N           3.6814  -13.3775  -42.4629 N.am      4 UNK        -0.5000 
     55 C           4.9399  -12.9406  -42.5616 C.2       3 UNK         0.5000 
     56 O           5.3369  -11.8816  -42.0756 O.2       3 UNK        -0.5000 
     57 CA          5.9289  -13.8351  -43.3384 C.3       3 UNK         0.1400 
     58 CB          6.8276  -14.5994  -42.3540 C.3       3 UNK        -0.1800 
     59 N           5.2629  -14.8128  -44.2077 N.am      3 UNK        -0.5000 
     60 C           4.7262  -14.6059  -45.4190 C.2       2 UNK         0.5000 
     61 O           4.1418  -15.5110  -46.0151 O.2       2 UNK        -0.5000 
     62 CA          4.8851  -13.2330  -46.1157 C.3       2 UNK         0.1400 
     63 CB          6.1626  -13.2108  -46.9692 C.3       2 UNK        -0.1800 
     64 N           3.7428  -12.9471  -46.9810 N.am      2 UNK        -0.5000 
     65 C           2.5212  -12.6408  -46.5331 C.2       1 UNK         0.5000 
     66 O           2.2675  -12.4361  -45.3420 O.2       1 UNK        -0.5000 
     67 C          -0.7192  -21.8672  -47.6697 C.2       11 UNK         0.5000 
     68 O          -0.6557  -22.8372  -48.4234 O.2       11 UNK        -0.5000 
     69 N          -1.7851  -21.0574  -47.5843 N.am      12 UNK        -0.5000 
     70 CA         -3.0275  -21.2106  -48.3417 C.3       12 UNK         0.1400 
     71 CB         -3.9951  -20.0698  -47.9906 C.3       12 UNK        -0.1800 
     72 C          -3.7059  -22.5668  -48.0940 C.2       12 UNK         0.5000 
     73 O          -4.1178  -23.2179  -49.0522 O.2       12 UNK        -0.5000 
     74 N          -3.7805  -22.9764  -46.8203 N.am      13 UNK        -0.5000 
     75 CA         -4.3236  -24.2653  -46.3957 C.3       13 UNK         0.1400 
     76 CB         -4.4924  -24.2683  -44.8688 C.3       13 UNK        -0.1800 
     77 C          -3.4650  -25.4588  -46.8542 C.2       13 UNK         0.5000 
     78 O          -4.0203  -26.4730  -47.2776 O.2       13 UNK        -0.5000 
     79 N          -2.1351  -25.3183  -46.7651 N.am      14 UNK        -0.5000 
     80 CA         -1.1642  -26.3345  -47.1702 C.3       14 UNK         0.1400 
     81 CB          0.2254  -25.9649  -46.6280 C.3       14 UNK        -0.1800 
     82 C          -1.1168  -26.5415  -48.6941 C.2       14 UNK         0.5000 
     83 O          -1.1193  -27.6858  -49.1504 O.2       14 UNK        -0.5000 
     84 N          -1.0705  -25.4370  -49.4506 N.am      15 UNK        -0.5000 
     85 CA         -1.0375  -25.4393  -50.9124 C.3       15 UNK         0.1400 
     86 CB         -0.5715  -24.0640  -51.4104 C.3       15 UNK        -0.1800 
     87 C          -2.3959  -25.8055  -51.5321 C.2       15 UNK         0.5000 
     88 O          -2.4279  -26.5021  -52.5481 O.2       15 UNK        -0.5000 
     89 N          -3.4873  -25.3290  -50.9140 N.am      16 UNK        -0.5000 
     90 CA         -4.8809  -25.5139  -51.3178 C.3       16 UNK         0.1400 
     91 CB         -5.3290  -26.9648  -51.0335 C.3       16 UNK        -0.1800 
     92 C          -5.1021  -25.0465  -52.7698 C.2       16 UNK         0.5000 
     93 O          -4.8780  -23.8699  -53.0648 O.2       16 UNK        -0.5000 
     94 N          -5.4855  -25.9739  -53.6564 N.am      17 UNK        -0.5000 
     95 CA         -5.7182  -25.7536  -55.0834 C.3       17 UNK         0.1400 
     96 CB         -6.2525  -27.0518  -55.7064 C.3       17 UNK        -0.1800 
     97 C          -4.4876  -25.2502  -55.8638 C.2       17 UNK         0.5000 
     98 O          -4.6685  -24.5811  -56.8807 O.2       17 UNK        -0.5000 
     99 N          -3.2693  -25.5321  -55.3747 N.am      18 UNK        -0.5000 
    100 CA        -2.0181  -25.0654  -55.9823 C.3       18 UNK         0.1400 
    101 CB        -0.8315  -25.8403  -55.3902 C.3       18 UNK        -0.1800 
    102 C         -1.8033  -23.5454  -55.8362 C.2       18 UNK         0.5000 
    103 O         -1.1478  -22.9464  -56.6893 O.2       18 UNK        -0.5000 
    104 N         -2.3758  -22.9501  -54.7808 N.am      19 UNK        -0.5000 
    105 CA        -2.3972  -21.5038  -54.5452 C.3       19 UNK         0.1400 
    106 CB        -2.0150  -21.2380  -53.0787 C.3       19 UNK        -0.1800 
    107 C         -3.7783  -20.8921  -54.8457 C.2       19 UNK         0.5000 
    108 O         -3.9457  -19.6849  -54.6730 O.2       19 UNK        -0.5000 
    109 N         -4.7598  -21.7328  -55.2121 N.am      20 UNK        -0.5000 
    110 CA        -6.1950  -21.4378  -55.3229 C.3       20 UNK         0.1400 
    111 CB        -6.4673  -20.5338  -56.5421 C.3       20 UNK        -0.1800 
    112 C         -6.7817  -20.8691  -54.0101 C.2       20 UNK         0.5000 
    113 O         -7.6404  -19.9856  -54.0459 O.2       20 UNK        -0.5000 
    114 N         -6.2413  -21.3367  -52.8722 N.am      21 UNK        -0.5000 
    115 CA        -6.4514  -20.8390  -51.5060 C.3       21 UNK         0.1400 
    116 CB        -7.8485  -21.2498  -51.0010 C.3       21 UNK        -0.1800 
    117 C         -6.1772  -19.3225  -51.3443 C.2       21 UNK         0.5000 
    118 O         -6.7819  -18.6785  -50.4859 O.2       21 UNK        -0.5000 
    119 N         -5.2884  -18.7821  -52.1906 N.am      22 UNK        -0.5000 
    120 CA        -4.9839  -17.3520  -52.3648 C.3       22 UNK         0.1400 
    121 C         -6.1371  -16.5203  -53.0090 C.2       22 UNK         0.5000 
    122 N         -7.1586  -17.1296  -53.6005 N.am      22 UNK        -0.7600 
    123 O         -6.0957  -15.2928  -53.0035 O.2       22 UNK        -0.5000 
    124 C124       -4.3937  -16.6644  -51.1003 C.3       23 UNK        -0.0398 
    125 S125       -2.9667  -17.5355  -50.3708 S.3       23 UNK        -0.2404 
    126 C126       -1.6323  -17.0896  -51.5207 C.3       23 UNK        -0.0205 
    127 H127       -2.9601  -12.0133  -46.6796 H         1 UNK         0.0600 
    128 H128       -2.3842  -10.3467  -46.5625 H         1 UNK         0.0600 
    129 H129       -1.8103  -11.5626  -45.4179 H         1 UNK         0.0600 
    130 H130        0.2807  -12.2407  -45.8683 H         1 UNK         0.3000 
    131 H131        1.6445  -11.7159  -48.2480 H         1 UNK         0.0600 
    132 H132        1.3582  -14.7364  -47.7937 H         1 UNK         0.0800 
    133 H133        0.2354  -13.9188  -48.8354 H         1 UNK         0.0800 
    134 H134        3.3322  -15.8640  -48.7443 H         1 UNK         0.0800 
    135 H135        3.7964  -15.7814  -50.4247 H         1 UNK         0.0800 
    136 H136        0.3514  -15.4030  -50.7957 H         1 UNK         0.1150 
    137 H137       -0.6105  -19.5572  -50.9930 H         1 UNK         0.1150 
    138 H138        3.2314  -18.3294  -49.5438 H         1 UNK         0.1150 
    139 H139        0.8457  -21.2100  -50.1490 H         1 UNK         0.0800 
    140 H140        2.3899  -20.8594  -50.8778 H         1 UNK         0.0800 
    141 H141        0.7363  -19.5828  -47.6156 H         1 UNK         0.0800 
    142 H142        1.9226  -19.9984  -46.4228 H         1 UNK         0.0800 
    143 H143        1.0707  -22.4768  -46.6733 H         1 UNK         0.0600 
    144 H144        0.2094  -20.4318  -44.9457 H         1 UNK         0.3000 
    145 H145       -1.9628  -22.4227  -42.8962 H         1 UNK         0.0600 
    146 H146        0.7493  -21.0726  -42.4340 H         1 UNK         0.0600 
    147 H147       -0.4457  -21.4414  -41.1937 H         1 UNK         0.0600 
    148 H148        0.3544  -22.7443  -42.0606 H         1 UNK         0.0600 
    149 H149       -1.3022  -19.6503  -42.8171 H         1 UNK         0.3000 
    150 H150       -3.9304  -18.5279  -44.9973 H         1 UNK         0.0600 
    151 H151       -4.9294  -18.8178  -42.7216 H         1 UNK         0.0600 
    152 H152       -4.4204  -17.1588  -42.9981 H         1 UNK         0.0600 
    153 H153       -3.4454  -18.2221  -41.9866 H         1 UNK         0.0600 
    154 H154       -1.9553  -17.0516  -43.6133 H         1 UNK         0.3000 
    155 H155        0.6024  -17.1906  -46.1545 H         1 UNK         0.0600 
    156 H156       -1.2918  -15.0491  -45.0481 H         1 UNK         0.0600 
    157 H157        0.3449  -14.7314  -45.6068 H         1 UNK         0.0600 
    158 H158       -0.8756  -15.3274  -46.7301 H         1 UNK         0.0600 
    159 H159        0.6759  -16.0113  -43.5957 H         1 UNK         0.3000 
    160 H160        1.7924  -18.8375  -41.7086 H         1 UNK         0.0600 
    161 H161        3.8302  -17.8867  -42.7379 H         1 UNK         0.0600 
    162 H162        3.1774  -16.2608  -42.6201 H         1 UNK         0.0600 
    163 H163        3.5628  -17.1657  -41.1577 H         1 UNK         0.0600 
    164 H164        1.1623  -16.0712  -41.1310 H         1 UNK         0.3000 
    165 H165       -2.2109  -16.6579  -40.1310 H         1 UNK         0.0600 
    166 H166       -1.3554  -15.6475  -38.0360 H         1 UNK         0.0600 
    167 H167       -0.8227  -17.3164  -38.1606 H         1 UNK         0.0600 
    168 H168        0.3065  -16.0107  -38.5020 H         1 UNK         0.0600 
    169 H169       -0.5180  -14.3352  -40.1287 H         1 UNK         0.3000 
    170 H170       -1.2403  -13.2579  -43.4378 H         1 UNK         0.0600 
    171 H171       -3.2707  -12.5509  -42.1620 H         1 UNK         0.0600 
    172 H172       -2.2644  -12.1288  -40.7814 H         1 UNK         0.0600 
    173 H173       -2.1049  -11.2454  -42.3005 H         1 UNK         0.0600 
    174 H174        0.1563  -11.8969  -41.4319 H         1 UNK         0.3000 
    175 H175        2.5577  -11.6608  -42.0647 H         1 UNK         0.0600 
    176 H176        2.7321  -13.9194  -39.9649 H         1 UNK         0.0600 
    177 H177        3.6307  -12.4058  -39.8998 H         1 UNK         0.0600 
    178 H178        1.8860  -12.3928  -39.7362 H         1 UNK         0.0600 
    179 H179        3.4038  -14.2153  -42.9591 H         1 UNK         0.3000 
    180 H180        6.5726  -13.1884  -43.9365 H         1 UNK         0.0600 
    181 H181        6.2491  -15.2695  -41.7166 H         1 UNK         0.0600 
    182 H182        7.3680  -13.9118  -41.7018 H         1 UNK         0.0600 
    183 H183        7.5721  -15.1964  -42.8811 H         1 UNK         0.0600 
    184 H184        5.1808  -15.7393  -43.8180 H         1 UNK         0.3000 
    185 H185        4.9424  -12.4321  -45.3785 H         1 UNK         0.0600 
    186 H186        6.2990  -12.2422  -47.4507 H         1 UNK         0.0600 
    187 H187        7.0474  -13.3968  -46.3595 H         1 UNK         0.0600 
    188 H188        6.1376  -13.9728  -47.7496 H         1 UNK         0.0600 
    189 H189        3.8628  -13.1405  -47.9656 H         1 UNK         0.3000 
    190 H190       -1.7295  -20.2434  -46.9750 H         1 UNK         0.3000 
    191 H191       -2.7759  -21.1389  -49.4019 H         1 UNK         0.0600 
    192 H192       -4.8522  -20.0653  -48.6639 H         1 UNK         0.0600 
    193 H193       -3.5120  -19.0979  -48.0685 H         1 UNK         0.0600 
    194 H194       -4.3805  -20.1583  -46.9755 H         1 UNK         0.0600 
    195 H195       -3.4520  -22.3547  -46.0879 H         1 UNK         0.3000 
    196 H196       -5.3123  -24.3761  -46.8459 H         1 UNK         0.0600 
    197 H197       -4.9174  -25.2116  -44.5239 H         1 UNK         0.0600 
    198 H198       -5.1621  -23.4712  -44.5454 H         1 UNK         0.0600 
    199 H199       -3.5391  -24.1298  -44.3576 H         1 UNK         0.0600 
    200 H200       -1.7582  -24.4702  -46.3519 H         1 UNK         0.3000 
    201 H201       -1.4601  -27.2822  -46.7155 H         1 UNK         0.0600 
    202 H202        0.2206  -25.9097  -45.5393 H         1 UNK         0.0600 
    203 H203        0.5638  -25.0010  -47.0094 H         1 UNK         0.0600 
    204 H204        0.9681  -26.7112  -46.9126 H         1 UNK         0.0600 
    205 H205       -1.0323  -24.5257  -48.9965 H         1 UNK         0.3000 
    206 H206       -0.3092  -26.1833  -51.2419 H         1 UNK         0.0600 
    207 H207        0.4272  -23.8292  -51.0419 H         1 UNK         0.0600 
    208 H208       -0.5343  -24.0292  -52.4993 H         1 UNK         0.0600 
    209 H209       -1.2431  -23.2732  -51.0753 H         1 UNK         0.0600 
    210 H210       -3.3645  -24.7090  -50.1198 H         1 UNK         0.3000 
    211 H211       -5.4818  -24.8530  -50.6922 H         1 UNK         0.0600 
    212 H212       -4.7559  -27.6958  -51.6049 H         1 UNK         0.0600 
    213 H213       -6.3851  -27.1062  -51.2664 H         1 UNK         0.0600 
    214 H214       -5.2012  -27.2051  -49.9776 H         1 UNK         0.0600 
    215 H215       -5.6056  -26.9204  -53.3263 H         1 UNK         0.3000 
    216 H216       -6.4924  -24.9890  -55.1730 H         1 UNK         0.0600 
    217 H217       -6.4678  -26.9176  -56.7674 H         1 UNK         0.0600 
    218 H218       -7.1790  -27.3684  -55.2268 H         1 UNK         0.0600 
    219 H219       -5.5320  -27.8659  -55.6179 H         1 UNK         0.0600 
    220 H220       -3.1886  -26.0600  -54.5120 H         1 UNK         0.3000 
    221 H221       -2.0616  -25.2885  -57.0506 H         1 UNK         0.0600 
    222 H222       -0.6887  -25.6183  -54.3334 H         1 UNK         0.0600 
    223 H223       -0.9704  -26.9167  -55.4920 H         1 UNK         0.0600 
    224 H224        0.0954  -25.5819  -55.9037 H         1 UNK         0.0600 
    225 H225       -2.9148  -23.5155  -54.1365 H         1 UNK         0.3000 
    226 H226       -1.6736  -20.9939  -55.1841 H         1 UNK         0.0600 
    227 H227       -0.9974  -21.5693  -52.8742 H         1 UNK         0.0600 
    228 H228       -2.0547  -20.1731  -52.8465 H         1 UNK         0.0600 
    229 H229       -2.6871  -21.7484  -52.3874 H         1 UNK         0.0600 
    230 H230       -4.5109  -22.7036  -55.3338 H         1 UNK         0.3000 
    231 H231       -6.6956  -22.3914  -55.4947 H         1 UNK         0.0600 
    232 H232       -7.5383  -20.4127  -56.7083 H         1 UNK         0.0600 
    233 H233       -6.0453  -20.9624  -57.4511 H         1 UNK         0.0600 
    234 H234       -6.0419  -19.5383  -56.4113 H         1 UNK         0.0600 
    235 H235       -5.5785  -22.1040  -52.9564 H         1 UNK         0.3000 
    236 H236       -5.7127  -21.3462  -50.8832 H         1 UNK         0.0600 
    237 H237       -7.9719  -21.0072  -49.9449 H         1 UNK         0.0600 
    238 H238       -8.0038  -22.3237  -51.1052 H         1 UNK         0.0600 
    239 H239       -8.6408  -20.7405  -51.5505 H         1 UNK         0.0600 
    240 H240       -4.8691  -19.3780  -52.8951 H         1 UNK         0.3000 
    241 H241       -4.1999  -17.3330  -53.1218 H         1 UNK         0.0600 
    242 H242       -7.8858  -16.5720  -54.0189 H         1 UNK         0.3800 
    243 H243       -7.2227  -18.1426  -53.6439 H         1 UNK         0.3800 
    244 H244       -4.0827  -15.6437  -51.3282 H         1 UNK         0.0800 
    245 H245       -5.1595  -16.5740  -50.3291 H         1 UNK         0.0800 
    246 H246       -1.7750  -17.6173  -52.4646 H         1 UNK         0.0800 
    247 H247       -1.6897  -16.0239  -51.7470 H         1 UNK         0.0800 
@<TRIPOS>BOND
     1    1    2 1    
     2    1  127 1    
     3    1  128 1    
     4    1  129 1    
     5    2    3 2    
     6    2    4 am   BACKBONE|DICT|INTERRES
     7    4    5 1    
     8    4  130 1    
     9    5    6 1    
    10    5   65 1    
    11    5  131 1    
    12    6    7 1    
    13    6  132 1    
    14    6  133 1    
    15    7    8 1    
    16    8    9 1    
    17    8  134 1    
    18    8  135 1    
    19    9   10 ar   
    20    9   14 ar   
    21   10   11 ar   
    22   10  136 1    
    23   11   12 ar   
    24   11  126 1    
    25   12   13 ar   
    26   12  137 1    
    27   13   14 ar   
    28   13   15 1    
    29   14  138 1    
    30   15   16 1    
    31   15  139 1    
    32   15  140 1    
    33   16   17 1    
    34   17   18 1    
    35   17  141 1    
    36   17  142 1    
    37   18   19 1    
    38   18   67 1    
    39   18  143 1    
    40   19   20 am   BACKBONE|DICT|INTERRES
    41   19  144 1    
    42   20   21 2    
    43   20   22 1    
    44   22   23 1    
    45   22   24 1    
    46   22  145 1    
    47   23  146 1    
    48   23  147 1    
    49   23  148 1    
    50   24   25 am   BACKBONE|DICT|INTERRES
    51   24  149 1    
    52   25   26 2    
    53   25   27 1    
    54   27   28 1    
    55   27   29 1    
    56   27  150 1    
    57   28  151 1    
    58   28  152 1    
    59   28  153 1    
    60   29   30 am   BACKBONE|DICT|INTERRES
    61   29  154 1    
    62   30   31 2    
    63   30   32 1    
    64   32   33 1    
    65   32   34 1    
    66   32  155 1    
    67   33  156 1    
    68   33  157 1    
    69   33  158 1    
    70   34   35 am   BACKBONE|DICT|INTERRES
    71   34  159 1    
    72   35   36 2    
    73   35   37 1    
    74   37   38 1    
    75   37   39 1    
    76   37  160 1    
    77   38  161 1    
    78   38  162 1    
    79   38  163 1    
    80   39   40 am   BACKBONE|DICT|INTERRES
    81   39  164 1    
    82   40   41 2    
    83   40   42 1    
    84   42   43 1    
    85   42   44 1    
    86   42  165 1    
    87   43  166 1    
    88   43  167 1    
    89   43  168 1    
    90   44   45 am   BACKBONE|DICT|INTERRES
    91   44  169 1    
    92   45   46 2    
    93   45   47 1    
    94   47   48 1    
    95   47   49 1    
    96   47  170 1    
    97   48  171 1    
    98   48  172 1    
    99   48  173 1    
   100   49   50 am   BACKBONE|DICT|INTERRES
   101   49  174 1    
   102   50   51 2    
   103   50   52 1    
   104   52   53 1    
   105   52   54 1    
   106   52  175 1    
   107   53  176 1    
   108   53  177 1    
   109   53  178 1    
   110   54   55 am   BACKBONE|DICT|INTERRES
   111   54  179 1    
   112   55   56 2    
   113   55   57 1    
   114   57   58 1    
   115   57   59 1    
   116   57  180 1    
   117   58  181 1    
   118   58  182 1    
   119   58  183 1    
   120   59   60 am   BACKBONE|DICT|INTERRES
   121   59  184 1    
   122   60   61 2    
   123   60   62 1    
   124   62   63 1    
   125   62   64 1    
   126   62  185 1    
   127   63  186 1    
   128   63  187 1    
   129   63  188 1    
   130   64   65 am   BACKBONE|DICT|INTERRES
   131   64  189 1    
   132   65   66 2    
   133   67   68 2    
   134   67   69 am   BACKBONE|DICT|INTERRES
   135   69   70 1    
   136   69  190 1    
   137   70   71 1    
   138   70   72 1    
   139   70  191 1    
   140   71  192 1    
   141   71  193 1    
   142   71  194 1    
   143   72   73 2    
   144   72   74 am   BACKBONE|DICT|INTERRES
   145   74   75 1    
   146   74  195 1    
   147   75   76 1    
   148   75   77 1    
   149   75  196 1    
   150   76  197 1    
   151   76  198 1    
   152   76  199 1    
   153   77   78 2    
   154   77   79 am   BACKBONE|DICT|INTERRES
   155   79   80 1    
   156   79  200 1    
   157   80   81 1    
   158   80   82 1    
   159   80  201 1    
   160   81  202 1    
   161   81  203 1    
   162   81  204 1    
   163   82   83 2    
   164   82   84 am   BACKBONE|DICT|INTERRES
   165   84   85 1    
   166   84  205 1    
   167   85   86 1    
   168   85   87 1    
   169   85  206 1    
   170   86  207 1    
   171   86  208 1    
   172   86  209 1    
   173   87   88 2    
   174   87   89 am   BACKBONE|DICT|INTERRES
   175   89   90 1    
   176   89  210 1    
   177   90   91 1    
   178   90   92 1    
   179   90  211 1    
   180   91  212 1    
   181   91  213 1    
   182   91  214 1    
   183   92   93 2    
   184   92   94 am   BACKBONE|DICT|INTERRES
   185   94   95 1    
   186   94  215 1    
   187   95   96 1    
   188   95   97 1    
   189   95  216 1    
   190   96  217 1    
   191   96  218 1    
   192   96  219 1    
   193   97   98 2    
   194   97   99 am   BACKBONE|DICT|INTERRES
   195   99  100 1    
   196   99  220 1    
   197  100  101 1    
   198  100  102 1    
   199  100  221 1    
   200  101  222 1    
   201  101  223 1    
   202  101  224 1    
   203  102  103 2    
   204  102  104 am   BACKBONE|DICT|INTERRES
   205  104  105 1    
   206  104  225 1    
   207  105  106 1    
   208  105  107 1    
   209  105  226 1    
   210  106  227 1    
   211  106  228 1    
   212  106  229 1    
   213  107  108 2    
   214  107  109 am   BACKBONE|DICT|INTERRES
   215  109  110 1    
   216  109  230 1    
   217  110  111 1    
   218  110  112 1    
   219  110  231 1    
   220  111  232 1    
   221  111  233 1    
   222  111  234 1    
   223  112  113 2    
   224  112  114 am   BACKBONE|DICT|INTERRES
   225  114  115 1    
   226  114  235 1    
   227  115  116 1    
   228  115  117 1    
   229  115  236 1    
   230  116  237 1    
   231  116  238 1    
   232  116  239 1    
   233  117  118 2    
   234  117  119 am   BACKBONE|DICT|INTERRES
   235  119  120 1    
   236  119  240 1    
   237  120  121 1    
   238  120  124 1    
   239  120  241 1    
   240  121  122 am   BACKBONE|DICT|INTERRES
   241  121  123 2    
   242  122  242 1    
   243  122  243 1    
   244  124  125 1    
   245  124  244 1    
   246  124  245 1    
   247  125  126 1    
   248  126  246 1    
   249  126  247 1    
@<TRIPOS>SUBSTRUCTURE
     1 UNK         1 GROUP             0       ****    0 ROOT    
