@<TRIPOS>MOLECULE
3R540
247   249    1
SMALL
USER_CHARGES


@<TRIPOS>ATOM
      1 CA          0.4623  -13.1944  -48.6350 C.3       0 UNK        -0.1800 
      2 C           1.9025  -12.9716  -48.1971 C.2       0 UNK         0.5000 
      3 O           2.5154  -11.9885  -48.6128 O.2       0 UNK        -0.5000 
      4 N           2.4481  -13.8672  -47.3619 N.am      1 UNK        -0.5000 
      5 CA          3.8634  -13.8918  -46.9568 C.3       1 UNK         0.1400 
      6 C6          4.2598  -15.1811  -46.1874 C.3       23 UNK        -0.0398 
      7 S7          3.5394  -16.7291  -46.8296 S.3       23 UNK        -0.2404 
      8 C8          4.2257  -16.8526  -48.5064 C.3       23 UNK        -0.0205 
      9 C9          3.3729  -17.7966  -49.3359 C.ar      23 UNK        -0.0193 
     10 C10         2.2689  -17.3039  -50.0359 C.ar      23 UNK        -0.1150 
     11 C11         1.4468  -18.1638  -50.7689 C.ar      23 UNK        -0.0193 
     12 C12         1.7434  -19.5315  -50.7954 C.ar      23 UNK        -0.1150 
     13 C13         2.8371  -20.0418  -50.0895 C.ar      23 UNK        -0.0193 
     14 C14         3.6600  -19.1630  -49.3758 C.ar      23 UNK        -0.1150 
     15 C15         3.1034  -21.5451  -50.0975 C.3       23 UNK        -0.0205 
     16 S16         3.4940  -22.2362  -48.4524 S.3       23 UNK        -0.2404 
     17 C17         2.0644  -21.6957  -47.4541 C.3       23 UNK        -0.0398 
     18 CA          1.1310  -22.8548  -47.0374 C.3       11 UNK         0.1400 
     19 N           0.3371  -22.4948  -45.8607 N.am      11 UNK        -0.5000 
     20 C          -0.4607  -23.3257  -45.1775 C.2       10 UNK         0.5000 
     21 O          -0.6049  -24.5169  -45.4487 O.2       10 UNK        -0.5000 
     22 CA         -1.2592  -22.7109  -44.0159 C.3       10 UNK         0.1400 
     23 CB         -0.3890  -22.5891  -42.7560 C.3       10 UNK        -0.1800 
     24 N          -1.8127  -21.4006  -44.3569 N.am      10 UNK        -0.5000 
     25 C          -2.8018  -21.2021  -45.2385 C.2       9 UNK         0.5000 
     26 O          -3.3630  -22.1037  -45.8611 O.2       9 UNK        -0.5000 
     27 CA         -3.1942  -19.7390  -45.5061 C.3       9 UNK         0.1400 
     28 CB         -4.0497  -19.1743  -44.3633 C.3       9 UNK        -0.1800 
     29 N          -2.0376  -18.8725  -45.7314 N.am      9 UNK        -0.5000 
     30 C          -1.1507  -19.0332  -46.7241 C.2       8 UNK         0.5000 
     31 O          -1.2488  -19.8974  -47.5931 O.2       8 UNK        -0.5000 
     32 CA          0.0749  -18.1069  -46.7210 C.3       8 UNK         0.1400 
     33 CB         -0.2510  -16.7858  -47.4293 C.3       8 UNK        -0.1800 
     34 N           0.5913  -17.8340  -45.3778 N.am      8 UNK        -0.5000 
     35 C           1.0520  -18.7506  -44.5168 C.2       7 UNK         0.5000 
     36 O           1.0578  -19.9579  -44.7556 O.2       7 UNK        -0.5000 
     37 CA          1.5479  -18.2653  -43.1387 C.3       7 UNK         0.1400 
     38 CB          3.0442  -17.9038  -43.1707 C.3       7 UNK        -0.1800 
     39 N           0.7356  -17.1957  -42.5427 N.am      7 UNK        -0.5000 
     40 C           0.5853  -15.9288  -42.9504 C.2       6 UNK         0.5000 
     41 O           1.1980  -15.4221  -43.8933 O.2       6 UNK        -0.5000 
     42 CA         -0.4886  -15.1100  -42.2093 C.3       6 UNK         0.1400 
     43 CB          0.1586  -13.9954  -41.3738 C.3       6 UNK        -0.1800 
     44 N          -1.4550  -14.5149  -43.1326 N.am      6 UNK        -0.5000 
     45 C          -2.1682  -15.1698  -44.0607 C.2       5 UNK         0.5000 
     46 O          -2.1655  -16.3961  -44.1867 O.2       5 UNK        -0.5000 
     47 CA         -3.0339  -14.3245  -45.0196 C.3       5 UNK         0.1400 
     48 CB         -4.5273  -14.5636  -44.7465 C.3       5 UNK        -0.1800 
     49 N          -2.7770  -12.8785  -45.0023 N.am      5 UNK        -0.5000 
     50 C          -1.6337  -12.2899  -45.3749 C.2       4 UNK         0.5000 
     51 O          -0.6179  -12.9103  -45.7003 O.2       4 UNK        -0.5000 
     52 CA         -1.6122  -10.7538  -45.3582 C.3       4 UNK         0.1400 
     53 CB         -1.6330  -10.2135  -43.9158 C.3       4 UNK        -0.1800 
     54 N          -0.3891  -10.3342  -46.0245 N.am      4 UNK        -0.5000 
     55 C          -0.0890   -9.1308  -46.5218 C.2       3 UNK         0.5000 
     56 O          -0.8679   -8.1760  -46.5238 O.2       3 UNK        -0.5000 
     57 CA          1.3359   -8.9923  -47.1063 C.3       3 UNK         0.1400 
     58 CB          1.8201   -7.5300  -47.1973 C.3       3 UNK        -0.1800 
     59 N           2.3072   -9.8407  -46.3988 N.am      3 UNK        -0.5000 
     60 C           2.6619   -9.7581  -45.1043 C.2       2 UNK         0.5000 
     61 O           2.3271   -8.8322  -44.3642 O.2       2 UNK        -0.5000 
     62 CA          3.4793  -10.9298  -44.5209 C.3       2 UNK         0.1400 
     63 CB          3.0328  -11.2670  -43.0867 C.3       2 UNK        -0.1800 
     64 N           3.3375  -12.1372  -45.3356 N.am      2 UNK        -0.5000 
     65 C           4.2757  -12.6491  -46.1409 C.2       1 UNK         0.5000 
     66 O           5.4063  -12.1786  -46.2706 O.2       1 UNK        -0.5000 
     67 C           0.2404  -23.3266  -48.2053 C.2       11 UNK         0.5000 
     68 O           0.5112  -24.3733  -48.7949 O.2       11 UNK        -0.5000 
     69 N          -0.8379  -22.5784  -48.4791 N.am      12 UNK        -0.5000 
     70 CA         -1.8580  -22.9333  -49.4610 C.3       12 UNK         0.1400 
     71 CB         -2.8386  -21.7706  -49.6333 C.3       12 UNK        -0.1800 
     72 C          -2.6092  -24.2198  -49.0879 C.2       12 UNK         0.5000 
     73 O          -2.7694  -25.0822  -49.9481 O.2       12 UNK        -0.5000 
     74 N          -3.0137  -24.3541  -47.8159 N.am      13 UNK        -0.5000 
     75 CA         -3.6889  -25.5448  -47.2942 C.3       13 UNK         0.1400 
     76 CB         -4.1376  -25.3014  -45.8461 C.3       13 UNK        -0.1800 
     77 C          -2.8285  -26.8185  -47.3987 C.2       13 UNK         0.5000 
     78 O          -3.3428  -27.8624  -47.8005 O.2       13 UNK        -0.5000 
     79 N          -1.5271  -26.7004  -47.0983 N.am      14 UNK        -0.5000 
     80 CA         -0.5313  -27.7637  -47.2588 C.3       14 UNK         0.1400 
     81 CB          0.7919  -27.3243  -46.6144 C.3       14 UNK        -0.1800 
     82 C          -0.3116  -28.1718  -48.7297 C.2       14 UNK         0.5000 
     83 O          -0.0778  -29.3490  -49.0050 O.2       14 UNK        -0.5000 
     84 N          -0.4258  -27.2030  -49.6475 N.am      15 UNK        -0.5000 
     85 CA         -0.3754  -27.4012  -51.0979 C.3       15 UNK         0.1400 
     86 CB          0.0640  -26.0830  -51.7579 C.3       15 UNK        -0.1800 
     87 C          -1.7104  -27.8963  -51.6991 C.2       15 UNK         0.5000 
     88 O          -1.7578  -28.1648  -52.9003 O.2       15 UNK        -0.5000 
     89 N          -2.7634  -27.9962  -50.8724 N.am      16 UNK        -0.5000 
     90 CA         -4.1477  -28.3458  -51.2121 C.3       16 UNK         0.1400 
     91 CB         -4.2432  -29.7875  -51.7542 C.3       16 UNK        -0.1800 
     92 C          -4.8368  -27.3040  -52.1219 C.2       16 UNK         0.5000 
     93 O          -5.7089  -27.6576  -52.9183 O.2       16 UNK        -0.5000 
     94 N          -4.4436  -26.0349  -51.9731 N.am      17 UNK        -0.5000 
     95 CA         -5.0274  -24.8701  -52.6290 C.3       17 UNK         0.1400 
     96 CB         -3.8805  -23.9668  -53.1118 C.3       17 UNK        -0.1800 
     97 C          -5.9393  -24.1102  -51.6484 C.2       17 UNK         0.5000 
     98 O          -5.9520  -24.4016  -50.4491 O.2       17 UNK        -0.5000 
     99 N          -6.6870  -23.1338  -52.1778 N.am      18 UNK        -0.5000 
    100 CA        -7.5338  -22.2272  -51.4029 C.3       18 UNK         0.1400 
    101 CB        -8.4389  -21.4402  -52.3616 C.3       18 UNK        -0.1800 
    102 C         -6.6884  -21.2847  -50.5247 C.2       18 UNK         0.5000 
    103 O         -5.7543  -20.6558  -51.0322 O.2       18 UNK        -0.5000 
    104 N         -7.0319  -21.2257  -49.2305 N.am      19 UNK        -0.5000 
    105 CA        -6.3124  -20.5321  -48.1606 C.3       19 UNK         0.1400 
    106 CB        -7.1052  -20.6645  -46.8508 C.3       19 UNK        -0.1800 
    107 C         -6.0095  -19.0556  -48.4763 C.2       19 UNK         0.5000 
    108 O         -6.9344  -18.2459  -48.5497 O.2       19 UNK        -0.5000 
    109 N         -4.7186  -18.7574  -48.6811 N.am      20 UNK        -0.5000 
    110 CA        -4.1210  -17.4506  -48.9818 C.3       20 UNK         0.1400 
    111 CB        -4.3913  -16.4364  -47.8540 C.3       20 UNK        -0.1800 
    112 C         -4.4543  -16.8828  -50.3784 C.2       20 UNK         0.5000 
    113 O         -3.9247  -15.8297  -50.7357 O.2       20 UNK        -0.5000 
    114 N         -5.2698  -17.5971  -51.1650 N.am      21 UNK        -0.5000 
    115 CA        -5.4312  -17.3753  -52.6009 C.3       21 UNK         0.1400 
    116 CB        -6.8182  -17.8596  -53.0427 C.3       21 UNK        -0.1800 
    117 C         -4.3146  -18.1012  -53.3720 C.2       21 UNK         0.5000 
    118 O         -3.8016  -17.5593  -54.3513 O.2       21 UNK        -0.5000 
    119 N         -3.9318  -19.2884  -52.8768 N.am      22 UNK        -0.5000 
    120 CA        -2.7426  -20.0636  -53.2727 C.3       22 UNK         0.1400 
    121 C         -2.8125  -20.7039  -54.6924 C.2       22 UNK         0.5000 
    122 N         -3.9686  -20.7472  -55.3433 N.am      22 UNK        -0.7600 
    123 O         -1.8122  -21.2018  -55.2014 O.2       22 UNK        -0.5000 
    124 C124       -1.4078  -19.2968  -53.0372 C.3       23 UNK        -0.0398 
    125 S125       -1.2610  -18.5810  -51.3611 S.3       23 UNK        -0.2404 
    126 C126        0.2592  -17.5912  -51.5358 C.3       23 UNK        -0.0205 
    127 H127        0.4292  -13.4628  -49.6907 H         1 UNK         0.0600 
    128 H128       -0.1186  -12.2828  -48.4954 H         1 UNK         0.0600 
    129 H129       -0.0190  -13.9883  -48.0666 H         1 UNK         0.0600 
    130 H130        1.8914  -14.6374  -47.0192 H         1 UNK         0.3000 
    131 H131        4.4503  -13.8611  -47.8766 H         1 UNK         0.0600 
    132 H132        5.3456  -15.2882  -46.1640 H         1 UNK         0.0800 
    133 H133        3.9422  -15.1102  -45.1451 H         1 UNK         0.0800 
    134 H134        5.2570  -17.2048  -48.4563 H         1 UNK         0.0800 
    135 H135        4.2511  -15.8737  -48.9847 H         1 UNK         0.0800 
    136 H136        2.0456  -16.2468  -49.9992 H         1 UNK         0.1150 
    137 H137        1.1114  -20.2044  -51.3568 H         1 UNK         0.1150 
    138 H138        4.5075  -19.5456  -48.8249 H         1 UNK         0.1150 
    139 H139        2.2430  -22.0847  -50.4972 H         1 UNK         0.0800 
    140 H140        3.9361  -21.7490  -50.7715 H         1 UNK         0.0800 
    141 H141        1.5042  -20.9051  -47.9544 H         1 UNK         0.0800 
    142 H142        2.4897  -21.2294  -46.5649 H         1 UNK         0.0800 
    143 H143        1.7522  -23.7021  -46.7391 H         1 UNK         0.0600 
    144 H144        0.4298  -21.5367  -45.5317 H         1 UNK         0.3000 
    145 H145       -2.0901  -23.3823  -43.7897 H         1 UNK         0.0600 
    146 H146       -0.9685  -22.2161  -41.9114 H         1 UNK         0.0600 
    147 H147        0.0162  -23.5601  -42.4681 H         1 UNK         0.0600 
    148 H148        0.4543  -21.9146  -42.9084 H         1 UNK         0.0600 
    149 H149       -1.3692  -20.5961  -43.9395 H         1 UNK         0.3000 
    150 H150       -3.7986  -19.7312  -46.4103 H         1 UNK         0.0600 
    151 H151       -4.9039  -19.8196  -44.1548 H         1 UNK         0.0600 
    152 H152       -4.4409  -18.1892  -44.6177 H         1 UNK         0.0600 
    153 H153       -3.4766  -19.0767  -43.4406 H         1 UNK         0.0600 
    154 H154       -1.9106  -18.0993  -45.0831 H         1 UNK         0.3000 
    155 H155        0.8667  -18.6054  -47.2838 H         1 UNK         0.0600 
    156 H156       -0.9898  -16.2019  -46.8802 H         1 UNK         0.0600 
    157 H157        0.6455  -16.1797  -47.5418 H         1 UNK         0.0600 
    158 H158       -0.6446  -16.9647  -48.4309 H         1 UNK         0.0600 
    159 H159        0.6433  -16.8624  -45.0891 H         1 UNK         0.3000 
    160 H160        1.4412  -19.1167  -42.4644 H         1 UNK         0.0600 
    161 H161        3.2468  -17.0525  -43.8185 H         1 UNK         0.0600 
    162 H162        3.6375  -18.7401  -43.5424 H         1 UNK         0.0600 
    163 H163        3.4119  -17.6605  -42.1740 H         1 UNK         0.0600 
    164 H164        0.1529  -17.5014  -41.7758 H         1 UNK         0.3000 
    165 H165       -1.0418  -15.7689  -41.5372 H         1 UNK         0.0600 
    166 H166       -0.5882  -13.4435  -40.8028 H         1 UNK         0.0600 
    167 H167        0.8745  -14.4067  -40.6611 H         1 UNK         0.0600 
    168 H168        0.6940  -13.2839  -42.0030 H         1 UNK         0.0600 
    169 H169       -1.5040  -13.5082  -43.1384 H         1 UNK         0.3000 
    170 H170       -2.8103  -14.6793  -46.0265 H         1 UNK         0.0600 
    171 H171       -4.7685  -15.6271  -44.7697 H         1 UNK         0.0600 
    172 H172       -4.8217  -14.1833  -43.7677 H         1 UNK         0.0600 
    173 H173       -5.1488  -14.0776  -45.4988 H         1 UNK         0.0600 
    174 H174       -3.5552  -12.2957  -44.7291 H         1 UNK         0.3000 
    175 H175       -2.4748  -10.3827  -45.9148 H         1 UNK         0.0600 
    176 H176       -0.7793  -10.5749  -43.3406 H         1 UNK         0.0600 
    177 H177       -1.6054   -9.1239  -43.9004 H         1 UNK         0.0600 
    178 H178       -2.5386  -10.5183  -43.3904 H         1 UNK         0.0600 
    179 H179        0.2839  -11.0849  -46.1109 H         1 UNK         0.3000 
    180 H180        1.2817   -9.3813  -48.1241 H         1 UNK         0.0600 
    181 H181        1.8146   -7.0359  -46.2256 H         1 UNK         0.0600 
    182 H182        1.1778   -6.9488  -47.8597 H         1 UNK         0.0600 
    183 H183        2.8324   -7.4743  -47.5974 H         1 UNK         0.0600 
    184 H184        2.6497  -10.6304  -46.9345 H         1 UNK         0.3000 
    185 H185        4.5222  -10.6092  -44.4869 H         1 UNK         0.0600 
    186 H186        3.2094  -10.4293  -42.4110 H         1 UNK         0.0600 
    187 H187        1.9693  -11.5045  -43.0457 H         1 UNK         0.0600 
    188 H188        3.5830  -12.1211  -42.6914 H         1 UNK         0.0600 
    189 H189        2.4386  -12.5997  -45.3025 H         1 UNK         0.3000 
    190 H190       -0.9804  -21.7032  -47.9799 H         1 UNK         0.3000 
    191 H191       -1.3598  -23.1017  -50.4179 H         1 UNK         0.0600 
    192 H192       -3.2919  -21.5005  -48.6819 H         1 UNK         0.0600 
    193 H193       -3.6372  -22.0325  -50.3268 H         1 UNK         0.0600 
    194 H194       -2.3366  -20.8886  -50.0254 H         1 UNK         0.0600 
    195 H195       -2.8749  -23.5882  -47.1649 H         1 UNK         0.3000 
    196 H196       -4.5831  -25.7029  -47.9013 H         1 UNK         0.0600 
    197 H197       -4.6551  -26.1739  -45.4455 H         1 UNK         0.0600 
    198 H198       -4.8266  -24.4589  -45.7843 H         1 UNK         0.0600 
    199 H199       -3.2918  -25.0917  -45.1916 H         1 UNK         0.0600 
    200 H200       -1.1908  -25.8171  -46.7226 H         1 UNK         0.3000 
    201 H201       -0.8945  -28.6434  -46.7236 H         1 UNK         0.0600 
    202 H202        0.6617  -27.1129  -45.5529 H         1 UNK         0.0600 
    203 H203        1.1908  -26.4261  -47.0868 H         1 UNK         0.0600 
    204 H204        1.5481  -28.1055  -46.7006 H         1 UNK         0.0600 
    205 H205       -0.5823  -26.2530  -49.3311 H         1 UNK         0.3000 
    206 H206        0.3798  -28.1572  -51.3219 H         1 UNK         0.0600 
    207 H207        1.0180  -25.7396  -51.3572 H         1 UNK         0.0600 
    208 H208        0.1894  -26.2053  -52.8343 H         1 UNK         0.0600 
    209 H209       -0.6678  -25.2903  -51.6025 H         1 UNK         0.0600 
    210 H210       -2.6194  -27.7292  -49.9067 H         1 UNK         0.3000 
    211 H211       -4.6962  -28.3189  -50.2697 H         1 UNK         0.0600 
    212 H212       -3.7875  -29.8831  -52.7398 H         1 UNK         0.0600 
    213 H213       -5.2835  -30.1018  -51.8454 H         1 UNK         0.0600 
    214 H214       -3.7503  -30.4932  -51.0855 H         1 UNK         0.0600 
    215 H215       -3.7756  -25.8185  -51.2341 H         1 UNK         0.3000 
    216 H216       -5.6238  -25.1753  -53.4911 H         1 UNK         0.0600 
    217 H217       -4.2649  -23.1028  -53.6528 H         1 UNK         0.0600 
    218 H218       -3.2158  -24.5025  -53.7898 H         1 UNK         0.0600 
    219 H219       -3.2794  -23.5955  -52.2817 H         1 UNK         0.0600 
    220 H220       -6.6069  -22.9354  -53.1639 H         1 UNK         0.3000 
    221 H221       -8.1736  -22.8303  -50.7550 H         1 UNK         0.0600 
    222 H222       -7.8662  -20.9597  -53.1541 H         1 UNK         0.0600 
    223 H223       -9.1681  -22.0974  -52.8358 H         1 UNK         0.0600 
    224 H224       -8.9959  -20.6644  -51.8343 H         1 UNK         0.0600 
    225 H225       -7.8304  -21.7654  -48.9306 H         1 UNK         0.3000 
    226 H226       -5.3709  -21.0612  -48.0158 H         1 UNK         0.0600 
    227 H227       -7.2134  -21.7093  -46.5585 H         1 UNK         0.0600 
    228 H228       -6.5977  -20.1517  -46.0330 H         1 UNK         0.0600 
    229 H229       -8.1035  -20.2338  -46.9385 H         1 UNK         0.0600 
    230 H230       -4.0535  -19.5175  -48.6698 H         1 UNK         0.3000 
    231 H231       -3.0449  -17.6280  -48.9960 H         1 UNK         0.0600 
    232 H232       -3.8505  -15.5064  -48.0311 H         1 UNK         0.0600 
    233 H233       -4.0610  -16.8262  -46.8913 H         1 UNK         0.0600 
    234 H234       -5.4486  -16.1846  -47.7728 H         1 UNK         0.0600 
    235 H235       -5.6516  -18.4588  -50.7965 H         1 UNK         0.3000 
    236 H236       -5.3594  -16.3078  -52.8199 H         1 UNK         0.0600 
    237 H237       -7.6083  -17.3135  -52.5271 H         1 UNK         0.0600 
    238 H238       -6.9623  -17.7113  -54.1136 H         1 UNK         0.0600 
    239 H239       -6.9541  -18.9186  -52.8341 H         1 UNK         0.0600 
    240 H240       -4.4692  -19.6857  -52.1121 H         1 UNK         0.3000 
    241 H241       -2.7349  -20.9188  -52.5967 H         1 UNK         0.0600 
    242 H242       -4.7935  -20.3308  -54.9437 H         1 UNK         0.3800 
    243 H243       -4.0083  -21.1682  -56.2580 H         1 UNK         0.3800 
    244 H244       -0.5563  -19.9610  -53.1925 H         1 UNK         0.0800 
    245 H245       -1.3059  -18.4938  -53.7686 H         1 UNK         0.0800 
    246 H246        0.5342  -17.4915  -52.5862 H         1 UNK         0.0800 
    247 H247        0.0350  -16.5832  -51.1835 H         1 UNK         0.0800 
@<TRIPOS>BOND
     1    1    2 1    
     2    1  127 1    
     3    1  128 1    
     4    1  129 1    
     5    2    3 2    
     6    2    4 am   BACKBONE|DICT|INTERRES
     7    4    5 1    
     8    4  130 1    
     9    5    6 1    
    10    5   65 1    
    11    5  131 1    
    12    6    7 1    
    13    6  132 1    
    14    6  133 1    
    15    7    8 1    
    16    8    9 1    
    17    8  134 1    
    18    8  135 1    
    19    9   10 ar   
    20    9   14 ar   
    21   10   11 ar   
    22   10  136 1    
    23   11   12 ar   
    24   11  126 1    
    25   12   13 ar   
    26   12  137 1    
    27   13   14 ar   
    28   13   15 1    
    29   14  138 1    
    30   15   16 1    
    31   15  139 1    
    32   15  140 1    
    33   16   17 1    
    34   17   18 1    
    35   17  141 1    
    36   17  142 1    
    37   18   19 1    
    38   18   67 1    
    39   18  143 1    
    40   19   20 am   BACKBONE|DICT|INTERRES
    41   19  144 1    
    42   20   21 2    
    43   20   22 1    
    44   22   23 1    
    45   22   24 1    
    46   22  145 1    
    47   23  146 1    
    48   23  147 1    
    49   23  148 1    
    50   24   25 am   BACKBONE|DICT|INTERRES
    51   24  149 1    
    52   25   26 2    
    53   25   27 1    
    54   27   28 1    
    55   27   29 1    
    56   27  150 1    
    57   28  151 1    
    58   28  152 1    
    59   28  153 1    
    60   29   30 am   BACKBONE|DICT|INTERRES
    61   29  154 1    
    62   30   31 2    
    63   30   32 1    
    64   32   33 1    
    65   32   34 1    
    66   32  155 1    
    67   33  156 1    
    68   33  157 1    
    69   33  158 1    
    70   34   35 am   BACKBONE|DICT|INTERRES
    71   34  159 1    
    72   35   36 2    
    73   35   37 1    
    74   37   38 1    
    75   37   39 1    
    76   37  160 1    
    77   38  161 1    
    78   38  162 1    
    79   38  163 1    
    80   39   40 am   BACKBONE|DICT|INTERRES
    81   39  164 1    
    82   40   41 2    
    83   40   42 1    
    84   42   43 1    
    85   42   44 1    
    86   42  165 1    
    87   43  166 1    
    88   43  167 1    
    89   43  168 1    
    90   44   45 am   BACKBONE|DICT|INTERRES
    91   44  169 1    
    92   45   46 2    
    93   45   47 1    
    94   47   48 1    
    95   47   49 1    
    96   47  170 1    
    97   48  171 1    
    98   48  172 1    
    99   48  173 1    
   100   49   50 am   BACKBONE|DICT|INTERRES
   101   49  174 1    
   102   50   51 2    
   103   50   52 1    
   104   52   53 1    
   105   52   54 1    
   106   52  175 1    
   107   53  176 1    
   108   53  177 1    
   109   53  178 1    
   110   54   55 am   BACKBONE|DICT|INTERRES
   111   54  179 1    
   112   55   56 2    
   113   55   57 1    
   114   57   58 1    
   115   57   59 1    
   116   57  180 1    
   117   58  181 1    
   118   58  182 1    
   119   58  183 1    
   120   59   60 am   BACKBONE|DICT|INTERRES
   121   59  184 1    
   122   60   61 2    
   123   60   62 1    
   124   62   63 1    
   125   62   64 1    
   126   62  185 1    
   127   63  186 1    
   128   63  187 1    
   129   63  188 1    
   130   64   65 am   BACKBONE|DICT|INTERRES
   131   64  189 1    
   132   65   66 2    
   133   67   68 2    
   134   67   69 am   BACKBONE|DICT|INTERRES
   135   69   70 1    
   136   69  190 1    
   137   70   71 1    
   138   70   72 1    
   139   70  191 1    
   140   71  192 1    
   141   71  193 1    
   142   71  194 1    
   143   72   73 2    
   144   72   74 am   BACKBONE|DICT|INTERRES
   145   74   75 1    
   146   74  195 1    
   147   75   76 1    
   148   75   77 1    
   149   75  196 1    
   150   76  197 1    
   151   76  198 1    
   152   76  199 1    
   153   77   78 2    
   154   77   79 am   BACKBONE|DICT|INTERRES
   155   79   80 1    
   156   79  200 1    
   157   80   81 1    
   158   80   82 1    
   159   80  201 1    
   160   81  202 1    
   161   81  203 1    
   162   81  204 1    
   163   82   83 2    
   164   82   84 am   BACKBONE|DICT|INTERRES
   165   84   85 1    
   166   84  205 1    
   167   85   86 1    
   168   85   87 1    
   169   85  206 1    
   170   86  207 1    
   171   86  208 1    
   172   86  209 1    
   173   87   88 2    
   174   87   89 am   BACKBONE|DICT|INTERRES
   175   89   90 1    
   176   89  210 1    
   177   90   91 1    
   178   90   92 1    
   179   90  211 1    
   180   91  212 1    
   181   91  213 1    
   182   91  214 1    
   183   92   93 2    
   184   92   94 am   BACKBONE|DICT|INTERRES
   185   94   95 1    
   186   94  215 1    
   187   95   96 1    
   188   95   97 1    
   189   95  216 1    
   190   96  217 1    
   191   96  218 1    
   192   96  219 1    
   193   97   98 2    
   194   97   99 am   BACKBONE|DICT|INTERRES
   195   99  100 1    
   196   99  220 1    
   197  100  101 1    
   198  100  102 1    
   199  100  221 1    
   200  101  222 1    
   201  101  223 1    
   202  101  224 1    
   203  102  103 2    
   204  102  104 am   BACKBONE|DICT|INTERRES
   205  104  105 1    
   206  104  225 1    
   207  105  106 1    
   208  105  107 1    
   209  105  226 1    
   210  106  227 1    
   211  106  228 1    
   212  106  229 1    
   213  107  108 2    
   214  107  109 am   BACKBONE|DICT|INTERRES
   215  109  110 1    
   216  109  230 1    
   217  110  111 1    
   218  110  112 1    
   219  110  231 1    
   220  111  232 1    
   221  111  233 1    
   222  111  234 1    
   223  112  113 2    
   224  112  114 am   BACKBONE|DICT|INTERRES
   225  114  115 1    
   226  114  235 1    
   227  115  116 1    
   228  115  117 1    
   229  115  236 1    
   230  116  237 1    
   231  116  238 1    
   232  116  239 1    
   233  117  118 2    
   234  117  119 am   BACKBONE|DICT|INTERRES
   235  119  120 1    
   236  119  240 1    
   237  120  121 1    
   238  120  124 1    
   239  120  241 1    
   240  121  122 am   BACKBONE|DICT|INTERRES
   241  121  123 2    
   242  122  242 1    
   243  122  243 1    
   244  124  125 1    
   245  124  244 1    
   246  124  245 1    
   247  125  126 1    
   248  126  246 1    
   249  126  247 1    
@<TRIPOS>SUBSTRUCTURE
     1 UNK         1 GROUP             0       ****    0 ROOT    
