@<TRIPOS>MOLECULE
3R540
247   249    1
SMALL
USER_CHARGES


@<TRIPOS>ATOM
      1 CA         -1.3701  -14.3302  -52.3643 C.3       0 UNK        -0.1800 
      2 C          -1.5940  -14.5950  -50.8833 C.2       0 UNK         0.5000 
      3 O          -0.7218  -15.1671  -50.2301 O.2       0 UNK        -0.5000 
      4 N          -2.7522  -14.1714  -50.3553 N.am      1 UNK        -0.5000 
      5 CA         -3.2328  -14.3924  -48.9808 C.3       1 UNK         0.1400 
      6 C6         -4.5536  -13.6293  -48.6930 C.3       23 UNK        -0.0398 
      7 S7         -5.8636  -13.8739  -49.9427 S.3       23 UNK        -0.2404 
      8 C8         -7.0422  -14.9415  -49.0575 C.3       23 UNK        -0.0205 
      9 C9         -6.5941  -16.3916  -49.0922 C.ar      23 UNK        -0.0193 
     10 C10        -6.9450  -17.2011  -50.1757 C.ar      23 UNK        -0.1150 
     11 C11        -6.5060  -18.5252  -50.2420 C.ar      23 UNK        -0.0193 
     12 C12        -5.7154  -19.0391  -49.2109 C.ar      23 UNK        -0.1150 
     13 C13        -5.3498  -18.2356  -48.1282 C.ar      23 UNK        -0.0193 
     14 C14        -5.8051  -16.9161  -48.0650 C.ar      23 UNK        -0.1150 
     15 C15        -4.4166  -18.7768  -47.0604 C.3       23 UNK        -0.0205 
     16 S16        -5.2552  -19.9465  -45.9546 S.3       23 UNK        -0.2404 
     17 C17        -3.8851  -20.3449  -44.8198 C.3       23 UNK        -0.0398 
     18 CA         -3.0384  -21.5526  -45.2926 C.3       11 UNK         0.1400 
     19 N          -1.6957  -21.5138  -44.7032 N.am      11 UNK        -0.5000 
     20 C          -0.7196  -22.4085  -44.9131 C.2       10 UNK         0.5000 
     21 O          -0.8307  -23.3675  -45.6736 O.2       10 UNK        -0.5000 
     22 CA          0.5750  -22.2451  -44.0953 C.3       10 UNK         0.1400 
     23 CB          1.7020  -21.6751  -44.9661 C.3       10 UNK        -0.1800 
     24 N           0.4308  -21.4171  -42.8941 N.am      10 UNK        -0.5000 
     25 C          -0.3334  -21.7196  -41.8341 C.2       9 UNK         0.5000 
     26 O          -1.0992  -22.6853  -41.8019 O.2       9 UNK        -0.5000 
     27 CA         -0.2177  -20.7713  -40.6229 C.3       9 UNK         0.1400 
     28 CB         -0.8389  -21.3575  -39.3381 C.3       9 UNK        -0.1800 
     29 N           1.1597  -20.3259  -40.3789 N.am      9 UNK        -0.5000 
     30 C           2.2337  -21.0783  -40.0994 C.2       8 UNK         0.5000 
     31 O           2.2079  -22.3073  -40.0122 O.2       8 UNK        -0.5000 
     32 CA          3.5629  -20.3139  -39.9004 C.3       8 UNK         0.1400 
     33 CB          4.6992  -21.2238  -39.3986 C.3       8 UNK        -0.1800 
     34 N           4.0175  -19.6299  -41.1154 N.am      8 UNK        -0.5000 
     35 C           3.4730  -18.5254  -41.6405 C.2       7 UNK         0.5000 
     36 O           2.4774  -17.9747  -41.1637 O.2       7 UNK        -0.5000 
     37 CA          4.1491  -17.9669  -42.9111 C.3       7 UNK         0.1400 
     38 CB          3.9134  -18.8926  -44.1139 C.3       7 UNK        -0.1800 
     39 N           3.6582  -16.6341  -43.2545 N.am      7 UNK        -0.5000 
     40 C           3.9028  -15.5180  -42.5560 C.2       6 UNK         0.5000 
     41 O           4.6980  -15.4556  -41.6167 O.2       6 UNK        -0.5000 
     42 CA          3.1152  -14.2622  -42.9705 C.3       6 UNK         0.1400 
     43 CB          3.8831  -13.4781  -44.0455 C.3       6 UNK        -0.1800 
     44 N           1.7696  -14.5781  -43.4583 N.am      6 UNK        -0.5000 
     45 C           0.7560  -14.9908  -42.6816 C.2       5 UNK         0.5000 
     46 O           0.8247  -15.0670  -41.4547 O.2       5 UNK        -0.5000 
     47 CA         -0.5600  -15.3765  -43.3846 C.3       5 UNK         0.1400 
     48 CB         -1.4504  -14.1408  -43.5816 C.3       5 UNK        -0.1800 
     49 N          -0.3427  -16.0264  -44.6767 N.am      5 UNK        -0.5000 
     50 C           0.0879  -17.2864  -44.8329 C.2       4 UNK         0.5000 
     51 O           0.2755  -18.0726  -43.9038 O.2       4 UNK        -0.5000 
     52 CA          0.3715  -17.7480  -46.2735 C.3       4 UNK         0.1400 
     53 CB         -0.8620  -18.4133  -46.8900 C.3       4 UNK        -0.1800 
     54 N           0.8102  -16.6590  -47.1443 N.am      4 UNK        -0.5000 
     55 C           2.0144  -16.0783  -47.0692 C.2       3 UNK         0.5000 
     56 O           2.8861  -16.4086  -46.2655 O.2       3 UNK        -0.5000 
     57 CA          2.2569  -14.8964  -48.0213 C.3       3 UNK         0.1400 
     58 CB          2.5934  -15.3896  -49.4368 C.3       3 UNK        -0.1800 
     59 N           1.1046  -13.9946  -48.0706 N.am      3 UNK        -0.5000 
     60 C           0.7368  -13.2062  -47.0499 C.2       2 UNK         0.5000 
     61 O           1.3242  -13.1787  -45.9707 O.2       2 UNK        -0.5000 
     62 CA         -0.5006  -12.3128  -47.2412 C.3       2 UNK         0.1400 
     63 CB         -0.0866  -10.9341  -47.7761 C.3       2 UNK        -0.1800 
     64 N          -1.5125  -12.8833  -48.1257 N.am      2 UNK        -0.5000 
     65 C          -2.1975  -14.0133  -47.9004 C.2       1 UNK         0.5000 
     66 O          -2.0282  -14.7409  -46.9206 O.2       1 UNK        -0.5000 
     67 C          -3.7711  -22.8917  -45.0390 C.2       11 UNK         0.5000 
     68 O          -4.4735  -23.3830  -45.9253 O.2       11 UNK        -0.5000 
     69 N          -3.5408  -23.4808  -43.8549 N.am      12 UNK        -0.5000 
     70 CA         -4.0808  -24.7741  -43.4356 C.3       12 UNK         0.1400 
     71 CB         -3.8064  -24.9630  -41.9361 C.3       12 UNK        -0.1800 
     72 C          -3.5326  -25.9715  -44.2378 C.2       12 UNK         0.5000 
     73 O          -4.1919  -27.0101  -44.2856 O.2       12 UNK        -0.5000 
     74 N          -2.3672  -25.8124  -44.8807 N.am      13 UNK        -0.5000 
     75 CA         -1.7346  -26.8109  -45.7432 C.3       13 UNK         0.1400 
     76 CB         -0.2075  -26.7385  -45.5588 C.3       13 UNK        -0.1800 
     77 C          -2.1754  -26.6314  -47.2112 C.2       13 UNK         0.5000 
     78 O          -1.3395  -26.6658  -48.1154 O.2       13 UNK        -0.5000 
     79 N          -3.4897  -26.4455  -47.4121 N.am      14 UNK        -0.5000 
     80 CA         -4.1848  -26.2456  -48.6871 C.3       14 UNK         0.1400 
     81 CB         -4.1493  -27.5362  -49.5322 C.3       14 UNK        -0.1800 
     82 C          -3.6638  -25.0101  -49.4469 C.2       14 UNK         0.5000 
     83 O          -3.1580  -25.1338  -50.5641 O.2       14 UNK        -0.5000 
     84 N          -3.7614  -23.8413  -48.7964 N.am      15 UNK        -0.5000 
     85 CA         -3.3357  -22.5066  -49.2429 C.3       15 UNK         0.1400 
     86 CB         -3.9836  -22.1114  -50.5836 C.3       15 UNK        -0.1800 
     87 C          -1.8092  -22.3020  -49.2828 C.2       15 UNK         0.5000 
     88 O          -1.3458  -21.2271  -48.9001 O.2       15 UNK        -0.5000 
     89 N          -1.0650  -23.3232  -49.7299 N.am      16 UNK        -0.5000 
     90 CA          0.3946  -23.4195  -49.8041 C.3       16 UNK         0.1400 
     91 CB          0.9809  -23.6195  -48.3933 C.3       16 UNK        -0.1800 
     92 C           1.0198  -22.2336  -50.5635 C.2       16 UNK         0.5000 
     93 O           0.9482  -22.1994  -51.7910 O.2       16 UNK        -0.5000 
     94 N           1.5884  -21.2686  -49.8290 N.am      17 UNK        -0.5000 
     95 CA          2.1874  -20.0431  -50.3582 C.3       17 UNK         0.1400 
     96 CB          2.8579  -19.2827  -49.2045 C.3       17 UNK        -0.1800 
     97 C           1.1896  -19.1304  -51.0994 C.2       17 UNK         0.5000 
     98 O           1.6006  -18.4077  -52.0075 O.2       17 UNK        -0.5000 
     99 N          -0.0955  -19.1901  -50.7216 N.am      18 UNK        -0.5000 
    100 CA        -1.1666  -18.4258  -51.3604 C.3       18 UNK         0.1400 
    101 CB        -2.2973  -18.1864  -50.3466 C.3       18 UNK        -0.1800 
    102 C         -1.7200  -19.0978  -52.6295 C.2       18 UNK         0.5000 
    103 O         -2.3905  -18.4208  -53.4088 O.2       18 UNK        -0.5000 
    104 N         -1.4471  -20.3989  -52.8287 N.am      19 UNK        -0.5000 
    105 CA        -2.0771  -21.2547  -53.8445 C.3       19 UNK         0.1400 
    106 CB        -1.5370  -22.6866  -53.7249 C.3       19 UNK        -0.1800 
    107 C         -1.9492  -20.7579  -55.2975 C.2       19 UNK         0.5000 
    108 O         -2.8351  -21.0303  -56.1091 O.2       19 UNK        -0.5000 
    109 N         -0.8799  -20.0044  -55.5874 N.am      20 UNK        -0.5000 
    110 CA        -0.6435  -19.3372  -56.8682 C.3       20 UNK         0.1400 
    111 CB         0.7641  -18.7221  -56.8570 C.3       20 UNK        -0.1800 
    112 C         -1.6990  -18.2651  -57.2117 C.2       20 UNK         0.5000 
    113 O         -1.9641  -18.0436  -58.3940 O.2       20 UNK        -0.5000 
    114 N         -2.2879  -17.6325  -56.1869 N.am      21 UNK        -0.5000 
    115 CA        -3.3986  -16.6925  -56.3294 C.3       21 UNK         0.1400 
    116 CB        -3.3263  -15.6413  -55.2105 C.3       21 UNK        -0.1800 
    117 C         -4.7546  -17.4191  -56.3036 C.2       21 UNK         0.5000 
    118 O         -5.6721  -17.0066  -57.0146 O.2       21 UNK        -0.5000 
    119 N         -4.8603  -18.4755  -55.4860 N.am      22 UNK        -0.5000 
    120 CA        -6.0790  -19.2871  -55.3151 C.3       22 UNK         0.1400 
    121 C         -6.4520  -20.1223  -56.5712 C.2       22 UNK         0.5000 
    122 N         -5.4834  -20.6812  -57.2871 N.am      22 UNK        -0.7600 
    123 O         -7.6274  -20.2641  -56.8965 O.2       22 UNK        -0.5000 
    124 C124       -6.0181  -20.2106  -54.0694 C.3       23 UNK        -0.0398 
    125 S125       -5.4031  -19.3585  -52.5812 S.3       23 UNK        -0.2404 
    126 C126       -6.8256  -19.3760  -51.4587 C.3       23 UNK        -0.0205 
    127 H127       -1.2157  -15.2714  -52.8918 H         1 UNK         0.0600 
    128 H128       -0.4844  -13.7108  -52.5045 H         1 UNK         0.0600 
    129 H129       -2.2198  -13.8204  -52.8187 H         1 UNK         0.0600 
    130 H130       -3.4211  -13.7148  -50.9594 H         1 UNK         0.3000 
    131 H131       -3.4238  -15.4627  -48.8856 H         1 UNK         0.0600 
    132 H132       -4.9384  -13.8999  -47.7083 H         1 UNK         0.0800 
    133 H133       -4.3672  -12.5545  -48.6489 H         1 UNK         0.0800 
    134 H134       -8.0206  -14.8503  -49.5317 H         1 UNK         0.0800 
    135 H135       -7.1730  -14.5983  -48.0302 H         1 UNK         0.0800 
    136 H136       -7.5362  -16.7904  -50.9822 H         1 UNK         0.1150 
    137 H137       -5.3576  -20.0558  -49.2654 H         1 UNK         0.1150 
    138 H138       -5.5209  -16.2888  -47.2321 H         1 UNK         0.1150 
    139 H139       -3.5742  -19.2756  -47.5414 H         1 UNK         0.0800 
    140 H140       -4.0029  -17.9568  -46.4713 H         1 UNK         0.0800 
    141 H141       -4.2936  -20.5173  -43.8223 H         1 UNK         0.0800 
    142 H142       -3.2597  -19.4561  -44.7243 H         1 UNK         0.0800 
    143 H143       -2.8839  -21.4662  -46.3684 H         1 UNK         0.0600 
    144 H144       -1.5083  -20.7701  -44.0473 H         1 UNK         0.3000 
    145 H145        0.8735  -23.2433  -43.7680 H         1 UNK         0.0600 
    146 H146        2.6263  -21.5798  -44.3975 H         1 UNK         0.0600 
    147 H147        1.9166  -22.3333  -45.8073 H         1 UNK         0.0600 
    148 H148        1.4432  -20.6960  -45.3683 H         1 UNK         0.0600 
    149 H149        0.9950  -20.5804  -42.8499 H         1 UNK         0.3000 
    150 H150       -0.7849  -19.8770  -40.8846 H         1 UNK         0.0600 
    151 H151       -1.8992  -21.5707  -39.4782 H         1 UNK         0.0600 
    152 H152       -0.7571  -20.6581  -38.5061 H         1 UNK         0.0600 
    153 H153       -0.3553  -22.2890  -39.0425 H         1 UNK         0.0600 
    154 H154        1.3315  -19.3306  -40.5060 H         1 UNK         0.3000 
    155 H155        3.3842  -19.5609  -39.1299 H         1 UNK         0.0600 
    156 H156        4.9551  -21.9911  -40.1303 H         1 UNK         0.0600 
    157 H157        4.4161  -21.7306  -38.4751 H         1 UNK         0.0600 
    158 H158        5.6006  -20.6485  -39.1865 H         1 UNK         0.0600 
    159 H159        4.8142  -20.0432  -41.5783 H         1 UNK         0.3000 
    160 H160        5.2227  -17.9002  -42.7242 H         1 UNK         0.0600 
    161 H161        2.8510  -18.9962  -44.3319 H         1 UNK         0.0600 
    162 H162        4.3170  -19.8892  -43.9341 H         1 UNK         0.0600 
    163 H163        4.3996  -18.5063  -45.0101 H         1 UNK         0.0600 
    164 H164        3.0147  -16.5785  -44.0331 H         1 UNK         0.3000 
    165 H165        3.0200  -13.6244  -42.0892 H         1 UNK         0.0600 
    166 H166        3.3882  -12.5337  -44.2721 H         1 UNK         0.0600 
    167 H167        4.8941  -13.2416  -43.7114 H         1 UNK         0.0600 
    168 H168        3.9664  -14.0447  -44.9738 H         1 UNK         0.0600 
    169 H169        1.6075  -14.4419  -44.4505 H         1 UNK         0.3000 
    170 H170       -1.0917  -16.0759  -42.7357 H         1 UNK         0.0600 
    171 H171       -0.9647  -13.3926  -44.2076 H         1 UNK         0.0600 
    172 H172       -2.3983  -14.4066  -44.0499 H         1 UNK         0.0600 
    173 H173       -1.6795  -13.6692  -42.6253 H         1 UNK         0.0600 
    174 H174       -0.5454  -15.4771  -45.5032 H         1 UNK         0.3000 
    175 H175        1.1698  -18.4905  -46.2270 H         1 UNK         0.0600 
    176 H176       -1.6735  -17.6973  -47.0192 H         1 UNK         0.0600 
    177 H177       -0.6275  -18.8388  -47.8646 H         1 UNK         0.0600 
    178 H178       -1.2266  -19.2265  -46.2640 H         1 UNK         0.0600 
    179 H179        0.1412  -16.3025  -47.8132 H         1 UNK         0.3000 
    180 H180        3.1146  -14.3332  -47.6470 H         1 UNK         0.0600 
    181 H181        2.7440  -14.5546  -50.1210 H         1 UNK         0.0600 
    182 H182        1.8047  -16.0210  -49.8481 H         1 UNK         0.0600 
    183 H183        3.5135  -15.9744  -49.4330 H         1 UNK         0.0600 
    184 H184        0.5271  -14.0346  -48.9026 H         1 UNK         0.3000 
    185 H185       -0.9603  -12.1719  -46.2615 H         1 UNK         0.0600 
    186 H186       -0.9407  -10.2589  -47.8318 H         1 UNK         0.0600 
    187 H187        0.6522  -10.4675  -47.1229 H         1 UNK         0.0600 
    188 H188        0.3531  -11.0041  -48.7718 H         1 UNK         0.0600 
    189 H189       -1.7022  -12.3760  -48.9776 H         1 UNK         0.3000 
    190 H190       -2.9005  -23.0372  -43.2076 H         1 UNK         0.3000 
    191 H191       -5.1622  -24.7492  -43.5851 H         1 UNK         0.0600 
    192 H192       -4.2352  -25.8984  -41.5741 H         1 UNK         0.0600 
    193 H193       -4.2452  -24.1562  -41.3488 H         1 UNK         0.0600 
    194 H194       -2.7367  -24.9883  -41.7243 H         1 UNK         0.0600 
    195 H195       -1.9228  -24.9006  -44.8750 H         1 UNK         0.3000 
    196 H196       -2.0494  -27.8112  -45.4389 H         1 UNK         0.0600 
    197 H197        0.1964  -25.7813  -45.8870 H         1 UNK         0.0600 
    198 H198        0.0696  -26.8771  -44.5138 H         1 UNK         0.0600 
    199 H199        0.2934  -27.5192  -46.1324 H         1 UNK         0.0600 
    200 H200       -4.0781  -26.4282  -46.5899 H         1 UNK         0.3000 
    201 H201       -5.2288  -26.0420  -48.4442 H         1 UNK         0.0600 
    202 H202       -4.7355  -27.4198  -50.4446 H         1 UNK         0.0600 
    203 H203       -4.5689  -28.3786  -48.9823 H         1 UNK         0.0600 
    204 H204       -3.1343  -27.8024  -49.8288 H         1 UNK         0.0600 
    205 H205       -4.1300  -23.8631  -47.8495 H         1 UNK         0.3000 
    206 H206       -3.7203  -21.8157  -48.4926 H         1 UNK         0.0600 
    207 H207       -5.0707  -22.1639  -50.5291 H         1 UNK         0.0600 
    208 H208       -3.7192  -21.0891  -50.8516 H         1 UNK         0.0600 
    209 H209       -3.6608  -22.7474  -51.4065 H         1 UNK         0.0600 
    210 H210       -1.5744  -24.1378  -50.0599 H         1 UNK         0.3000 
    211 H211        0.6184  -24.3144  -50.3863 H         1 UNK         0.0600 
    212 H212        2.0671  -23.7138  -48.4221 H         1 UNK         0.0600 
    213 H213        0.5893  -24.5287  -47.9379 H         1 UNK         0.0600 
    214 H214        0.7308  -22.7900  -47.7339 H         1 UNK         0.0600 
    215 H215        1.5623  -21.3616  -48.8247 H         1 UNK         0.3000 
    216 H216        2.9598  -20.3337  -51.0731 H         1 UNK         0.0600 
    217 H217        2.1307  -18.9689  -48.4559 H         1 UNK         0.0600 
    218 H218        3.3627  -18.3882  -49.5694 H         1 UNK         0.0600 
    219 H219        3.6090  -19.8967  -48.7072 H         1 UNK         0.0600 
    220 H220       -0.3693  -19.8347  -49.9858 H         1 UNK         0.3000 
    221 H221       -0.7773  -17.4524  -51.6622 H         1 UNK         0.0600 
    222 H222       -3.1275  -17.6438  -50.8018 H         1 UNK         0.0600 
    223 H223       -1.9501  -17.5874  -49.5061 H         1 UNK         0.0600 
    224 H224       -2.6959  -19.1206  -49.9536 H         1 UNK         0.0600 
    225 H225       -0.8110  -20.8605  -52.1914 H         1 UNK         0.3000 
    226 H226       -3.1406  -21.2821  -53.6077 H         1 UNK         0.0600 
    227 H227       -0.4802  -22.7387  -53.9884 H         1 UNK         0.0600 
    228 H228       -1.6502  -23.0754  -52.7131 H         1 UNK         0.0600 
    229 H229       -2.0732  -23.3620  -54.3928 H         1 UNK         0.0600 
    230 H230       -0.2137  -19.8247  -54.8504 H         1 UNK         0.3000 
    231 H231       -0.6801  -20.0970  -57.6517 H         1 UNK         0.0600 
    232 H232        0.8690  -17.9731  -56.0710 H         1 UNK         0.0600 
    233 H233        0.9852  -18.2345  -57.8074 H         1 UNK         0.0600 
    234 H234        1.5271  -19.4846  -56.6992 H         1 UNK         0.0600 
    235 H235       -2.0543  -17.9048  -55.2365 H         1 UNK         0.3000 
    236 H236       -3.3151  -16.1685  -57.2840 H         1 UNK         0.0600 
    237 H237       -3.4291  -16.0909  -54.2222 H         1 UNK         0.0600 
    238 H238       -2.3791  -15.1029  -55.2387 H         1 UNK         0.0600 
    239 H239       -4.1228  -14.9040  -55.3176 H         1 UNK         0.0600 
    240 H240       -4.0767  -18.7120  -54.8917 H         1 UNK         0.3000 
    241 H241       -6.8986  -18.5849  -55.1499 H         1 UNK         0.0600 
    242 H242       -5.7173  -21.2208  -58.1049 H         1 UNK         0.3800 
    243 H243       -4.5173  -20.6354  -56.9745 H         1 UNK         0.3800 
    244 H244       -5.3610  -21.0607  -54.2567 H         1 UNK         0.0800 
    245 H245       -7.0029  -20.6334  -53.8640 H         1 UNK         0.0800 
    246 H246       -7.7086  -18.9950  -51.9741 H         1 UNK         0.0800 
    247 H247       -7.0478  -20.4007  -51.1573 H         1 UNK         0.0800 
@<TRIPOS>BOND
     1    1    2 1    
     2    1  127 1    
     3    1  128 1    
     4    1  129 1    
     5    2    3 2    
     6    2    4 am   BACKBONE|DICT|INTERRES
     7    4    5 1    
     8    4  130 1    
     9    5    6 1    
    10    5   65 1    
    11    5  131 1    
    12    6    7 1    
    13    6  132 1    
    14    6  133 1    
    15    7    8 1    
    16    8    9 1    
    17    8  134 1    
    18    8  135 1    
    19    9   10 ar   
    20    9   14 ar   
    21   10   11 ar   
    22   10  136 1    
    23   11   12 ar   
    24   11  126 1    
    25   12   13 ar   
    26   12  137 1    
    27   13   14 ar   
    28   13   15 1    
    29   14  138 1    
    30   15   16 1    
    31   15  139 1    
    32   15  140 1    
    33   16   17 1    
    34   17   18 1    
    35   17  141 1    
    36   17  142 1    
    37   18   19 1    
    38   18   67 1    
    39   18  143 1    
    40   19   20 am   BACKBONE|DICT|INTERRES
    41   19  144 1    
    42   20   21 2    
    43   20   22 1    
    44   22   23 1    
    45   22   24 1    
    46   22  145 1    
    47   23  146 1    
    48   23  147 1    
    49   23  148 1    
    50   24   25 am   BACKBONE|DICT|INTERRES
    51   24  149 1    
    52   25   26 2    
    53   25   27 1    
    54   27   28 1    
    55   27   29 1    
    56   27  150 1    
    57   28  151 1    
    58   28  152 1    
    59   28  153 1    
    60   29   30 am   BACKBONE|DICT|INTERRES
    61   29  154 1    
    62   30   31 2    
    63   30   32 1    
    64   32   33 1    
    65   32   34 1    
    66   32  155 1    
    67   33  156 1    
    68   33  157 1    
    69   33  158 1    
    70   34   35 am   BACKBONE|DICT|INTERRES
    71   34  159 1    
    72   35   36 2    
    73   35   37 1    
    74   37   38 1    
    75   37   39 1    
    76   37  160 1    
    77   38  161 1    
    78   38  162 1    
    79   38  163 1    
    80   39   40 am   BACKBONE|DICT|INTERRES
    81   39  164 1    
    82   40   41 2    
    83   40   42 1    
    84   42   43 1    
    85   42   44 1    
    86   42  165 1    
    87   43  166 1    
    88   43  167 1    
    89   43  168 1    
    90   44   45 am   BACKBONE|DICT|INTERRES
    91   44  169 1    
    92   45   46 2    
    93   45   47 1    
    94   47   48 1    
    95   47   49 1    
    96   47  170 1    
    97   48  171 1    
    98   48  172 1    
    99   48  173 1    
   100   49   50 am   BACKBONE|DICT|INTERRES
   101   49  174 1    
   102   50   51 2    
   103   50   52 1    
   104   52   53 1    
   105   52   54 1    
   106   52  175 1    
   107   53  176 1    
   108   53  177 1    
   109   53  178 1    
   110   54   55 am   BACKBONE|DICT|INTERRES
   111   54  179 1    
   112   55   56 2    
   113   55   57 1    
   114   57   58 1    
   115   57   59 1    
   116   57  180 1    
   117   58  181 1    
   118   58  182 1    
   119   58  183 1    
   120   59   60 am   BACKBONE|DICT|INTERRES
   121   59  184 1    
   122   60   61 2    
   123   60   62 1    
   124   62   63 1    
   125   62   64 1    
   126   62  185 1    
   127   63  186 1    
   128   63  187 1    
   129   63  188 1    
   130   64   65 am   BACKBONE|DICT|INTERRES
   131   64  189 1    
   132   65   66 2    
   133   67   68 2    
   134   67   69 am   BACKBONE|DICT|INTERRES
   135   69   70 1    
   136   69  190 1    
   137   70   71 1    
   138   70   72 1    
   139   70  191 1    
   140   71  192 1    
   141   71  193 1    
   142   71  194 1    
   143   72   73 2    
   144   72   74 am   BACKBONE|DICT|INTERRES
   145   74   75 1    
   146   74  195 1    
   147   75   76 1    
   148   75   77 1    
   149   75  196 1    
   150   76  197 1    
   151   76  198 1    
   152   76  199 1    
   153   77   78 2    
   154   77   79 am   BACKBONE|DICT|INTERRES
   155   79   80 1    
   156   79  200 1    
   157   80   81 1    
   158   80   82 1    
   159   80  201 1    
   160   81  202 1    
   161   81  203 1    
   162   81  204 1    
   163   82   83 2    
   164   82   84 am   BACKBONE|DICT|INTERRES
   165   84   85 1    
   166   84  205 1    
   167   85   86 1    
   168   85   87 1    
   169   85  206 1    
   170   86  207 1    
   171   86  208 1    
   172   86  209 1    
   173   87   88 2    
   174   87   89 am   BACKBONE|DICT|INTERRES
   175   89   90 1    
   176   89  210 1    
   177   90   91 1    
   178   90   92 1    
   179   90  211 1    
   180   91  212 1    
   181   91  213 1    
   182   91  214 1    
   183   92   93 2    
   184   92   94 am   BACKBONE|DICT|INTERRES
   185   94   95 1    
   186   94  215 1    
   187   95   96 1    
   188   95   97 1    
   189   95  216 1    
   190   96  217 1    
   191   96  218 1    
   192   96  219 1    
   193   97   98 2    
   194   97   99 am   BACKBONE|DICT|INTERRES
   195   99  100 1    
   196   99  220 1    
   197  100  101 1    
   198  100  102 1    
   199  100  221 1    
   200  101  222 1    
   201  101  223 1    
   202  101  224 1    
   203  102  103 2    
   204  102  104 am   BACKBONE|DICT|INTERRES
   205  104  105 1    
   206  104  225 1    
   207  105  106 1    
   208  105  107 1    
   209  105  226 1    
   210  106  227 1    
   211  106  228 1    
   212  106  229 1    
   213  107  108 2    
   214  107  109 am   BACKBONE|DICT|INTERRES
   215  109  110 1    
   216  109  230 1    
   217  110  111 1    
   218  110  112 1    
   219  110  231 1    
   220  111  232 1    
   221  111  233 1    
   222  111  234 1    
   223  112  113 2    
   224  112  114 am   BACKBONE|DICT|INTERRES
   225  114  115 1    
   226  114  235 1    
   227  115  116 1    
   228  115  117 1    
   229  115  236 1    
   230  116  237 1    
   231  116  238 1    
   232  116  239 1    
   233  117  118 2    
   234  117  119 am   BACKBONE|DICT|INTERRES
   235  119  120 1    
   236  119  240 1    
   237  120  121 1    
   238  120  124 1    
   239  120  241 1    
   240  121  122 am   BACKBONE|DICT|INTERRES
   241  121  123 2    
   242  122  242 1    
   243  122  243 1    
   244  124  125 1    
   245  124  244 1    
   246  124  245 1    
   247  125  126 1    
   248  126  246 1    
   249  126  247 1    
@<TRIPOS>SUBSTRUCTURE
     1 UNK         1 GROUP             0       ****    0 ROOT    
