@<TRIPOS>MOLECULE
3R540
247   249    1
SMALL
USER_CHARGES


@<TRIPOS>ATOM
      1 CA          1.6453  -10.6583  -50.8592 C.3       0 UNK        -0.1800 
      2 C           2.0153  -11.9946  -50.2325 C.2       0 UNK         0.5000 
      3 O           3.1623  -12.1869  -49.8276 O.2       0 UNK        -0.5000 
      4 N           1.0465  -12.9158  -50.1341 N.am      1 UNK        -0.5000 
      5 CA          1.2169  -14.2626  -49.5706 C.3       1 UNK         0.1400 
      6 C6          0.0204  -15.1914  -49.8954 C.3       23 UNK        -0.0398 
      7 S7         -1.5979  -14.6037  -49.2723 S.3       23 UNK        -0.2404 
      8 C8         -1.7525  -15.5191  -47.7042 C.3       23 UNK        -0.0205 
      9 C9         -2.4496  -16.8620  -47.8655 C.ar      23 UNK        -0.0193 
     10 C10        -1.7302  -17.9980  -48.2504 C.ar      23 UNK        -0.1150 
     11 C11        -2.3678  -19.2355  -48.3696 C.ar      23 UNK        -0.0193 
     12 C12        -3.7355  -19.3322  -48.1037 C.ar      23 UNK        -0.1150 
     13 C13        -4.4488  -18.2233  -47.6438 C.ar      23 UNK        -0.0193 
     14 C14        -3.8070  -16.9849  -47.5532 C.ar      23 UNK        -0.1150 
     15 C15        -5.8943  -18.3737  -47.1915 C.3       23 UNK        -0.0205 
     16 S16        -5.9948  -18.8925  -45.4395 S.3       23 UNK        -0.2404 
     17 C17        -5.7319  -20.6952  -45.5607 C.3       23 UNK        -0.0398 
     18 CA         -4.2499  -21.1113  -45.3266 C.3       11 UNK         0.1400 
     19 N          -3.8206  -21.1179  -43.9267 N.am      11 UNK        -0.5000 
     20 C          -4.1829  -21.9798  -42.9689 C.2       10 UNK         0.5000 
     21 O          -5.1234  -22.7678  -43.0704 O.2       10 UNK        -0.5000 
     22 CA         -3.3040  -22.0066  -41.7036 C.3       10 UNK         0.1400 
     23 CB         -2.3211  -23.1862  -41.7756 C.3       10 UNK        -0.1800 
     24 N          -2.5309  -20.7760  -41.5237 N.am      10 UNK        -0.5000 
     25 C          -2.9840  -19.6863  -40.8913 C.2       9 UNK         0.5000 
     26 O          -4.0939  -19.6116  -40.3627 O.2       9 UNK        -0.5000 
     27 CA         -2.0376  -18.4719  -40.8477 C.3       9 UNK         0.1400 
     28 CB         -1.0431  -18.6072  -39.6845 C.3       9 UNK        -0.1800 
     29 N          -1.2987  -18.2667  -42.0954 N.am      9 UNK        -0.5000 
     30 C          -1.8608  -17.9512  -43.2712 C.2       8 UNK         0.5000 
     31 O          -3.0697  -17.7902  -43.4287 O.2       8 UNK        -0.5000 
     32 CA         -0.9187  -17.8056  -44.4790 C.3       8 UNK         0.1400 
     33 CB         -0.3279  -16.3884  -44.5278 C.3       8 UNK        -0.1800 
     34 N           0.1737  -18.7770  -44.4861 N.am      8 UNK        -0.5000 
     35 C           0.0343  -20.1069  -44.5693 C.2       7 UNK         0.5000 
     36 O          -1.0491  -20.6857  -44.6371 O.2       7 UNK        -0.5000 
     37 CA          1.3304  -20.9291  -44.5415 C.3       7 UNK         0.1400 
     38 CB          1.9812  -20.9685  -45.9336 C.3       7 UNK        -0.1800 
     39 N           2.2733  -20.4006  -43.5577 N.am      7 UNK        -0.5000 
     40 C           2.1566  -20.5877  -42.2351 C.2       6 UNK         0.5000 
     41 O           1.2761  -21.2737  -41.7146 O.2       6 UNK        -0.5000 
     42 CA          3.1794  -19.8629  -41.3397 C.3       6 UNK         0.1400 
     43 CB          4.4561  -20.7030  -41.1861 C.3       6 UNK        -0.1800 
     44 N           3.5332  -18.5318  -41.8360 N.am      6 UNK        -0.5000 
     45 C           2.6821  -17.4987  -41.8985 C.2       5 UNK         0.5000 
     46 O           1.5091  -17.5560  -41.5309 O.2       5 UNK        -0.5000 
     47 CA          3.2192  -16.1939  -42.5144 C.3       5 UNK         0.1400 
     48 CB          3.9324  -15.3500  -41.4479 C.3       5 UNK        -0.1800 
     49 N           4.1141  -16.3767  -43.6614 N.am      5 UNK        -0.5000 
     50 C           3.8339  -17.0665  -44.7759 C.2       4 UNK         0.5000 
     51 O           2.8246  -17.7584  -44.9139 O.2       4 UNK        -0.5000 
     52 CA          4.8325  -16.9064  -45.9356 C.3       4 UNK         0.1400 
     53 CB          4.4995  -17.8119  -47.1357 C.3       4 UNK        -0.1800 
     54 N           4.8086  -15.5121  -46.3695 N.am      4 UNK        -0.5000 
     55 C           5.6431  -14.5531  -45.9436 C.2       3 UNK         0.5000 
     56 O           6.6180  -14.7716  -45.2237 O.2       3 UNK        -0.5000 
     57 CA          5.3061  -13.0999  -46.3404 C.3       3 UNK         0.1400 
     58 CB          6.0233  -12.7163  -47.6430 C.3       3 UNK        -0.1800 
     59 N           3.8692  -12.8707  -46.5018 N.am      3 UNK        -0.5000 
     60 C           2.9570  -12.9823  -45.5237 C.2       2 UNK         0.5000 
     61 O           3.2484  -13.1393  -44.3381 O.2       2 UNK        -0.5000 
     62 CA          1.4690  -12.9478  -45.9320 C.3       2 UNK         0.1400 
     63 CB          0.8261  -11.6145  -45.5222 C.3       2 UNK        -0.1800 
     64 N           1.2215  -13.1694  -47.3597 N.am      2 UNK        -0.5000 
     65 C           1.5463  -14.2662  -48.0611 C.2       1 UNK         0.5000 
     66 O           2.1062  -15.2449  -47.5689 O.2       1 UNK        -0.5000 
     67 C          -3.8556  -22.4253  -46.0439 C.2       11 UNK         0.5000 
     68 O          -4.6317  -22.9618  -46.8320 O.2       11 UNK        -0.5000 
     69 N          -2.6442  -22.9180  -45.7641 N.am      12 UNK        -0.5000 
     70 CA         -2.0800  -24.1452  -46.3146 C.3       12 UNK         0.1400 
     71 CB         -2.7366  -25.3785  -45.6648 C.3       12 UNK        -0.1800 
     72 C          -0.5677  -24.1193  -46.0355 C.2       12 UNK         0.5000 
     73 O          -0.1974  -24.0651  -44.8641 O.2       12 UNK        -0.5000 
     74 N           0.3195  -24.1464  -47.0357 N.am      13 UNK        -0.5000 
     75 CA          0.0974  -24.1685  -48.4780 C.3       13 UNK         0.1400 
     76 CB         -0.1219  -25.6187  -48.9427 C.3       13 UNK        -0.1800 
     77 C           1.3214  -23.5336  -49.1539 C.2       13 UNK         0.5000 
     78 O           2.4105  -23.5400  -48.5731 O.2       13 UNK        -0.5000 
     79 N           1.1142  -22.9851  -50.3526 N.am      14 UNK        -0.5000 
     80 CA          2.0901  -22.2292  -51.1315 C.3       14 UNK         0.1400 
     81 CB          2.4225  -20.8801  -50.4466 C.3       14 UNK        -0.1800 
     82 C           1.5484  -22.0956  -52.5662 C.2       14 UNK         0.5000 
     83 O           1.3641  -23.1174  -53.2293 O.2       14 UNK        -0.5000 
     84 N           1.3026  -20.8621  -53.0263 N.am      15 UNK        -0.5000 
     85 CA          0.7872  -20.5464  -54.3591 C.3       15 UNK         0.1400 
     86 CB          1.9192  -20.6411  -55.4040 C.3       15 UNK        -0.1800 
     87 C           0.0807  -19.1770  -54.3588 C.2       15 UNK         0.5000 
     88 O           0.2715  -18.3827  -55.2821 O.2       15 UNK        -0.5000 
     89 N          -0.7067  -18.9060  -53.3087 N.am      16 UNK        -0.5000 
     90 CA         -1.5176  -17.6925  -53.1756 C.3       16 UNK         0.1400 
     91 CB         -1.9545  -17.5408  -51.7104 C.3       16 UNK        -0.1800 
     92 C          -2.7563  -17.7098  -54.0916 C.2       16 UNK         0.5000 
     93 O          -3.1017  -18.7488  -54.6596 O.2       16 UNK        -0.5000 
     94 N          -3.4369  -16.5569  -54.1684 N.am      17 UNK        -0.5000 
     95 CA         -4.6969  -16.3667  -54.8952 C.3       17 UNK         0.1400 
     96 CB         -5.0675  -14.8762  -54.8782 C.3       17 UNK        -0.1800 
     97 C          -5.8595  -17.2185  -54.3461 C.2       17 UNK         0.5000 
     98 O          -6.7445  -17.6040  -55.1107 O.2       17 UNK        -0.5000 
     99 N          -5.8094  -17.5535  -53.0488 N.am      18 UNK        -0.5000 
    100 CA        -6.7058  -18.4870  -52.3607 C.3       18 UNK         0.1400 
    101 CB        -6.6649  -18.1795  -50.8525 C.3       18 UNK        -0.1800 
    102 C         -6.3456  -19.9596  -52.6645 C.2       18 UNK         0.5000 
    103 O         -6.2523  -20.7775  -51.7472 O.2       18 UNK        -0.5000 
    104 N         -6.1237  -20.2712  -53.9482 N.am      19 UNK        -0.5000 
    105 CA        -5.5695  -21.5255  -54.4656 C.3       19 UNK         0.1400 
    106 CB        -5.4021  -21.4036  -55.9871 C.3       19 UNK        -0.1800 
    107 C         -6.3756  -22.7879  -54.1115 C.2       19 UNK         0.5000 
    108 O         -5.7908  -23.8672  -54.0199 O.2       19 UNK        -0.5000 
    109 N         -7.6850  -22.6299  -53.8738 N.am      20 UNK        -0.5000 
    110 CA        -8.5867  -23.6859  -53.4067 C.3       20 UNK         0.1400 
    111 CB       -10.0239  -23.1435  -53.3887 C.3       20 UNK        -0.1800 
    112 C         -8.2064  -24.2542  -52.0231 C.2       20 UNK         0.5000 
    113 O         -8.4920  -25.4218  -51.7541 O.2       20 UNK        -0.5000 
    114 N         -7.5605  -23.4298  -51.1881 N.am      21 UNK        -0.5000 
    115 CA        -6.9986  -23.8189  -49.8972 C.3       21 UNK         0.1400 
    116 CB        -7.4321  -22.7919  -48.8377 C.3       21 UNK        -0.1800 
    117 C         -5.4648  -23.9061  -49.9835 C.2       21 UNK         0.5000 
    118 O         -4.8808  -24.8786  -49.5043 O.2       21 UNK        -0.5000 
    119 N         -4.8465  -22.8901  -50.5999 N.am      22 UNK        -0.5000 
    120 CA        -3.3931  -22.7101  -50.6941 C.3       22 UNK         0.1400 
    121 C         -2.6492  -23.6950  -51.6410 C.2       22 UNK         0.5000 
    122 N         -3.3104  -24.3647  -52.5757 N.am      22 UNK        -0.7600 
    123 O         -1.4407  -23.8622  -51.5127 O.2       22 UNK        -0.5000 
    124 C124       -3.0540  -21.2314  -51.0160 C.3       23 UNK        -0.0398 
    125 S125       -1.3795  -20.7303  -50.4992 S.3       23 UNK        -0.2404 
    126 C126       -1.5652  -20.4807  -48.7095 C.3       23 UNK        -0.0205 
    127 H127        0.5986  -10.6290  -51.1632 H         1 UNK         0.0600 
    128 H128        2.2608  -10.4745  -51.7398 H         1 UNK         0.0600 
    129 H129        1.8161   -9.8505  -50.1476 H         1 UNK         0.0600 
    130 H130        0.1168  -12.6993  -50.4664 H         1 UNK         0.3000 
    131 H131        2.0913  -14.6947  -50.0624 H         1 UNK         0.0600 
    132 H132       -0.0650  -15.2896  -50.9781 H         1 UNK         0.0800 
    133 H133        0.2183  -16.1996  -49.5332 H         1 UNK         0.0800 
    134 H134       -0.7698  -15.6712  -47.2628 H         1 UNK         0.0800 
    135 H135       -2.3033  -14.8979  -46.9965 H         1 UNK         0.0800 
    136 H136       -0.6692  -17.9297  -48.4385 H         1 UNK         0.1150 
    137 H137       -4.2312  -20.2890  -48.1849 H         1 UNK         0.1150 
    138 H138       -4.3575  -16.1222  -47.2055 H         1 UNK         0.1150 
    139 H139       -6.4147  -17.4215  -47.3037 H         1 UNK         0.0800 
    140 H140       -6.4236  -19.0815  -47.8309 H         1 UNK         0.0800 
    141 H141       -6.0904  -20.9994  -46.5443 H         1 UNK         0.0800 
    142 H142       -6.3888  -21.1954  -44.8489 H         1 UNK         0.0800 
    143 H143       -3.6105  -20.3535  -45.7719 H         1 UNK         0.0600 
    144 H144       -3.0139  -20.5365  -43.7403 H         1 UNK         0.3000 
    145 H145       -3.9594  -22.1598  -40.8436 H         1 UNK         0.0600 
    146 H146       -1.7294  -23.2630  -40.8632 H         1 UNK         0.0600 
    147 H147       -1.6302  -23.0833  -42.6139 H         1 UNK         0.0600 
    148 H148       -2.8499  -24.1319  -41.9011 H         1 UNK         0.0600 
    149 H149       -1.6027  -20.7554  -41.9234 H         1 UNK         0.3000 
    150 H150       -2.6484  -17.5841  -40.6714 H         1 UNK         0.0600 
    151 H151       -1.5626  -18.7801  -38.7411 H         1 UNK         0.0600 
    152 H152       -0.4510  -17.6996  -39.5661 H         1 UNK         0.0600 
    153 H153       -0.3535  -19.4383  -39.8395 H         1 UNK         0.0600 
    154 H154       -0.2857  -18.3016  -42.0342 H         1 UNK         0.3000 
    155 H155       -1.5083  -17.9706  -45.3818 H         1 UNK         0.0600 
    156 H156       -1.1114  -15.6448  -44.6770 H         1 UNK         0.0600 
    157 H157        0.3900  -16.2838  -45.3415 H         1 UNK         0.0600 
    158 H158        0.1859  -16.1377  -43.6004 H         1 UNK         0.0600 
    159 H159        1.1167  -18.3957  -44.4844 H         1 UNK         0.3000 
    160 H160        1.0771  -21.9501  -44.2564 H         1 UNK         0.0600 
    161 H161        2.2658  -19.9751  -46.2803 H         1 UNK         0.0600 
    162 H162        1.2941  -21.3832  -46.6717 H         1 UNK         0.0600 
    163 H163        2.8739  -21.5939  -45.9353 H         1 UNK         0.0600 
    164 H164        2.9685  -19.7517  -43.9008 H         1 UNK         0.3000 
    165 H165        2.7281  -19.7451  -40.3520 H         1 UNK         0.0600 
    166 H166        5.1534  -20.2373  -40.4895 H         1 UNK         0.0600 
    167 H167        4.2252  -21.6960  -40.7980 H         1 UNK         0.0600 
    168 H168        4.9698  -20.8344  -42.1393 H         1 UNK         0.0600 
    169 H169        4.4769  -18.4001  -42.1691 H         1 UNK         0.3000 
    170 H170        2.3602  -15.6236  -42.8711 H         1 UNK         0.0600 
    171 H171        3.2840  -15.1765  -40.5880 H         1 UNK         0.0600 
    172 H172        4.8371  -15.8393  -41.0851 H         1 UNK         0.0600 
    173 H173        4.2133  -14.3732  -41.8427 H         1 UNK         0.0600 
    174 H174        4.9597  -15.8232  -43.6542 H         1 UNK         0.3000 
    175 H175        5.8239  -17.1808  -45.5699 H         1 UNK         0.0600 
    176 H176        3.5051  -17.6081  -47.5353 H         1 UNK         0.0600 
    177 H177        5.2180  -17.6739  -47.9436 H         1 UNK         0.0600 
    178 H178        4.5291  -18.8639  -46.8500 H         1 UNK         0.0600 
    179 H179        3.9817  -15.2425  -46.8940 H         1 UNK         0.3000 
    180 H180        5.6646  -12.4457  -45.5430 H         1 UNK         0.0600 
    181 H181        5.6837  -13.3244  -48.4826 H         1 UNK         0.0600 
    182 H182        7.1016  -12.8533  -47.5512 H         1 UNK         0.0600 
    183 H183        5.8487  -11.6703  -47.8963 H         1 UNK         0.0600 
    184 H184        3.5410  -12.7232  -47.4471 H         1 UNK         0.3000 
    185 H185        0.9709  -13.7504  -45.3850 H         1 UNK         0.0600 
    186 H186        1.2669  -10.7744  -46.0604 H         1 UNK         0.0600 
    187 H187       -0.2462  -11.6159  -45.7191 H         1 UNK         0.0600 
    188 H188        0.9580  -11.4270  -44.4556 H         1 UNK         0.0600 
    189 H189        0.7688  -12.4164  -47.8569 H         1 UNK         0.3000 
    190 H190       -2.0302  -22.3905  -45.1487 H         1 UNK         0.3000 
    191 H191       -2.2925  -24.1795  -47.3817 H         1 UNK         0.0600 
    192 H192       -2.6377  -25.3621  -44.5785 H         1 UNK         0.0600 
    193 H193       -2.2762  -26.2990  -46.0253 H         1 UNK         0.0600 
    194 H194       -3.7990  -25.4354  -45.9017 H         1 UNK         0.0600 
    195 H195        1.3038  -24.0842  -46.8075 H         1 UNK         0.3000 
    196 H196       -0.7620  -23.5522  -48.7418 H         1 UNK         0.0600 
    197 H197        0.7082  -26.2616  -48.6480 H         1 UNK         0.0600 
    198 H198       -1.0358  -26.0390  -48.5234 H         1 UNK         0.0600 
    199 H199       -0.2081  -25.6781  -50.0279 H         1 UNK         0.0600 
    200 H200        0.2099  -23.1137  -50.8049 H         1 UNK         0.3000 
    201 H201        3.0077  -22.8170  -51.1968 H         1 UNK         0.0600 
    202 H202        2.8812  -21.0331  -49.4698 H         1 UNK         0.0600 
    203 H203        1.5356  -20.2652  -50.2947 H         1 UNK         0.0600 
    204 H204        3.1358  -20.3033  -51.0365 H         1 UNK         0.0600 
    205 H205        1.4695  -20.0714  -52.4193 H         1 UNK         0.3000 
    206 H206        0.0200  -21.2788  -54.6191 H         1 UNK         0.0600 
    207 H207        2.3598  -21.6377  -55.4264 H         1 UNK         0.0600 
    208 H208        1.5467  -20.4351  -56.4081 H         1 UNK         0.0600 
    209 H209        2.7165  -19.9274  -55.1936 H         1 UNK         0.0600 
    210 H210       -0.8446  -19.6165  -52.6030 H         1 UNK         0.3000 
    211 H211       -0.8995  -16.8334  -53.4450 H         1 UNK         0.0600 
    212 H212       -2.7082  -18.2776  -51.4316 H         1 UNK         0.0600 
    213 H213       -2.3855  -16.5569  -51.5248 H         1 UNK         0.0600 
    214 H214       -1.1087  -17.6558  -51.0343 H         1 UNK         0.0600 
    215 H215       -3.0862  -15.7510  -53.6713 H         1 UNK         0.3000 
    216 H216       -4.5323  -16.6679  -55.9319 H         1 UNK         0.0600 
    217 H217       -5.2198  -14.5104  -53.8620 H         1 UNK         0.0600 
    218 H218       -5.9893  -14.6966  -55.4333 H         1 UNK         0.0600 
    219 H219       -4.2886  -14.2700  -55.3412 H         1 UNK         0.0600 
    220 H220       -5.0294  -17.2108  -52.5086 H         1 UNK         0.3000 
    221 H221       -7.7264  -18.3235  -52.7120 H         1 UNK         0.0600 
    222 H222       -5.6699  -18.3445  -50.4369 H         1 UNK         0.0600 
    223 H223       -6.9444  -17.1453  -50.6514 H         1 UNK         0.0600 
    224 H224       -7.3609  -18.8143  -50.3025 H         1 UNK         0.0600 
    225 H225       -6.2506  -19.5275  -54.6254 H         1 UNK         0.3000 
    226 H226       -4.5777  -21.6450  -54.0256 H         1 UNK         0.0600 
    227 H227       -4.7416  -20.5750  -56.2444 H         1 UNK         0.0600 
    228 H228       -4.9633  -22.3095  -56.4075 H         1 UNK         0.0600 
    229 H229       -6.3586  -21.2383  -56.4844 H         1 UNK         0.0600 
    230 H230       -8.0777  -21.7052  -53.9709 H         1 UNK         0.3000 
    231 H231       -8.5379  -24.5077  -54.1240 H         1 UNK         0.0600 
    232 H232      -10.7279  -23.9133  -53.0697 H         1 UNK         0.0600 
    233 H233      -10.3339  -22.8126  -54.3801 H         1 UNK         0.0600 
    234 H234      -10.1269  -22.3004  -52.7043 H         1 UNK         0.0600 
    235 H235       -7.3439  -22.4921  -51.5063 H         1 UNK         0.3000 
    236 H236       -7.3750  -24.7972  -49.5913 H         1 UNK         0.0600 
    237 H237       -8.5182  -22.7147  -48.7863 H         1 UNK         0.0600 
    238 H238       -7.0831  -23.0857  -47.8478 H         1 UNK         0.0600 
    239 H239       -7.0358  -21.7972  -49.0469 H         1 UNK         0.0600 
    240 H240       -5.4085  -22.1319  -50.9801 H         1 UNK         0.3000 
    241 H241       -3.0127  -22.9255  -49.6946 H         1 UNK         0.0600 
    242 H242       -4.2989  -24.2210  -52.7465 H         1 UNK         0.3800 
    243 H243       -2.7992  -25.0016  -53.1647 H         1 UNK         0.3800 
    244 H244       -3.7663  -20.5605  -50.5377 H         1 UNK         0.0800 
    245 H245       -3.1579  -21.0377  -52.0848 H         1 UNK         0.0800 
    246 H246       -0.5708  -20.4013  -48.2676 H         1 UNK         0.0800 
    247 H247       -2.0200  -21.3613  -48.2568 H         1 UNK         0.0800 
@<TRIPOS>BOND
     1    1    2 1    
     2    1  127 1    
     3    1  128 1    
     4    1  129 1    
     5    2    3 2    
     6    2    4 am   BACKBONE|DICT|INTERRES
     7    4    5 1    
     8    4  130 1    
     9    5    6 1    
    10    5   65 1    
    11    5  131 1    
    12    6    7 1    
    13    6  132 1    
    14    6  133 1    
    15    7    8 1    
    16    8    9 1    
    17    8  134 1    
    18    8  135 1    
    19    9   10 ar   
    20    9   14 ar   
    21   10   11 ar   
    22   10  136 1    
    23   11   12 ar   
    24   11  126 1    
    25   12   13 ar   
    26   12  137 1    
    27   13   14 ar   
    28   13   15 1    
    29   14  138 1    
    30   15   16 1    
    31   15  139 1    
    32   15  140 1    
    33   16   17 1    
    34   17   18 1    
    35   17  141 1    
    36   17  142 1    
    37   18   19 1    
    38   18   67 1    
    39   18  143 1    
    40   19   20 am   BACKBONE|DICT|INTERRES
    41   19  144 1    
    42   20   21 2    
    43   20   22 1    
    44   22   23 1    
    45   22   24 1    
    46   22  145 1    
    47   23  146 1    
    48   23  147 1    
    49   23  148 1    
    50   24   25 am   BACKBONE|DICT|INTERRES
    51   24  149 1    
    52   25   26 2    
    53   25   27 1    
    54   27   28 1    
    55   27   29 1    
    56   27  150 1    
    57   28  151 1    
    58   28  152 1    
    59   28  153 1    
    60   29   30 am   BACKBONE|DICT|INTERRES
    61   29  154 1    
    62   30   31 2    
    63   30   32 1    
    64   32   33 1    
    65   32   34 1    
    66   32  155 1    
    67   33  156 1    
    68   33  157 1    
    69   33  158 1    
    70   34   35 am   BACKBONE|DICT|INTERRES
    71   34  159 1    
    72   35   36 2    
    73   35   37 1    
    74   37   38 1    
    75   37   39 1    
    76   37  160 1    
    77   38  161 1    
    78   38  162 1    
    79   38  163 1    
    80   39   40 am   BACKBONE|DICT|INTERRES
    81   39  164 1    
    82   40   41 2    
    83   40   42 1    
    84   42   43 1    
    85   42   44 1    
    86   42  165 1    
    87   43  166 1    
    88   43  167 1    
    89   43  168 1    
    90   44   45 am   BACKBONE|DICT|INTERRES
    91   44  169 1    
    92   45   46 2    
    93   45   47 1    
    94   47   48 1    
    95   47   49 1    
    96   47  170 1    
    97   48  171 1    
    98   48  172 1    
    99   48  173 1    
   100   49   50 am   BACKBONE|DICT|INTERRES
   101   49  174 1    
   102   50   51 2    
   103   50   52 1    
   104   52   53 1    
   105   52   54 1    
   106   52  175 1    
   107   53  176 1    
   108   53  177 1    
   109   53  178 1    
   110   54   55 am   BACKBONE|DICT|INTERRES
   111   54  179 1    
   112   55   56 2    
   113   55   57 1    
   114   57   58 1    
   115   57   59 1    
   116   57  180 1    
   117   58  181 1    
   118   58  182 1    
   119   58  183 1    
   120   59   60 am   BACKBONE|DICT|INTERRES
   121   59  184 1    
   122   60   61 2    
   123   60   62 1    
   124   62   63 1    
   125   62   64 1    
   126   62  185 1    
   127   63  186 1    
   128   63  187 1    
   129   63  188 1    
   130   64   65 am   BACKBONE|DICT|INTERRES
   131   64  189 1    
   132   65   66 2    
   133   67   68 2    
   134   67   69 am   BACKBONE|DICT|INTERRES
   135   69   70 1    
   136   69  190 1    
   137   70   71 1    
   138   70   72 1    
   139   70  191 1    
   140   71  192 1    
   141   71  193 1    
   142   71  194 1    
   143   72   73 2    
   144   72   74 am   BACKBONE|DICT|INTERRES
   145   74   75 1    
   146   74  195 1    
   147   75   76 1    
   148   75   77 1    
   149   75  196 1    
   150   76  197 1    
   151   76  198 1    
   152   76  199 1    
   153   77   78 2    
   154   77   79 am   BACKBONE|DICT|INTERRES
   155   79   80 1    
   156   79  200 1    
   157   80   81 1    
   158   80   82 1    
   159   80  201 1    
   160   81  202 1    
   161   81  203 1    
   162   81  204 1    
   163   82   83 2    
   164   82   84 am   BACKBONE|DICT|INTERRES
   165   84   85 1    
   166   84  205 1    
   167   85   86 1    
   168   85   87 1    
   169   85  206 1    
   170   86  207 1    
   171   86  208 1    
   172   86  209 1    
   173   87   88 2    
   174   87   89 am   BACKBONE|DICT|INTERRES
   175   89   90 1    
   176   89  210 1    
   177   90   91 1    
   178   90   92 1    
   179   90  211 1    
   180   91  212 1    
   181   91  213 1    
   182   91  214 1    
   183   92   93 2    
   184   92   94 am   BACKBONE|DICT|INTERRES
   185   94   95 1    
   186   94  215 1    
   187   95   96 1    
   188   95   97 1    
   189   95  216 1    
   190   96  217 1    
   191   96  218 1    
   192   96  219 1    
   193   97   98 2    
   194   97   99 am   BACKBONE|DICT|INTERRES
   195   99  100 1    
   196   99  220 1    
   197  100  101 1    
   198  100  102 1    
   199  100  221 1    
   200  101  222 1    
   201  101  223 1    
   202  101  224 1    
   203  102  103 2    
   204  102  104 am   BACKBONE|DICT|INTERRES
   205  104  105 1    
   206  104  225 1    
   207  105  106 1    
   208  105  107 1    
   209  105  226 1    
   210  106  227 1    
   211  106  228 1    
   212  106  229 1    
   213  107  108 2    
   214  107  109 am   BACKBONE|DICT|INTERRES
   215  109  110 1    
   216  109  230 1    
   217  110  111 1    
   218  110  112 1    
   219  110  231 1    
   220  111  232 1    
   221  111  233 1    
   222  111  234 1    
   223  112  113 2    
   224  112  114 am   BACKBONE|DICT|INTERRES
   225  114  115 1    
   226  114  235 1    
   227  115  116 1    
   228  115  117 1    
   229  115  236 1    
   230  116  237 1    
   231  116  238 1    
   232  116  239 1    
   233  117  118 2    
   234  117  119 am   BACKBONE|DICT|INTERRES
   235  119  120 1    
   236  119  240 1    
   237  120  121 1    
   238  120  124 1    
   239  120  241 1    
   240  121  122 am   BACKBONE|DICT|INTERRES
   241  121  123 2    
   242  122  242 1    
   243  122  243 1    
   244  124  125 1    
   245  124  244 1    
   246  124  245 1    
   247  125  126 1    
   248  126  246 1    
   249  126  247 1    
@<TRIPOS>SUBSTRUCTURE
     1 UNK         1 GROUP             0       ****    0 ROOT    
