@<TRIPOS>MOLECULE
3R540
247   249    1
SMALL
USER_CHARGES


@<TRIPOS>ATOM
      1 CA          5.0263  -19.7608  -45.8018 C.3       0 UNK        -0.1800 
      2 C           4.3152  -18.5276  -45.2649 C.2       0 UNK         0.5000 
      3 O           4.0969  -18.4308  -44.0580 O.2       0 UNK        -0.5000 
      4 N           3.9632  -17.5865  -46.1508 N.am      1 UNK        -0.5000 
      5 CA          3.4139  -16.2714  -45.8028 C.3       1 UNK         0.1400 
      6 C6          2.8153  -15.5407  -47.0331 C.3       23 UNK        -0.0398 
      7 S7          3.9653  -15.3725  -48.4455 S.3       23 UNK        -0.2404 
      8 C8          2.8189  -15.2263  -49.8603 C.3       23 UNK        -0.0205 
      9 C9          1.9685  -16.4691  -50.1135 C.ar      23 UNK        -0.0193 
     10 C10         0.6178  -16.3260  -50.4497 C.ar      23 UNK        -0.1150 
     11 C11        -0.1812  -17.4481  -50.6902 C.ar      23 UNK        -0.0193 
     12 C12         0.3773  -18.7235  -50.5753 C.ar      23 UNK        -0.1150 
     13 C13         1.7288  -18.8829  -50.2616 C.ar      23 UNK        -0.0193 
     14 C14         2.5218  -17.7529  -50.0448 C.ar      23 UNK        -0.1150 
     15 C15         2.3254  -20.2787  -50.1549 C.3       23 UNK        -0.0205 
     16 S16         2.9165  -20.6676  -48.4749 S.3       23 UNK        -0.2404 
     17 C17         1.4452  -20.3497  -47.4415 C.3       23 UNK        -0.0398 
     18 CA          0.6521  -21.6262  -47.0851 C.3       11 UNK         0.1400 
     19 N          -0.2455  -21.3887  -45.9546 N.am      11 UNK        -0.5000 
     20 C          -0.9769  -22.3257  -45.3368 C.2       10 UNK         0.5000 
     21 O          -0.9287  -23.5259  -45.6064 O.2       10 UNK        -0.5000 
     22 CA         -1.9717  -21.8208  -44.2781 C.3       10 UNK         0.1400 
     23 CB         -1.2692  -21.5753  -42.9341 C.3       10 UNK        -0.1800 
     24 N          -2.6509  -20.5978  -44.7106 N.am      10 UNK        -0.5000 
     25 C          -3.5434  -20.5431  -45.7100 C.2       9 UNK         0.5000 
     26 O          -3.9157  -21.5262  -46.3486 O.2       9 UNK        -0.5000 
     27 CA         -4.0747  -19.1484  -46.0871 C.3       9 UNK         0.1400 
     28 CB         -5.2010  -18.7188  -45.1356 C.3       9 UNK        -0.1800 
     29 N          -3.0236  -18.1296  -46.0913 N.am      9 UNK        -0.5000 
     30 C          -1.9967  -18.1106  -46.9525 C.2       8 UNK         0.5000 
     31 O          -1.8426  -18.9375  -47.8480 O.2       8 UNK        -0.5000 
     32 CA         -0.9359  -17.0169  -46.7489 C.3       8 UNK         0.1400 
     33 CB         -1.3406  -15.7223  -47.4681 C.3       8 UNK        -0.1800 
     34 N          -0.6821  -16.7150  -45.3410 N.am      8 UNK        -0.5000 
     35 C          -0.2050  -17.5688  -44.4261 C.2       7 UNK         0.5000 
     36 O           0.0541  -18.7458  -44.6804 O.2       7 UNK        -0.5000 
     37 CA         -0.0432  -17.0466  -42.9786 C.3       7 UNK         0.1400 
     38 CB          1.3522  -17.3505  -42.3996 C.3       7 UNK        -0.1800 
     39 N          -0.3957  -15.6325  -42.7650 N.am      7 UNK        -0.5000 
     40 C           0.1821  -14.5437  -43.2967 C.2       6 UNK         0.5000 
     41 O           1.1101  -14.5774  -44.1033 O.2       6 UNK        -0.5000 
     42 CA         -0.3649  -13.1942  -42.8250 C.3       6 UNK         0.1400 
     43 CB         -1.8953  -13.0838  -42.9694 C.3       6 UNK        -0.1800 
     44 N           0.0472  -13.0077  -41.4405 N.am      6 UNK        -0.5000 
     45 C           0.2483  -11.8236  -40.8562 C.2       5 UNK         0.5000 
     46 O          -0.0399  -10.7436  -41.3750 O.2       5 UNK        -0.5000 
     47 CA          0.9282  -11.8339  -39.4795 C.3       5 UNK         0.1400 
     48 CB          0.9620  -13.2122  -38.7849 C.3       5 UNK        -0.1800 
     49 N           2.2887  -11.3513  -39.6744 N.am      5 UNK        -0.5000 
     50 C           2.9761  -10.5907  -38.8149 C.2       4 UNK         0.5000 
     51 O           2.5438  -10.2450  -37.7144 O.2       4 UNK        -0.5000 
     52 CA          4.3888  -10.1401  -39.2444 C.3       4 UNK         0.1400 
     53 CB          5.4592  -10.9545  -38.5009 C.3       4 UNK        -0.1800 
     54 N           4.6302  -10.2574  -40.6844 N.am      4 UNK        -0.5000 
     55 C           4.0797   -9.4814  -41.6288 C.2       3 UNK         0.5000 
     56 O           3.3492   -8.5218  -41.3808 O.2       3 UNK        -0.5000 
     57 CA          4.3870   -9.8422  -43.0973 C.3       3 UNK         0.1400 
     58 CB          5.4215   -8.8693  -43.6842 C.3       3 UNK        -0.1800 
     59 N           4.8683  -11.2160  -43.2862 N.am      3 UNK        -0.5000 
     60 C           4.1262  -12.3179  -43.1177 C.2       2 UNK         0.5000 
     61 O           2.9526  -12.3021  -42.7459 O.2       2 UNK        -0.5000 
     62 CA          4.8303  -13.6591  -43.3453 C.3       2 UNK         0.1400 
     63 CB          5.1284  -14.3508  -42.0040 C.3       2 UNK        -0.1800 
     64 N           3.9899  -14.5262  -44.1661 N.am      2 UNK        -0.5000 
     65 C           4.4581  -15.4040  -45.0599 C.2       1 UNK         0.5000 
     66 O           5.6599  -15.5421  -45.3086 O.2       1 UNK        -0.5000 
     67 C          -0.1102  -22.1941  -48.3010 C.2       11 UNK         0.5000 
     68 O           0.3020  -23.2137  -48.8537 O.2       11 UNK        -0.5000 
     69 N          -1.2350  -21.5603  -48.6646 N.am      12 UNK        -0.5000 
     70 CA         -2.1220  -22.0058  -49.7370 C.3       12 UNK         0.1400 
     71 CB         -3.2086  -20.9548  -49.9989 C.3       12 UNK        -0.1800 
     72 C          -2.7549  -23.3775  -49.4611 C.2       12 UNK         0.5000 
     73 O          -2.8779  -24.1712  -50.3916 O.2       12 UNK        -0.5000 
     74 N          -3.1310  -23.6495  -48.2044 N.am      13 UNK        -0.5000 
     75 CA         -3.6598  -24.9439  -47.7719 C.3       13 UNK         0.1400 
     76 CB         -4.2080  -24.8379  -46.3416 C.3       13 UNK        -0.1800 
     77 C          -2.6175  -26.0699  -47.8868 C.2       13 UNK         0.5000 
     78 O          -2.9470  -27.1478  -48.3819 O.2       13 UNK        -0.5000 
     79 N          -1.3723  -25.7853  -47.4794 N.am      14 UNK        -0.5000 
     80 CA         -0.2280  -26.6902  -47.6096 C.3       14 UNK         0.1400 
     81 CB          0.9634  -26.1241  -46.8220 C.3       14 UNK        -0.1800 
     82 C           0.1605  -26.9562  -49.0774 C.2       14 UNK         0.5000 
     83 O           0.4894  -28.0911  -49.4241 O.2       14 UNK        -0.5000 
     84 N           0.0883  -25.9138  -49.9158 N.am      15 UNK        -0.5000 
     85 CA          0.3480  -25.9721  -51.3562 C.3       15 UNK         0.1400 
     86 CB          0.6135  -24.5446  -51.8624 C.3       15 UNK        -0.1800 
     87 C          -0.7917  -26.6182  -52.1723 C.2       15 UNK         0.5000 
     88 O          -0.5808  -26.9294  -53.3450 O.2       15 UNK        -0.5000 
     89 N          -1.9758  -26.7711  -51.5591 N.am      16 UNK        -0.5000 
     90 CA         -3.2516  -27.1887  -52.1570 C.3       16 UNK         0.1400 
     91 CB         -3.1749  -28.6293  -52.7030 C.3       16 UNK        -0.1800 
     92 C          -3.7934  -26.1739  -53.1910 C.2       16 UNK         0.5000 
     93 O          -4.5380  -26.5445  -54.0996 O.2       16 UNK        -0.5000 
     94 N          -3.4221  -24.9011  -53.0120 N.am      17 UNK        -0.5000 
     95 CA         -3.8308  -23.7543  -53.8194 C.3       17 UNK         0.1400 
     96 CB         -2.6458  -22.7801  -53.9045 C.3       17 UNK        -0.1800 
     97 C          -5.0610  -23.0420  -53.2281 C.2       17 UNK         0.5000 
     98 O          -5.6802  -22.2315  -53.9216 O.2       17 UNK        -0.5000 
     99 N          -5.4008  -23.3412  -51.9636 N.am      18 UNK        -0.5000 
    100 CA        -6.5343  -22.7751  -51.2226 C.3       18 UNK         0.1400 
    101 CB        -6.5091  -23.2807  -49.7731 C.3       18 UNK        -0.1800 
    102 C         -7.9041  -23.0595  -51.8644 C.2       18 UNK         0.5000 
    103 O         -8.8123  -22.2397  -51.7327 O.2       18 UNK        -0.5000 
    104 N         -8.0094  -24.1734  -52.6025 N.am      19 UNK        -0.5000 
    105 CA        -9.1797  -24.5541  -53.3992 C.3       19 UNK         0.1400 
    106 CB        -8.9534  -25.9640  -53.9658 C.3       19 UNK        -0.1800 
    107 C         -9.5058  -23.5621  -54.5365 C.2       19 UNK         0.5000 
    108 O        -10.6601  -23.4865  -54.9587 O.2       19 UNK        -0.5000 
    109 N         -8.4939  -22.8106  -54.9901 N.am      20 UNK        -0.5000 
    110 CA        -8.6011  -21.7412  -55.9817 C.3       20 UNK         0.1400 
    111 CB        -7.5744  -22.0125  -57.0952 C.3       20 UNK        -0.1800 
    112 C         -8.4023  -20.3485  -55.3443 C.2       20 UNK         0.5000 
    113 O         -8.2311  -19.3747  -56.0783 O.2       20 UNK        -0.5000 
    114 N         -8.4281  -20.2743  -54.0019 N.am      21 UNK        -0.5000 
    115 CA        -8.2076  -19.0881  -53.1660 C.3       21 UNK         0.1400 
    116 CB        -9.3510  -18.0678  -53.3478 C.3       21 UNK        -0.1800 
    117 C         -6.8046  -18.4801  -53.3741 C.2       21 UNK         0.5000 
    118 O         -6.6781  -17.2881  -53.6598 O.2       21 UNK        -0.5000 
    119 N         -5.7805  -19.3337  -53.2400 N.am      22 UNK        -0.5000 
    120 CA        -4.3780  -19.0663  -53.5962 C.3       22 UNK         0.1400 
    121 C         -4.1716  -19.1099  -55.1393 C.2       22 UNK         0.5000 
    122 N         -4.6543  -20.1563  -55.7981 N.am      22 UNK        -0.7600 
    123 O         -3.5939  -18.2124  -55.7468 O.2       22 UNK        -0.5000 
    124 C124       -3.7692  -17.8193  -52.8884 C.3       23 UNK        -0.0398 
    125 S125       -1.9507  -17.9220  -52.7562 S.3       23 UNK        -0.2404 
    126 C126       -1.6460  -17.2929  -51.0748 C.3       23 UNK        -0.0205 
    127 H127        5.9468  -19.9355  -45.2448 H         1 UNK         0.0600 
    128 H128        5.2865  -19.6510  -46.8547 H         1 UNK         0.0600 
    129 H129        4.3896  -20.6388  -45.6934 H         1 UNK         0.0600 
    130 H130        4.1989  -17.7066  -47.1252 H         1 UNK         0.3000 
    131 H131        2.5923  -16.4557  -45.1112 H         1 UNK         0.0600 
    132 H132        2.4484  -14.5510  -46.7549 H         1 UNK         0.0800 
    133 H133        1.9375  -16.0910  -47.3685 H         1 UNK         0.0800 
    134 H134        2.1838  -14.3539  -49.6983 H         1 UNK         0.0800 
    135 H135        3.4012  -15.0205  -50.7591 H         1 UNK         0.0800 
    136 H136        0.1875  -15.3375  -50.5289 H         1 UNK         0.1150 
    137 H137       -0.2434  -19.5917  -50.7465 H         1 UNK         0.1150 
    138 H138        3.5685  -17.8783  -49.8069 H         1 UNK         0.1150 
    139 H139        1.6030  -21.0360  -50.4631 H         1 UNK         0.0800 
    140 H140        3.1629  -20.3596  -50.8489 H         1 UNK         0.0800 
    141 H141        1.8138  -19.8883  -46.5245 H         1 UNK         0.0800 
    142 H142        0.7991  -19.5999  -47.8954 H         1 UNK         0.0800 
    143 H143        1.3643  -22.3883  -46.7614 H         1 UNK         0.0600 
    144 H144       -0.3169  -20.4302  -45.6266 H         1 UNK         0.3000 
    145 H145       -2.7262  -22.5964  -44.1304 H         1 UNK         0.0600 
    146 H146       -1.9811  -21.2689  -42.1676 H         1 UNK         0.0600 
    147 H147       -0.7818  -22.4843  -42.5795 H         1 UNK         0.0600 
    148 H148       -0.5038  -20.8024  -43.0095 H         1 UNK         0.0600 
    149 H149       -2.3652  -19.7380  -44.2676 H         1 UNK         0.3000 
    150 H150       -4.4874  -19.2127  -47.0963 H         1 UNK         0.0600 
    151 H151       -6.0051  -19.4559  -45.1259 H         1 UNK         0.0600 
    152 H152       -5.6368  -17.7686  -45.4449 H         1 UNK         0.0600 
    153 H153       -4.8452  -18.6075  -44.1106 H         1 UNK         0.0600 
    154 H154       -3.0743  -17.4131  -45.3826 H         1 UNK         0.3000 
    155 H155       -0.0072  -17.3818  -47.1907 H         1 UNK         0.0600 
    156 H156       -0.5308  -14.9925  -47.4498 H         1 UNK         0.0600 
    157 H157       -2.2177  -15.2636  -47.0101 H         1 UNK         0.0600 
    158 H158       -1.5825  -15.9113  -48.5132 H         1 UNK         0.0600 
    159 H159       -0.8475  -15.7643  -45.0472 H         1 UNK         0.3000 
    160 H160       -0.7620  -17.6211  -42.3927 H         1 UNK         0.0600 
    161 H161        2.1348  -16.7623  -42.8762 H         1 UNK         0.0600 
    162 H162        1.6137  -18.4020  -42.5249 H         1 UNK         0.0600 
    163 H163        1.3857  -17.1367  -41.3315 H         1 UNK         0.0600 
    164 H164       -1.1687  -15.4828  -42.1311 H         1 UNK         0.3000 
    165 H165        0.1004  -12.4250  -43.4460 H         1 UNK         0.0600 
    166 H166       -2.4228  -13.7572  -42.2934 H         1 UNK         0.0600 
    167 H167       -2.2345  -12.0706  -42.7533 H         1 UNK         0.0600 
    168 H168       -2.2107  -13.3185  -43.9869 H         1 UNK         0.0600 
    169 H169        0.3585  -13.8407  -40.9606 H         1 UNK         0.3000 
    170 H170        0.3701  -11.1385  -38.8490 H         1 UNK         0.0600 
    171 H171       -0.0418  -13.6255  -38.6783 H         1 UNK         0.0600 
    172 H172        1.5702  -13.9334  -39.3325 H         1 UNK         0.0600 
    173 H173        1.3806  -13.1287  -37.7817 H         1 UNK         0.0600 
    174 H174        2.6898  -11.5453  -40.5845 H         1 UNK         0.3000 
    175 H175        4.4979   -9.0908  -38.9623 H         1 UNK         0.0600 
    176 H176        5.4054  -12.0144  -38.7531 H         1 UNK         0.0600 
    177 H177        6.4623  -10.6015  -38.7413 H         1 UNK         0.0600 
    178 H178        5.3368  -10.8679  -37.4204 H         1 UNK         0.0600 
    179 H179        5.2309  -11.0115  -40.9814 H         1 UNK         0.3000 
    180 H180        3.4565   -9.7308  -43.6581 H         1 UNK         0.0600 
    181 H181        5.0835   -7.8361  -43.5927 H         1 UNK         0.0600 
    182 H182        5.5875   -9.0614  -44.7444 H         1 UNK         0.0600 
    183 H183        6.3819   -8.9467  -43.1731 H         1 UNK         0.0600 
    184 H184        5.8304  -11.3132  -43.5782 H         1 UNK         0.3000 
    185 H185        5.7750  -13.4645  -43.8577 H         1 UNK         0.0600 
    186 H186        5.7472  -13.7199  -41.3649 H         1 UNK         0.0600 
    187 H187        4.2119  -14.5769  -41.4571 H         1 UNK         0.0600 
    188 H188        5.6658  -15.2872  -42.1549 H         1 UNK         0.0600 
    189 H189        2.9841  -14.4186  -44.0386 H         1 UNK         0.3000 
    190 H190       -1.4956  -20.6948  -48.1958 H         1 UNK         0.3000 
    191 H191       -1.5189  -22.0976  -50.6418 H         1 UNK         0.0600 
    192 H192       -3.8715  -21.2645  -50.8060 H         1 UNK         0.0600 
    193 H193       -2.7668  -20.0074  -50.2980 H         1 UNK         0.0600 
    194 H194       -3.8214  -20.7769  -49.1148 H         1 UNK         0.0600 
    195 H195       -3.0752  -22.9192  -47.5016 H         1 UNK         0.3000 
    196 H196       -4.4922  -25.2010  -48.4297 H         1 UNK         0.0600 
    197 H197       -4.6212  -25.7913  -46.0103 H         1 UNK         0.0600 
    198 H198       -5.0072  -24.0991  -46.2815 H         1 UNK         0.0600 
    199 H199       -3.4331  -24.5513  -45.6311 H         1 UNK         0.0600 
    200 H200       -1.1931  -24.8832  -47.0480 H         1 UNK         0.3000 
    201 H201       -0.5058  -27.6467  -47.1621 H         1 UNK         0.0600 
    202 H202        0.7156  -26.0022  -45.7674 H         1 UNK         0.0600 
    203 H203        1.2756  -25.1520  -47.2048 H         1 UNK         0.0600 
    204 H204        1.8235  -26.7923  -46.8800 H         1 UNK         0.0600 
    205 H205       -0.1114  -24.9952  -49.5291 H         1 UNK         0.3000 
    206 H206        1.2485  -26.5669  -51.5220 H         1 UNK         0.0600 
    207 H207        1.4502  -24.0868  -51.3341 H         1 UNK         0.0600 
    208 H208        0.8604  -24.5429  -52.9247 H         1 UNK         0.0600 
    209 H209       -0.2582  -23.9038  -51.7276 H         1 UNK         0.0600 
    210 H210       -2.0369  -26.4565  -50.5994 H         1 UNK         0.3000 
    211 H211       -3.9722  -27.1899  -51.3379 H         1 UNK         0.0600 
    212 H212       -2.5398  -28.6975  -53.5864 H         1 UNK         0.0600 
    213 H213       -4.1638  -28.9919  -52.9858 H         1 UNK         0.0600 
    214 H214       -2.7818  -29.3145  -51.9519 H         1 UNK         0.0600 
    215 H215       -2.8812  -24.6897  -52.1774 H         1 UNK         0.3000 
    216 H216       -4.0852  -24.0832  -54.8289 H         1 UNK         0.0600 
    217 H217       -2.8669  -21.9483  -54.5725 H         1 UNK         0.0600 
    218 H218       -1.7567  -23.2763  -54.2942 H         1 UNK         0.0600 
    219 H219       -2.3937  -22.3624  -52.9295 H         1 UNK         0.0600 
    220 H220       -4.8088  -23.9883  -51.4594 H         1 UNK         0.3000 
    221 H221       -6.4098  -21.6907  -51.2035 H         1 UNK         0.0600 
    222 H222       -6.4943  -24.3699  -49.7254 H         1 UNK         0.0600 
    223 H223       -5.6386  -22.9032  -49.2397 H         1 UNK         0.0600 
    224 H224       -7.3867  -22.9400  -49.2218 H         1 UNK         0.0600 
    225 H225       -7.2076  -24.7839  -52.6602 H         1 UNK         0.3000 
    226 H226      -10.0440  -24.5842  -52.7326 H         1 UNK         0.0600 
    227 H227       -8.8058  -26.6916  -53.1674 H         1 UNK         0.0600 
    228 H228       -9.8139  -26.2943  -54.5492 H         1 UNK         0.0600 
    229 H229       -8.0802  -25.9996  -54.6187 H         1 UNK         0.0600 
    230 H230       -7.5778  -22.9234  -54.5723 H         1 UNK         0.3000 
    231 H231       -9.5944  -21.7364  -56.4345 H         1 UNK         0.0600 
    232 H232       -7.6094  -21.2426  -57.8668 H         1 UNK         0.0600 
    233 H233       -7.7726  -22.9665  -57.5840 H         1 UNK         0.0600 
    234 H234       -6.5575  -22.0456  -56.7052 H         1 UNK         0.0600 
    235 H235       -8.6103  -21.1274  -53.4866 H         1 UNK         0.3000 
    236 H236       -8.2412  -19.4312  -52.1309 H         1 UNK         0.0600 
    237 H237      -10.3214  -18.5275  -53.1612 H         1 UNK         0.0600 
    238 H238       -9.2459  -17.2373  -52.6488 H         1 UNK         0.0600 
    239 H239       -9.3673  -17.6469  -54.3535 H         1 UNK         0.0600 
    240 H240       -6.0003  -20.3114  -53.1020 H         1 UNK         0.3000 
    241 H241       -3.8357  -19.9327  -53.2159 H         1 UNK         0.0600 
    242 H242       -5.1257  -20.9014  -55.2998 H         1 UNK         0.3800 
    243 H243       -4.5448  -20.2041  -56.7982 H         1 UNK         0.3800 
    244 H244       -4.0386  -16.8972  -53.4055 H         1 UNK         0.0800 
    245 H245       -4.1825  -17.7335  -51.8828 H         1 UNK         0.0800 
    246 H246       -2.2642  -17.8230  -50.3513 H         1 UNK         0.0800 
    247 H247       -1.9495  -16.2459  -51.0312 H         1 UNK         0.0800 
@<TRIPOS>BOND
     1    1    2 1    
     2    1  127 1    
     3    1  128 1    
     4    1  129 1    
     5    2    3 2    
     6    2    4 am   BACKBONE|DICT|INTERRES
     7    4    5 1    
     8    4  130 1    
     9    5    6 1    
    10    5   65 1    
    11    5  131 1    
    12    6    7 1    
    13    6  132 1    
    14    6  133 1    
    15    7    8 1    
    16    8    9 1    
    17    8  134 1    
    18    8  135 1    
    19    9   10 ar   
    20    9   14 ar   
    21   10   11 ar   
    22   10  136 1    
    23   11   12 ar   
    24   11  126 1    
    25   12   13 ar   
    26   12  137 1    
    27   13   14 ar   
    28   13   15 1    
    29   14  138 1    
    30   15   16 1    
    31   15  139 1    
    32   15  140 1    
    33   16   17 1    
    34   17   18 1    
    35   17  141 1    
    36   17  142 1    
    37   18   19 1    
    38   18   67 1    
    39   18  143 1    
    40   19   20 am   BACKBONE|DICT|INTERRES
    41   19  144 1    
    42   20   21 2    
    43   20   22 1    
    44   22   23 1    
    45   22   24 1    
    46   22  145 1    
    47   23  146 1    
    48   23  147 1    
    49   23  148 1    
    50   24   25 am   BACKBONE|DICT|INTERRES
    51   24  149 1    
    52   25   26 2    
    53   25   27 1    
    54   27   28 1    
    55   27   29 1    
    56   27  150 1    
    57   28  151 1    
    58   28  152 1    
    59   28  153 1    
    60   29   30 am   BACKBONE|DICT|INTERRES
    61   29  154 1    
    62   30   31 2    
    63   30   32 1    
    64   32   33 1    
    65   32   34 1    
    66   32  155 1    
    67   33  156 1    
    68   33  157 1    
    69   33  158 1    
    70   34   35 am   BACKBONE|DICT|INTERRES
    71   34  159 1    
    72   35   36 2    
    73   35   37 1    
    74   37   38 1    
    75   37   39 1    
    76   37  160 1    
    77   38  161 1    
    78   38  162 1    
    79   38  163 1    
    80   39   40 am   BACKBONE|DICT|INTERRES
    81   39  164 1    
    82   40   41 2    
    83   40   42 1    
    84   42   43 1    
    85   42   44 1    
    86   42  165 1    
    87   43  166 1    
    88   43  167 1    
    89   43  168 1    
    90   44   45 am   BACKBONE|DICT|INTERRES
    91   44  169 1    
    92   45   46 2    
    93   45   47 1    
    94   47   48 1    
    95   47   49 1    
    96   47  170 1    
    97   48  171 1    
    98   48  172 1    
    99   48  173 1    
   100   49   50 am   BACKBONE|DICT|INTERRES
   101   49  174 1    
   102   50   51 2    
   103   50   52 1    
   104   52   53 1    
   105   52   54 1    
   106   52  175 1    
   107   53  176 1    
   108   53  177 1    
   109   53  178 1    
   110   54   55 am   BACKBONE|DICT|INTERRES
   111   54  179 1    
   112   55   56 2    
   113   55   57 1    
   114   57   58 1    
   115   57   59 1    
   116   57  180 1    
   117   58  181 1    
   118   58  182 1    
   119   58  183 1    
   120   59   60 am   BACKBONE|DICT|INTERRES
   121   59  184 1    
   122   60   61 2    
   123   60   62 1    
   124   62   63 1    
   125   62   64 1    
   126   62  185 1    
   127   63  186 1    
   128   63  187 1    
   129   63  188 1    
   130   64   65 am   BACKBONE|DICT|INTERRES
   131   64  189 1    
   132   65   66 2    
   133   67   68 2    
   134   67   69 am   BACKBONE|DICT|INTERRES
   135   69   70 1    
   136   69  190 1    
   137   70   71 1    
   138   70   72 1    
   139   70  191 1    
   140   71  192 1    
   141   71  193 1    
   142   71  194 1    
   143   72   73 2    
   144   72   74 am   BACKBONE|DICT|INTERRES
   145   74   75 1    
   146   74  195 1    
   147   75   76 1    
   148   75   77 1    
   149   75  196 1    
   150   76  197 1    
   151   76  198 1    
   152   76  199 1    
   153   77   78 2    
   154   77   79 am   BACKBONE|DICT|INTERRES
   155   79   80 1    
   156   79  200 1    
   157   80   81 1    
   158   80   82 1    
   159   80  201 1    
   160   81  202 1    
   161   81  203 1    
   162   81  204 1    
   163   82   83 2    
   164   82   84 am   BACKBONE|DICT|INTERRES
   165   84   85 1    
   166   84  205 1    
   167   85   86 1    
   168   85   87 1    
   169   85  206 1    
   170   86  207 1    
   171   86  208 1    
   172   86  209 1    
   173   87   88 2    
   174   87   89 am   BACKBONE|DICT|INTERRES
   175   89   90 1    
   176   89  210 1    
   177   90   91 1    
   178   90   92 1    
   179   90  211 1    
   180   91  212 1    
   181   91  213 1    
   182   91  214 1    
   183   92   93 2    
   184   92   94 am   BACKBONE|DICT|INTERRES
   185   94   95 1    
   186   94  215 1    
   187   95   96 1    
   188   95   97 1    
   189   95  216 1    
   190   96  217 1    
   191   96  218 1    
   192   96  219 1    
   193   97   98 2    
   194   97   99 am   BACKBONE|DICT|INTERRES
   195   99  100 1    
   196   99  220 1    
   197  100  101 1    
   198  100  102 1    
   199  100  221 1    
   200  101  222 1    
   201  101  223 1    
   202  101  224 1    
   203  102  103 2    
   204  102  104 am   BACKBONE|DICT|INTERRES
   205  104  105 1    
   206  104  225 1    
   207  105  106 1    
   208  105  107 1    
   209  105  226 1    
   210  106  227 1    
   211  106  228 1    
   212  106  229 1    
   213  107  108 2    
   214  107  109 am   BACKBONE|DICT|INTERRES
   215  109  110 1    
   216  109  230 1    
   217  110  111 1    
   218  110  112 1    
   219  110  231 1    
   220  111  232 1    
   221  111  233 1    
   222  111  234 1    
   223  112  113 2    
   224  112  114 am   BACKBONE|DICT|INTERRES
   225  114  115 1    
   226  114  235 1    
   227  115  116 1    
   228  115  117 1    
   229  115  236 1    
   230  116  237 1    
   231  116  238 1    
   232  116  239 1    
   233  117  118 2    
   234  117  119 am   BACKBONE|DICT|INTERRES
   235  119  120 1    
   236  119  240 1    
   237  120  121 1    
   238  120  124 1    
   239  120  241 1    
   240  121  122 am   BACKBONE|DICT|INTERRES
   241  121  123 2    
   242  122  242 1    
   243  122  243 1    
   244  124  125 1    
   245  124  244 1    
   246  124  245 1    
   247  125  126 1    
   248  126  246 1    
   249  126  247 1    
@<TRIPOS>SUBSTRUCTURE
     1 UNK         1 GROUP             0       ****    0 ROOT    
