@<TRIPOS>MOLECULE
3R540
247   249    1
SMALL
USER_CHARGES


@<TRIPOS>ATOM
      1 CA          3.8708   -8.6010  -49.0229 C.3       0 UNK        -0.1800 
      2 C           3.3820   -9.8136  -48.2448 C.2       0 UNK         0.5000 
      3 O           3.8384  -10.0481  -47.1263 O.2       0 UNK        -0.5000 
      4 N           2.4406  -10.5755  -48.8195 N.am      1 UNK        -0.5000 
      5 CA          1.8664  -11.7995  -48.2404 C.3       1 UNK         0.1400 
      6 C6          0.9606  -12.5318  -49.2613 C.3       23 UNK        -0.0398 
      7 S7          0.7572  -14.3050  -48.8888 S.3       23 UNK        -0.2404 
      8 C8         -0.3427  -14.7988  -50.2479 C.3       23 UNK        -0.0205 
      9 C9         -0.9032  -16.1921  -50.0168 C.ar      23 UNK        -0.0193 
     10 C10        -2.1015  -16.3543  -49.3210 C.ar      23 UNK        -0.1150 
     11 C11        -2.6265  -17.6292  -49.1017 C.ar      23 UNK        -0.0193 
     12 C12        -1.9477  -18.7489  -49.5925 C.ar      23 UNK        -0.1150 
     13 C13        -0.7315  -18.6059  -50.2771 C.ar      23 UNK        -0.0193 
     14 C14        -0.2253  -17.3187  -50.4890 C.ar      23 UNK        -0.1150 
     15 C15         0.0772  -19.7900  -50.8173 C.3       23 UNK        -0.0205 
     16 S16        -0.3683  -21.4478  -50.1938 S.3       23 UNK        -0.2404 
     17 C17         0.0208  -21.3030  -48.4162 C.3       23 UNK        -0.0398 
     18 CA         -0.4091  -22.5237  -47.5653 C.3       11 UNK         0.1400 
     19 N          -0.0298  -22.3469  -46.1633 N.am      11 UNK        -0.5000 
     20 C          -0.1126  -23.2838  -45.2098 C.2       10 UNK         0.5000 
     21 O          -0.4744  -24.4410  -45.4167 O.2       10 UNK        -0.5000 
     22 CA          0.2126  -22.8398  -43.7725 C.3       10 UNK         0.1400 
     23 CB          1.7300  -22.8027  -43.5409 C.3       10 UNK        -0.1800 
     24 N          -0.3754  -21.5401  -43.4421 N.am      10 UNK        -0.5000 
     25 C          -1.6944  -21.2985  -43.4079 C.2       9 UNK         0.5000 
     26 O          -2.5506  -22.1624  -43.5978 O.2       9 UNK        -0.5000 
     27 CA         -2.1336  -19.8427  -43.1688 C.3       9 UNK         0.1400 
     28 CB         -2.0626  -19.4889  -41.6761 C.3       9 UNK        -0.1800 
     29 N          -1.3531  -18.8779  -43.9451 N.am      9 UNK        -0.5000 
     30 C          -1.3158  -18.8314  -45.2850 C.2       8 UNK         0.5000 
     31 O          -1.9661  -19.5834  -46.0095 O.2       8 UNK        -0.5000 
     32 CA         -0.3419  -17.8207  -45.9202 C.3       8 UNK         0.1400 
     33 CB         -0.9073  -16.3943  -45.8591 C.3       8 UNK        -0.1800 
     34 N           0.9769  -17.8578  -45.2867 N.am      8 UNK        -0.5000 
     35 C           1.7809  -18.9307  -45.2686 C.2       7 UNK         0.5000 
     36 O           1.5306  -19.9839  -45.8523 O.2       7 UNK        -0.5000 
     37 CA          3.0488  -18.8339  -44.4059 C.3       7 UNK         0.1400 
     38 CB          4.1934  -18.1631  -45.1797 C.3       7 UNK        -0.1800 
     39 N           2.7948  -18.1143  -43.1578 N.am      7 UNK        -0.5000 
     40 C           2.0906  -18.6147  -42.1324 C.2       6 UNK         0.5000 
     41 O           1.6169  -19.7509  -42.1213 O.2       6 UNK        -0.5000 
     42 CA          1.8419  -17.6772  -40.9355 C.3       6 UNK         0.1400 
     43 CB          3.0390  -17.6978  -39.9737 C.3       6 UNK        -0.1800 
     44 N           1.5715  -16.2980  -41.3446 N.am      6 UNK        -0.5000 
     45 C           0.4760  -15.9108  -42.0127 C.2       5 UNK         0.5000 
     46 O          -0.4450  -16.6715  -42.3064 O.2       5 UNK        -0.5000 
     47 CA          0.4178  -14.4409  -42.4720 C.3       5 UNK         0.1400 
     48 CB         -0.2446  -13.5650  -41.3989 C.3       5 UNK        -0.1800 
     49 N           1.7181  -13.8652  -42.8267 N.am      5 UNK        -0.5000 
     50 C           2.5548  -14.3451  -43.7584 C.2       4 UNK         0.5000 
     51 O           2.3576  -15.3975  -44.3674 O.2       4 UNK        -0.5000 
     52 CA          3.8090  -13.5014  -44.0500 C.3       4 UNK         0.1400 
     53 CB          4.4844  -13.8894  -45.3776 C.3       4 UNK        -0.1800 
     54 N           3.4468  -12.0875  -44.1054 N.am      4 UNK        -0.5000 
     55 C           3.8480  -11.1321  -43.2575 C.2       3 UNK         0.5000 
     56 O           4.5922  -11.3428  -42.2994 O.2       3 UNK        -0.5000 
     57 CA          3.3294   -9.7009  -43.5077 C.3       3 UNK         0.1400 
     58 CB          4.4744   -8.7793  -43.9573 C.3       3 UNK        -0.1800 
     59 N           2.2625   -9.6579  -44.5107 N.am      3 UNK        -0.5000 
     60 C           0.9624   -9.8525  -44.2444 C.2       2 UNK         0.5000 
     61 O           0.5198  -10.0245  -43.1085 O.2       2 UNK        -0.5000 
     62 CA         -0.0073   -9.8884  -45.4450 C.3       2 UNK         0.1400 
     63 CB         -0.6358   -8.5047  -45.6685 C.3       2 UNK        -0.1800 
     64 N           0.6136  -10.3370  -46.6946 N.am      2 UNK        -0.5000 
     65 C           1.1404  -11.5542  -46.8958 C.2       1 UNK         0.5000 
     66 O           1.1242  -12.4400  -46.0429 O.2       1 UNK        -0.5000 
     67 C          -1.9089  -22.8681  -47.7073 C.2       11 UNK         0.5000 
     68 O          -2.2440  -23.8188  -48.4148 O.2       11 UNK        -0.5000 
     69 N          -2.7858  -22.1334  -47.0092 N.am      12 UNK        -0.5000 
     70 CA         -4.2251  -22.4021  -46.9619 C.3       12 UNK         0.1400 
     71 CB         -4.9400  -21.3038  -46.1615 C.3       12 UNK        -0.1800 
     72 C          -4.5604  -23.7919  -46.3888 C.2       12 UNK         0.5000 
     73 O          -5.4121  -24.4859  -46.9440 O.2       12 UNK        -0.5000 
     74 N          -3.8776  -24.1702  -45.3013 N.am      13 UNK        -0.5000 
     75 CA         -4.0722  -25.4354  -44.6008 C.3       13 UNK         0.1400 
     76 CB         -3.4526  -25.3397  -43.1968 C.3       13 UNK        -0.1800 
     77 C          -3.5143  -26.6492  -45.3655 C.2       13 UNK         0.5000 
     78 O          -4.2601  -27.5933  -45.6289 O.2       13 UNK        -0.5000 
     79 N          -2.2093  -26.6288  -45.6653 N.am      14 UNK        -0.5000 
     80 CA         -1.4669  -27.7988  -46.1355 C.3       14 UNK         0.1400 
     81 CB         -0.0323  -27.7417  -45.5867 C.3       14 UNK        -0.1800 
     82 C          -1.4444  -27.9272  -47.6649 C.2       14 UNK         0.5000 
     83 O          -1.5367  -29.0452  -48.1733 O.2       14 UNK        -0.5000 
     84 N          -1.3080  -26.7979  -48.3720 N.am      15 UNK        -0.5000 
     85 CA         -1.1774  -26.7604  -49.8324 C.3       15 UNK         0.1400 
     86 CB         -0.1204  -25.7103  -50.2194 C.3       15 UNK        -0.1800 
     87 C          -2.5155  -26.4873  -50.5433 C.2       15 UNK         0.5000 
     88 O          -2.5352  -26.4465  -51.7735 O.2       15 UNK        -0.5000 
     89 N          -3.5940  -26.2767  -49.7717 N.am      16 UNK        -0.5000 
     90 CA         -4.9453  -25.9140  -50.2153 C.3       16 UNK         0.1400 
     91 CB         -5.5991  -27.0799  -50.9862 C.3       16 UNK        -0.1800 
     92 C          -4.9596  -24.5862  -51.0014 C.2       16 UNK         0.5000 
     93 O          -5.5799  -24.4966  -52.0628 O.2       16 UNK        -0.5000 
     94 N          -4.2134  -23.5958  -50.4874 N.am      17 UNK        -0.5000 
     95 CA         -3.9465  -22.2852  -51.0922 C.3       17 UNK         0.1400 
     96 CB         -5.2258  -21.4304  -51.1456 C.3       17 UNK        -0.1800 
     97 C          -3.2408  -22.4206  -52.4578 C.2       17 UNK         0.5000 
     98 O          -3.6011  -21.7454  -53.4250 O.2       17 UNK        -0.5000 
     99 N          -2.2980  -23.3746  -52.5166 N.am      18 UNK        -0.5000 
    100 CA        -1.5168  -23.8196  -53.6772 C.3       18 UNK         0.1400 
    101 CB        -0.5597  -22.6978  -54.1294 C.3       18 UNK        -0.1800 
    102 C         -2.3700  -24.3628  -54.8468 C.2       18 UNK         0.5000 
    103 O         -1.8600  -24.4796  -55.9618 O.2       18 UNK        -0.5000 
    104 N         -3.6595  -24.6376  -54.5871 N.am      19 UNK        -0.5000 
    105 CA        -4.7334  -24.9094  -55.5497 C.3       19 UNK         0.1400 
    106 CB        -4.4963  -26.2497  -56.2751 C.3       19 UNK        -0.1800 
    107 C         -4.9974  -23.7380  -56.5280 C.2       19 UNK         0.5000 
    108 O         -5.6245  -23.9442  -57.5684 O.2       19 UNK        -0.5000 
    109 N         -4.5184  -22.5348  -56.1819 N.am      20 UNK        -0.5000 
    110 CA        -4.5687  -21.3244  -57.0033 C.3       20 UNK         0.1400 
    111 CB        -3.1280  -20.8273  -57.2077 C.3       20 UNK        -0.1800 
    112 C         -5.4264  -20.2169  -56.3645 C.2       20 UNK         0.5000 
    113 O         -5.7585  -19.2533  -57.0563 O.2       20 UNK        -0.5000 
    114 N         -5.7622  -20.3801  -55.0756 N.am      21 UNK        -0.5000 
    115 CA        -6.4216  -19.4372  -54.1670 C.3       21 UNK         0.1400 
    116 CB        -7.7186  -18.8471  -54.7575 C.3       21 UNK        -0.1800 
    117 C         -5.4617  -18.3398  -53.6674 C.2       21 UNK         0.5000 
    118 O         -4.4710  -18.0113  -54.3245 O.2       21 UNK        -0.5000 
    119 N         -5.7732  -17.8129  -52.4796 N.am      22 UNK        -0.5000 
    120 CA        -4.9940  -16.7872  -51.7729 C.3       22 UNK         0.1400 
    121 C         -4.9903  -15.4199  -52.5096 C.2       22 UNK         0.5000 
    122 N         -3.8479  -14.7505  -52.5827 N.am      22 UNK        -0.7600 
    123 O         -6.0229  -14.9421  -52.9745 O.2       22 UNK        -0.5000 
    124 C124       -5.4980  -16.6149  -50.3186 C.3       23 UNK        -0.0398 
    125 S125       -5.3488  -18.1562  -49.3502 S.3       23 UNK        -0.2404 
    126 C126       -3.9086  -17.7948  -48.3009 C.3       23 UNK        -0.0205 
    127 H127        3.6826   -7.6904  -48.4542 H         1 UNK         0.0600 
    128 H128        3.3718   -8.5096  -49.9879 H         1 UNK         0.0600 
    129 H129        4.9435   -8.6779  -49.2000 H         1 UNK         0.0600 
    130 H130        2.1003  -10.3211  -49.7362 H         1 UNK         0.3000 
    131 H131        2.7160  -12.4499  -48.0212 H         1 UNK         0.0600 
    132 H132       -0.0192  -12.0555  -49.3307 H         1 UNK         0.0800 
    133 H133        1.3990  -12.4690  -50.2585 H         1 UNK         0.0800 
    134 H134       -1.1606  -14.0819  -50.3360 H         1 UNK         0.0800 
    135 H135        0.2051  -14.7620  -51.1908 H         1 UNK         0.0800 
    136 H136       -2.6176  -15.4853  -48.9375 H         1 UNK         0.1150 
    137 H137       -2.3702  -19.7268  -49.4172 H         1 UNK         0.1150 
    138 H138        0.7081  -17.1912  -51.0195 H         1 UNK         0.1150 
    139 H139       -0.0258  -19.8023  -51.9031 H         1 UNK         0.0800 
    140 H140        1.1361  -19.6267  -50.6110 H         1 UNK         0.0800 
    141 H141       -0.4340  -20.3957  -48.0215 H         1 UNK         0.0800 
    142 H142        1.0980  -21.1575  -48.3252 H         1 UNK         0.0800 
    143 H143        0.1482  -23.3879  -47.9323 H         1 UNK         0.0600 
    144 H144        0.3302  -21.4296  -45.9115 H         1 UNK         0.3000 
    145 H145       -0.2146  -23.5800  -43.0930 H         1 UNK         0.0600 
    146 H146        1.9644  -22.5566  -42.5052 H         1 UNK         0.0600 
    147 H147        2.1808  -23.7725  -43.7552 H         1 UNK         0.0600 
    148 H148        2.2181  -22.0657  -44.1784 H         1 UNK         0.0600 
    149 H149        0.2700  -20.7880  -43.2239 H         1 UNK         0.3000 
    150 H150       -3.1744  -19.7563  -43.4871 H         1 UNK         0.0600 
    151 H151       -2.6469  -20.1906  -41.0797 H         1 UNK         0.0600 
    152 H152       -2.4618  -18.4920  -41.4888 H         1 UNK         0.0600 
    153 H153       -1.0382  -19.5136  -41.3038 H         1 UNK         0.0600 
    154 H154       -0.8275  -18.1888  -43.4143 H         1 UNK         0.3000 
    155 H155       -0.2145  -18.0890  -46.9711 H         1 UNK         0.0600 
    156 H156       -1.8563  -16.3294  -46.3909 H         1 UNK         0.0600 
    157 H157       -0.2255  -15.6785  -46.3186 H         1 UNK         0.0600 
    158 H158       -1.0884  -16.0732  -44.8347 H         1 UNK         0.0600 
    159 H159        1.2925  -17.0117  -44.8222 H         1 UNK         0.3000 
    160 H160        3.3645  -19.8490  -44.1561 H         1 UNK         0.0600 
    161 H161        3.9239  -17.1636  -45.5198 H         1 UNK         0.0600 
    162 H162        4.4542  -18.7460  -46.0639 H         1 UNK         0.0600 
    163 H163        5.0914  -18.0808  -44.5675 H         1 UNK         0.0600 
    164 H164        3.0688  -17.1419  -43.1354 H         1 UNK         0.3000 
    165 H165        0.9671  -18.0498  -40.3982 H         1 UNK         0.0600 
    166 H166        2.8410  -17.0984  -39.0850 H         1 UNK         0.0600 
    167 H167        3.2518  -18.7138  -39.6383 H         1 UNK         0.0600 
    168 H168        3.9434  -17.3115  -40.4454 H         1 UNK         0.0600 
    169 H169        2.2816  -15.6097  -41.1431 H         1 UNK         0.3000 
    170 H170       -0.2030  -14.4034  -43.3688 H         1 UNK         0.0600 
    171 H171       -1.2292  -13.9515  -41.1319 H         1 UNK         0.0600 
    172 H172        0.3520  -13.5254  -40.4868 H         1 UNK         0.0600 
    173 H173       -0.3836  -12.5435  -41.7545 H         1 UNK         0.0600 
    174 H174        1.9560  -12.9899  -42.3841 H         1 UNK         0.3000 
    175 H175        4.5168  -13.6886  -43.2405 H         1 UNK         0.0600 
    176 H176        3.7915  -13.8157  -46.2167 H         1 UNK         0.0600 
    177 H177        5.3370  -13.2442  -45.5899 H         1 UNK         0.0600 
    178 H178        4.8547  -14.9142  -45.3439 H         1 UNK         0.0600 
    179 H179        2.7736  -11.8469  -44.8232 H         1 UNK         0.3000 
    180 H180        2.9476   -9.3205  -42.5579 H         1 UNK         0.0600 
    181 H181        4.9402   -9.1319  -44.8777 H         1 UNK         0.0600 
    182 H182        5.2545   -8.7272  -43.1967 H         1 UNK         0.0600 
    183 H183        4.1199   -7.7627  -44.1278 H         1 UNK         0.0600 
    184 H184        2.5636   -9.5707  -45.4748 H         1 UNK         0.3000 
    185 H185       -0.8055  -10.5917  -45.1985 H         1 UNK         0.0600 
    186 H186       -1.1316   -8.1500  -44.7639 H         1 UNK         0.0600 
    187 H187        0.1141   -7.7622  -45.9446 H         1 UNK         0.0600 
    188 H188       -1.3868   -8.5347  -46.4581 H         1 UNK         0.0600 
    189 H189        0.6853   -9.6556  -47.4361 H         1 UNK         0.3000 
    190 H190       -2.4501  -21.3319  -46.4794 H         1 UNK         0.3000 
    191 H191       -4.6041  -22.3662  -47.9843 H         1 UNK         0.0600 
    192 H192       -4.8290  -20.3327  -46.6384 H         1 UNK         0.0600 
    193 H193       -6.0097  -21.5049  -46.0904 H         1 UNK         0.0600 
    194 H194       -4.5526  -21.2244  -45.1460 H         1 UNK         0.0600 
    195 H195       -3.2236  -23.5145  -44.8840 H         1 UNK         0.3000 
    196 H196       -5.1461  -25.5905  -44.4763 H         1 UNK         0.0600 
    197 H197       -3.5767  -26.2742  -42.6483 H         1 UNK         0.0600 
    198 H198       -3.9289  -24.5532  -42.6111 H         1 UNK         0.0600 
    199 H199       -2.3850  -25.1207  -43.2387 H         1 UNK         0.0600 
    200 H200       -1.6590  -25.7949  -45.4643 H         1 UNK         0.3000 
    201 H201       -1.9313  -28.7028  -45.7350 H         1 UNK         0.0600 
    202 H202       -0.0283  -27.6792  -44.4984 H         1 UNK         0.0600 
    203 H203        0.5161  -26.8820  -45.9734 H         1 UNK         0.0600 
    204 H204        0.5266  -28.6365  -45.8634 H         1 UNK         0.0600 
    205 H205       -1.2874  -25.9080  -47.8909 H         1 UNK         0.3000 
    206 H206       -0.8194  -27.7256  -50.1963 H         1 UNK         0.0600 
    207 H207        0.8155  -25.8767  -49.6859 H         1 UNK         0.0600 
    208 H208        0.1048  -25.7611  -51.2851 H         1 UNK         0.0600 
    209 H209       -0.4495  -24.6942  -50.0086 H         1 UNK         0.0600 
    210 H210       -3.4521  -26.2965  -48.7718 H         1 UNK         0.3000 
    211 H211       -5.5350  -25.7445  -49.3142 H         1 UNK         0.0600 
    212 H212       -5.0959  -27.2752  -51.9338 H         1 UNK         0.0600 
    213 H213       -6.6434  -26.8607  -51.2113 H         1 UNK         0.0600 
    214 H214       -5.5798  -27.9989  -50.4005 H         1 UNK         0.0600 
    215 H215       -3.6714  -23.8007  -49.6509 H         1 UNK         0.3000 
    216 H216       -3.2477  -21.7772  -50.4291 H         1 UNK         0.0600 
    217 H217       -4.9929  -20.4184  -51.4747 H         1 UNK         0.0600 
    218 H218       -5.6882  -21.3504  -50.1619 H         1 UNK         0.0600 
    219 H219       -5.9644  -21.8433  -51.8324 H         1 UNK         0.0600 
    220 H220       -2.1375  -23.9077  -51.6742 H         1 UNK         0.3000 
    221 H221       -0.9097  -24.6577  -53.3335 H         1 UNK         0.0600 
    222 H222       -1.1014  -21.8461  -54.5418 H         1 UNK         0.0600 
    223 H223        0.0458  -22.3381  -53.2973 H         1 UNK         0.0600 
    224 H224        0.1276  -23.0517  -54.8984 H         1 UNK         0.0600 
    225 H225       -3.9729  -24.5299  -53.6297 H         1 UNK         0.3000 
    226 H226       -5.6431  -25.0134  -54.9567 H         1 UNK         0.0600 
    227 H227       -4.3103  -27.0545  -55.5638 H         1 UNK         0.0600 
    228 H228       -5.3681  -26.5351  -56.8647 H         1 UNK         0.0600 
    229 H229       -3.6461  -26.1989  -56.9555 H         1 UNK         0.0600 
    230 H230       -4.0298  -22.4487  -55.2966 H         1 UNK         0.3000 
    231 H231       -4.9985  -21.5421  -57.9830 H         1 UNK         0.0600 
    232 H232       -2.6574  -20.5645  -56.2591 H         1 UNK         0.0600 
    233 H233       -3.1045  -19.9414  -57.8435 H         1 UNK         0.0600 
    234 H234       -2.5125  -21.5891  -57.6869 H         1 UNK         0.0600 
    235 H235       -5.3519  -21.1781  -54.6084 H         1 UNK         0.3000 
    236 H236       -6.7073  -20.0354  -53.3014 H         1 UNK         0.0600 
    237 H237       -8.3590  -19.6275  -55.1687 H         1 UNK         0.0600 
    238 H238       -8.2921  -18.3286  -53.9886 H         1 UNK         0.0600 
    239 H239       -7.5178  -18.1222  -55.5466 H         1 UNK         0.0600 
    240 H240       -6.6079  -18.1249  -52.0065 H         1 UNK         0.3000 
    241 H241       -3.9632  -17.1457  -51.7305 H         1 UNK         0.0600 
    242 H242       -3.8349  -13.8551  -53.0459 H         1 UNK         0.3800 
    243 H243       -2.9905  -15.1316  -52.2158 H         1 UNK         0.3800 
    244 H244       -4.9535  -15.8174  -49.8110 H         1 UNK         0.0800 
    245 H245       -6.5456  -16.3092  -50.3131 H         1 UNK         0.0800 
    246 H246       -3.7770  -18.6103  -47.5933 H         1 UNK         0.0800 
    247 H247       -4.1104  -16.9067  -47.7002 H         1 UNK         0.0800 
@<TRIPOS>BOND
     1    1    2 1    
     2    1  127 1    
     3    1  128 1    
     4    1  129 1    
     5    2    3 2    
     6    2    4 am   BACKBONE|DICT|INTERRES
     7    4    5 1    
     8    4  130 1    
     9    5    6 1    
    10    5   65 1    
    11    5  131 1    
    12    6    7 1    
    13    6  132 1    
    14    6  133 1    
    15    7    8 1    
    16    8    9 1    
    17    8  134 1    
    18    8  135 1    
    19    9   10 ar   
    20    9   14 ar   
    21   10   11 ar   
    22   10  136 1    
    23   11   12 ar   
    24   11  126 1    
    25   12   13 ar   
    26   12  137 1    
    27   13   14 ar   
    28   13   15 1    
    29   14  138 1    
    30   15   16 1    
    31   15  139 1    
    32   15  140 1    
    33   16   17 1    
    34   17   18 1    
    35   17  141 1    
    36   17  142 1    
    37   18   19 1    
    38   18   67 1    
    39   18  143 1    
    40   19   20 am   BACKBONE|DICT|INTERRES
    41   19  144 1    
    42   20   21 2    
    43   20   22 1    
    44   22   23 1    
    45   22   24 1    
    46   22  145 1    
    47   23  146 1    
    48   23  147 1    
    49   23  148 1    
    50   24   25 am   BACKBONE|DICT|INTERRES
    51   24  149 1    
    52   25   26 2    
    53   25   27 1    
    54   27   28 1    
    55   27   29 1    
    56   27  150 1    
    57   28  151 1    
    58   28  152 1    
    59   28  153 1    
    60   29   30 am   BACKBONE|DICT|INTERRES
    61   29  154 1    
    62   30   31 2    
    63   30   32 1    
    64   32   33 1    
    65   32   34 1    
    66   32  155 1    
    67   33  156 1    
    68   33  157 1    
    69   33  158 1    
    70   34   35 am   BACKBONE|DICT|INTERRES
    71   34  159 1    
    72   35   36 2    
    73   35   37 1    
    74   37   38 1    
    75   37   39 1    
    76   37  160 1    
    77   38  161 1    
    78   38  162 1    
    79   38  163 1    
    80   39   40 am   BACKBONE|DICT|INTERRES
    81   39  164 1    
    82   40   41 2    
    83   40   42 1    
    84   42   43 1    
    85   42   44 1    
    86   42  165 1    
    87   43  166 1    
    88   43  167 1    
    89   43  168 1    
    90   44   45 am   BACKBONE|DICT|INTERRES
    91   44  169 1    
    92   45   46 2    
    93   45   47 1    
    94   47   48 1    
    95   47   49 1    
    96   47  170 1    
    97   48  171 1    
    98   48  172 1    
    99   48  173 1    
   100   49   50 am   BACKBONE|DICT|INTERRES
   101   49  174 1    
   102   50   51 2    
   103   50   52 1    
   104   52   53 1    
   105   52   54 1    
   106   52  175 1    
   107   53  176 1    
   108   53  177 1    
   109   53  178 1    
   110   54   55 am   BACKBONE|DICT|INTERRES
   111   54  179 1    
   112   55   56 2    
   113   55   57 1    
   114   57   58 1    
   115   57   59 1    
   116   57  180 1    
   117   58  181 1    
   118   58  182 1    
   119   58  183 1    
   120   59   60 am   BACKBONE|DICT|INTERRES
   121   59  184 1    
   122   60   61 2    
   123   60   62 1    
   124   62   63 1    
   125   62   64 1    
   126   62  185 1    
   127   63  186 1    
   128   63  187 1    
   129   63  188 1    
   130   64   65 am   BACKBONE|DICT|INTERRES
   131   64  189 1    
   132   65   66 2    
   133   67   68 2    
   134   67   69 am   BACKBONE|DICT|INTERRES
   135   69   70 1    
   136   69  190 1    
   137   70   71 1    
   138   70   72 1    
   139   70  191 1    
   140   71  192 1    
   141   71  193 1    
   142   71  194 1    
   143   72   73 2    
   144   72   74 am   BACKBONE|DICT|INTERRES
   145   74   75 1    
   146   74  195 1    
   147   75   76 1    
   148   75   77 1    
   149   75  196 1    
   150   76  197 1    
   151   76  198 1    
   152   76  199 1    
   153   77   78 2    
   154   77   79 am   BACKBONE|DICT|INTERRES
   155   79   80 1    
   156   79  200 1    
   157   80   81 1    
   158   80   82 1    
   159   80  201 1    
   160   81  202 1    
   161   81  203 1    
   162   81  204 1    
   163   82   83 2    
   164   82   84 am   BACKBONE|DICT|INTERRES
   165   84   85 1    
   166   84  205 1    
   167   85   86 1    
   168   85   87 1    
   169   85  206 1    
   170   86  207 1    
   171   86  208 1    
   172   86  209 1    
   173   87   88 2    
   174   87   89 am   BACKBONE|DICT|INTERRES
   175   89   90 1    
   176   89  210 1    
   177   90   91 1    
   178   90   92 1    
   179   90  211 1    
   180   91  212 1    
   181   91  213 1    
   182   91  214 1    
   183   92   93 2    
   184   92   94 am   BACKBONE|DICT|INTERRES
   185   94   95 1    
   186   94  215 1    
   187   95   96 1    
   188   95   97 1    
   189   95  216 1    
   190   96  217 1    
   191   96  218 1    
   192   96  219 1    
   193   97   98 2    
   194   97   99 am   BACKBONE|DICT|INTERRES
   195   99  100 1    
   196   99  220 1    
   197  100  101 1    
   198  100  102 1    
   199  100  221 1    
   200  101  222 1    
   201  101  223 1    
   202  101  224 1    
   203  102  103 2    
   204  102  104 am   BACKBONE|DICT|INTERRES
   205  104  105 1    
   206  104  225 1    
   207  105  106 1    
   208  105  107 1    
   209  105  226 1    
   210  106  227 1    
   211  106  228 1    
   212  106  229 1    
   213  107  108 2    
   214  107  109 am   BACKBONE|DICT|INTERRES
   215  109  110 1    
   216  109  230 1    
   217  110  111 1    
   218  110  112 1    
   219  110  231 1    
   220  111  232 1    
   221  111  233 1    
   222  111  234 1    
   223  112  113 2    
   224  112  114 am   BACKBONE|DICT|INTERRES
   225  114  115 1    
   226  114  235 1    
   227  115  116 1    
   228  115  117 1    
   229  115  236 1    
   230  116  237 1    
   231  116  238 1    
   232  116  239 1    
   233  117  118 2    
   234  117  119 am   BACKBONE|DICT|INTERRES
   235  119  120 1    
   236  119  240 1    
   237  120  121 1    
   238  120  124 1    
   239  120  241 1    
   240  121  122 am   BACKBONE|DICT|INTERRES
   241  121  123 2    
   242  122  242 1    
   243  122  243 1    
   244  124  125 1    
   245  124  244 1    
   246  124  245 1    
   247  125  126 1    
   248  126  246 1    
   249  126  247 1    
@<TRIPOS>SUBSTRUCTURE
     1 UNK         1 GROUP             0       ****    0 ROOT    
