@<TRIPOS>MOLECULE
3R540
247   249    1
SMALL
USER_CHARGES


@<TRIPOS>ATOM
      1 CA          8.1452  -12.6852  -52.3029 C.3       0 UNK        -0.1800 
      2 C           7.8887  -12.7075  -50.8024 C.2       0 UNK         0.5000 
      3 O           8.5698  -12.0062  -50.0533 O.2       0 UNK        -0.5000 
      4 N           6.9178  -13.5159  -50.3616 N.am      1 UNK        -0.5000 
      5 CA          6.4715  -13.6160  -48.9691 C.3       1 UNK         0.1400 
      6 C6          5.6955  -14.9333  -48.7104 C.3       23 UNK        -0.0398 
      7 S7          4.2384  -15.1830  -49.7861 S.3       23 UNK        -0.2404 
      8 C8          3.1339  -16.0802  -48.6571 C.3       23 UNK        -0.0205 
      9 C9          1.9052  -16.5952  -49.3861 C.ar      23 UNK        -0.0193 
     10 C10         0.7182  -15.8564  -49.3904 C.ar      23 UNK        -0.1150 
     11 C11        -0.4168  -16.3431  -50.0453 C.ar      23 UNK        -0.0193 
     12 C12        -0.3558  -17.5784  -50.6919 C.ar      23 UNK        -0.1150 
     13 C13         0.8217  -18.3303  -50.6938 C.ar      23 UNK        -0.0193 
     14 C14         1.9538  -17.8252  -50.0479 C.ar      23 UNK        -0.1150 
     15 C15         0.8569  -19.6868  -51.3900 C.3       23 UNK        -0.0205 
     16 S16         1.4386  -21.0490  -50.3210 S.3       23 UNK        -0.2404 
     17 C17         0.5945  -20.7093  -48.7396 C.3       23 UNK        -0.0398 
     18 CA          0.3426  -21.9884  -47.9071 C.3       11 UNK         0.1400 
     19 N           0.4015  -21.7196  -46.4689 N.am      11 UNK        -0.5000 
     20 C           0.4212  -22.6629  -45.5174 C.2       10 UNK         0.5000 
     21 O           0.4392  -23.8716  -45.7512 O.2       10 UNK        -0.5000 
     22 CA          0.3599  -22.1722  -44.0597 C.3       10 UNK         0.1400 
     23 CB          1.7500  -21.7391  -43.5714 C.3       10 UNK        -0.1800 
     24 N          -0.5910  -21.0738  -43.8797 N.am      10 UNK        -0.5000 
     25 C          -1.9126  -21.1786  -44.0805 C.2       9 UNK         0.5000 
     26 O          -2.4748  -22.2318  -44.3775 O.2       9 UNK        -0.5000 
     27 CA         -2.7407  -19.8855  -43.9855 C.3       9 UNK         0.1400 
     28 CB         -3.0567  -19.5464  -42.5216 C.3       9 UNK        -0.1800 
     29 N          -2.0888  -18.7436  -44.6275 N.am      9 UNK        -0.5000 
     30 C          -1.7906  -18.6636  -45.9325 C.2       8 UNK         0.5000 
     31 O          -2.0514  -19.5440  -46.7509 O.2       8 UNK        -0.5000 
     32 CA         -1.0235  -17.4119  -46.3899 C.3       8 UNK         0.1400 
     33 CB         -1.9651  -16.2079  -46.5432 C.3       8 UNK        -0.1800 
     34 N           0.0590  -17.0698  -45.4695 N.am      8 UNK        -0.5000 
     35 C           1.1659  -17.8055  -45.2970 C.2       7 UNK         0.5000 
     36 O           1.4095  -18.8381  -45.9202 O.2       7 UNK        -0.5000 
     37 CA          2.1398  -17.3235  -44.2070 C.3       7 UNK         0.1400 
     38 CB          3.0353  -16.1920  -44.7360 C.3       7 UNK        -0.1800 
     39 N           1.4444  -16.8683  -43.0018 N.am      7 UNK        -0.5000 
     40 C           0.7232  -17.6630  -42.1983 C.2       6 UNK         0.5000 
     41 O           0.5837  -18.8725  -42.3755 O.2       6 UNK        -0.5000 
     42 CA         -0.0022  -16.9794  -41.0270 C.3       6 UNK         0.1400 
     43 CB          0.9458  -16.7969  -39.8329 C.3       6 UNK        -0.1800 
     44 N          -0.5807  -15.6845  -41.3887 N.am      6 UNK        -0.5000 
     45 C          -1.5437  -15.4908  -42.2972 C.2       5 UNK         0.5000 
     46 O          -2.0216  -16.3937  -42.9826 O.2       5 UNK        -0.5000 
     47 CA         -2.0421  -14.0484  -42.4966 C.3       5 UNK         0.1400 
     48 CB         -2.8050  -13.5371  -41.2595 C.3       5 UNK        -0.1800 
     49 N          -0.9958  -13.1079  -42.9133 N.am      5 UNK        -0.5000 
     50 C           0.0883  -12.6855  -42.2497 C.2       4 UNK         0.5000 
     51 O           0.3917  -13.0669  -41.1174 O.2       4 UNK        -0.5000 
     52 CA          0.9905  -11.6820  -43.0001 C.3       4 UNK         0.1400 
     53 CB          2.2258  -11.2660  -42.1808 C.3       4 UNK        -0.1800 
     54 N           1.4479  -12.1864  -44.2971 N.am      4 UNK        -0.5000 
     55 C           0.7278  -12.2509  -45.4261 C.2       3 UNK         0.5000 
     56 O          -0.4724  -11.9766  -45.4788 O.2       3 UNK        -0.5000 
     57 CA          1.4800  -12.7075  -46.6962 C.3       3 UNK         0.1400 
     58 CB          0.7935  -12.2412  -47.9970 C.3       3 UNK        -0.1800 
     59 N           2.9022  -12.3329  -46.6939 N.am      3 UNK        -0.5000 
     60 C           3.4118  -11.0899  -46.6506 C.2       2 UNK         0.5000 
     61 O           2.7320  -10.0638  -46.6167 O.2       2 UNK        -0.5000 
     62 CA          4.9481  -10.9711  -46.6135 C.3       2 UNK         0.1400 
     63 CB          5.4302  -10.8090  -45.1630 C.3       2 UNK        -0.1800 
     64 N           5.6445  -12.1092  -47.2210 N.am      2 UNK        -0.5000 
     65 C           5.6680  -12.3686  -48.5358 C.2       1 UNK         0.5000 
     66 O           5.0839  -11.6793  -49.3766 O.2       1 UNK        -0.5000 
     67 C          -0.9751  -22.6867  -48.3032 C.2       11 UNK         0.5000 
     68 O          -0.9416  -23.6758  -49.0338 O.2       11 UNK        -0.5000 
     69 N          -2.1046  -22.1977  -47.7706 N.am      12 UNK        -0.5000 
     70 CA         -3.4332  -22.7826  -47.9537 C.3       12 UNK         0.1400 
     71 CB         -4.5006  -21.8552  -47.3543 C.3       12 UNK        -0.1800 
     72 C          -3.5468  -24.1983  -47.3687 C.2       12 UNK         0.5000 
     73 O          -4.1265  -25.0675  -48.0176 O.2       12 UNK        -0.5000 
     74 N          -2.9628  -24.4196  -46.1830 N.am      13 UNK        -0.5000 
     75 CA         -2.8736  -25.7285  -45.5363 C.3       13 UNK         0.1400 
     76 CB         -2.3169  -25.5721  -44.1134 C.3       13 UNK        -0.1800 
     77 C          -2.0360  -26.7291  -46.3524 C.2       13 UNK         0.5000 
     78 O          -2.4741  -27.8631  -46.5474 O.2       13 UNK        -0.5000 
     79 N          -0.8785  -26.2803  -46.8603 N.am      14 UNK        -0.5000 
     80 CA         -0.0010  -27.0543  -47.7431 C.3       14 UNK         0.1400 
     81 CB          1.3149  -26.2910  -47.9568 C.3       14 UNK        -0.1800 
     82 C          -0.6595  -27.4008  -49.0933 C.2       14 UNK         0.5000 
     83 O          -0.4764  -28.5109  -49.5937 O.2       14 UNK        -0.5000 
     84 N          -1.4441  -26.4606  -49.6357 N.am      15 UNK        -0.5000 
     85 CA         -2.2434  -26.6231  -50.8509 C.3       15 UNK         0.1400 
     86 CB         -2.5729  -25.2310  -51.4156 C.3       15 UNK        -0.1800 
     87 C          -3.5427  -27.4276  -50.6409 C.2       15 UNK         0.5000 
     88 O          -4.2474  -27.6749  -51.6188 O.2       15 UNK        -0.5000 
     89 N          -3.8736  -27.7787  -49.3883 N.am      16 UNK        -0.5000 
     90 CA         -5.1069  -28.4468  -48.9519 C.3       16 UNK         0.1400 
     91 CB         -5.1291  -29.9110  -49.4367 C.3       16 UNK        -0.1800 
     92 C          -6.3821  -27.6623  -49.3382 C.2       16 UNK         0.5000 
     93 O          -7.3932  -28.2597  -49.7104 O.2       16 UNK        -0.5000 
     94 N          -6.2841  -26.3265  -49.2686 N.am      17 UNK        -0.5000 
     95 CA         -7.2797  -25.3143  -49.6349 C.3       17 UNK         0.1400 
     96 CB         -8.5307  -25.4255  -48.7393 C.3       17 UNK        -0.1800 
     97 C          -7.6342  -25.2645  -51.1389 C.2       17 UNK         0.5000 
     98 O          -8.5923  -24.5819  -51.5051 O.2       17 UNK        -0.5000 
     99 N          -6.8606  -25.9488  -51.9956 N.am      18 UNK        -0.5000 
    100 CA        -7.0534  -25.9634  -53.4498 C.3       18 UNK         0.1400 
    101 CB        -6.4837  -27.2722  -54.0193 C.3       18 UNK        -0.1800 
    102 C         -6.4204  -24.7473  -54.1568 C.2       18 UNK         0.5000 
    103 O         -6.6751  -24.5415  -55.3444 O.2       18 UNK        -0.5000 
    104 N         -5.6072  -23.9714  -53.4321 N.am      19 UNK        -0.5000 
    105 CA        -4.9215  -22.7711  -53.8972 C.3       19 UNK         0.1400 
    106 CB        -3.6277  -23.1600  -54.6434 C.3       19 UNK        -0.1800 
    107 C         -4.6636  -21.8434  -52.6959 C.2       19 UNK         0.5000 
    108 O         -5.2277  -22.0656  -51.6212 O.2       19 UNK        -0.5000 
    109 N         -3.8162  -20.8256  -52.9095 N.am      20 UNK        -0.5000 
    110 CA        -3.3970  -19.7871  -51.9565 C.3       20 UNK         0.1400 
    111 CB        -2.8012  -20.3985  -50.6728 C.3       20 UNK        -0.1800 
    112 C         -4.4876  -18.7396  -51.6500 C.2       20 UNK         0.5000 
    113 O         -4.4162  -18.0565  -50.6267 O.2       20 UNK        -0.5000 
    114 N         -5.4658  -18.6018  -52.5533 N.am      21 UNK        -0.5000 
    115 CA        -6.5752  -17.6534  -52.4653 C.3       21 UNK         0.1400 
    116 CB        -7.7471  -18.1941  -53.3051 C.3       21 UNK        -0.1800 
    117 C         -6.1459  -16.2306  -52.8840 C.2       21 UNK         0.5000 
    118 O         -6.6160  -15.7167  -53.9014 O.2       21 UNK        -0.5000 
    119 N         -5.2396  -15.6288  -52.1041 N.am      22 UNK        -0.5000 
    120 CA        -4.7871  -14.2358  -52.2533 C.3       22 UNK         0.1400 
    121 C         -5.9355  -13.2082  -52.0392 C.2       22 UNK         0.5000 
    122 N         -5.9560  -12.1228  -52.8008 N.am      22 UNK        -0.7600 
    123 O         -6.7806  -13.3646  -51.1601 O.2       22 UNK        -0.5000 
    124 C124       -3.6036  -13.9055  -51.3086 C.3       23 UNK        -0.0398 
    125 S125       -2.0994  -14.8700  -51.6793 S.3       23 UNK        -0.2404 
    126 C126       -1.7186  -15.5564  -50.0389 C.3       23 UNK        -0.0205 
    127 H127        9.1731  -12.9809  -52.5128 H         1 UNK         0.0600 
    128 H128        7.9914  -11.6797  -52.6946 H         1 UNK         0.0600 
    129 H129        7.4803  -13.3638  -52.8379 H         1 UNK         0.0600 
    130 H130        6.3654  -14.0399  -51.0256 H         1 UNK         0.3000 
    131 H131        7.3684  -13.6463  -48.3461 H         1 UNK         0.0600 
    132 H132        6.3656  -15.7800  -48.8659 H         1 UNK         0.0800 
    133 H133        5.3934  -14.9944  -47.6636 H         1 UNK         0.0800 
    134 H134        2.8407  -15.4251  -47.8370 H         1 UNK         0.0800 
    135 H135        3.6707  -16.9183  -48.2094 H         1 UNK         0.0800 
    136 H136        0.6772  -14.9061  -48.8810 H         1 UNK         0.1150 
    137 H137       -1.2343  -17.9442  -51.1984 H         1 UNK         0.1150 
    138 H138        2.8700  -18.3988  -50.0468 H         1 UNK         0.1150 
    139 H139       -0.1288  -19.9479  -51.7750 H         1 UNK         0.0800 
    140 H140        1.5127  -19.6189  -52.2588 H         1 UNK         0.0800 
    141 H141       -0.3269  -20.1496  -48.9031 H         1 UNK         0.0800 
    142 H142        1.2533  -20.0331  -48.1954 H         1 UNK         0.0800 
    143 H143        1.1524  -22.6926  -48.1109 H         1 UNK         0.0600 
    144 H144        0.4147  -20.7456  -46.1893 H         1 UNK         0.3000 
    145 H145        0.0271  -23.0081  -43.4412 H         1 UNK         0.0600 
    146 H146        1.7304  -21.4751  -42.5140 H         1 UNK         0.0600 
    147 H147        2.4756  -22.5444  -43.6924 H         1 UNK         0.0600 
    148 H148        2.1207  -20.8752  -44.1241 H         1 UNK         0.0600 
    149 H149       -0.2075  -20.1836  -43.5750 H         1 UNK         0.3000 
    150 H150       -3.6856  -20.0587  -44.5043 H         1 UNK         0.0600 
    151 H151       -3.5732  -20.3729  -42.0321 H         1 UNK         0.0600 
    152 H152       -3.7022  -18.6708  -42.4502 H         1 UNK         0.0600 
    153 H153       -2.1507  -19.3412  -41.9515 H         1 UNK         0.0600 
    154 H154       -1.8813  -17.9480  -44.0292 H         1 UNK         0.3000 
    155 H155       -0.5846  -17.6304  -47.3657 H         1 UNK         0.0600 
    156 H156       -2.4359  -15.9358  -45.5985 H         1 UNK         0.0600 
    157 H157       -2.7637  -16.4283  -47.2523 H         1 UNK         0.0600 
    158 H158       -1.4295  -15.3334  -46.9122 H         1 UNK         0.0600 
    159 H159       -0.0917  -16.2754  -44.8673 H         1 UNK         0.3000 
    160 H160        2.7775  -18.1668  -43.9330 H         1 UNK         0.0600 
    161 H161        2.4552  -15.3111  -45.0104 H         1 UNK         0.0600 
    162 H162        3.5883  -16.5144  -45.6188 H         1 UNK         0.0600 
    163 H163        3.7695  -15.8899  -43.9890 H         1 UNK         0.0600 
    164 H164        1.5059  -15.8871  -42.7748 H         1 UNK         0.3000 
    165 H165       -0.8193  -17.6335  -40.7166 H         1 UNK         0.0600 
    166 H166        0.4163  -16.3968  -38.9680 H         1 UNK         0.0600 
    167 H167        1.3848  -17.7494  -39.5327 H         1 UNK         0.0600 
    168 H168        1.7647  -16.1159  -40.0684 H         1 UNK         0.0600 
    169 H169       -0.2011  -14.8593  -40.9319 H         1 UNK         0.3000 
    170 H170       -2.7538  -14.0785  -43.3233 H         1 UNK         0.0600 
    171 H171       -3.6292  -14.2059  -41.0085 H         1 UNK         0.0600 
    172 H172       -2.1654  -13.4661  -40.3794 H         1 UNK         0.0600 
    173 H173       -3.2317  -12.5509  -41.4420 H         1 UNK         0.0600 
    174 H174       -1.1007  -12.7412  -43.8565 H         1 UNK         0.3000 
    175 H175        0.3919  -10.7848  -43.1713 H         1 UNK         0.0600 
    176 H176        2.8774  -12.1159  -41.9737 H         1 UNK         0.0600 
    177 H177        2.8133  -10.5138  -42.7080 H         1 UNK         0.0600 
    178 H178        1.9340  -10.8333  -41.2229 H         1 UNK         0.0600 
    179 H179        2.4201  -12.4510  -44.3461 H         1 UNK         0.3000 
    180 H180        1.4469  -13.7970  -46.6844 H         1 UNK         0.0600 
    181 H181        1.3539  -12.5615  -48.8756 H         1 UNK         0.0600 
    182 H182        0.7003  -11.1558  -48.0393 H         1 UNK         0.0600 
    183 H183       -0.2111  -12.6573  -48.0819 H         1 UNK         0.0600 
    184 H184        3.5607  -13.0969  -46.7188 H         1 UNK         0.3000 
    185 H185        5.2206  -10.0692  -47.1661 H         1 UNK         0.0600 
    186 H186        4.9490   -9.9551  -44.6838 H         1 UNK         0.0600 
    187 H187        5.2064  -11.6908  -44.5613 H         1 UNK         0.0600 
    188 H188        6.5060  -10.6376  -45.1215 H         1 UNK         0.0600 
    189 H189        6.1631  -12.7039  -46.5903 H         1 UNK         0.3000 
    190 H190       -2.0560  -21.3453  -47.2170 H         1 UNK         0.3000 
    191 H191       -3.6164  -22.8652  -49.0262 H         1 UNK         0.0600 
    192 H192       -4.3807  -21.7457  -46.2766 H         1 UNK         0.0600 
    193 H193       -5.5022  -22.2470  -47.5361 H         1 UNK         0.0600 
    194 H194       -4.4554  -20.8597  -47.7962 H         1 UNK         0.0600 
    195 H195       -2.5647  -23.6321  -45.6783 H         1 UNK         0.3000 
    196 H196       -3.8865  -26.1293  -45.4596 H         1 UNK         0.0600 
    197 H197       -2.2639  -26.5364  -43.6068 H         1 UNK         0.0600 
    198 H198       -2.9529  -24.9228  -43.5116 H         1 UNK         0.0600 
    199 H199       -1.3135  -25.1465  -44.1156 H         1 UNK         0.0600 
    200 H200       -0.5706  -25.3416  -46.6230 H         1 UNK         0.3000 
    201 H201        0.2311  -27.9944  -47.2385 H         1 UNK         0.0600 
    202 H202        1.8227  -26.1089  -47.0095 H         1 UNK         0.0600 
    203 H203        1.1485  -25.3263  -48.4366 H         1 UNK         0.0600 
    204 H204        1.9983  -26.8592  -48.5890 H         1 UNK         0.0600 
    205 H205       -1.4741  -25.5438  -49.1980 H         1 UNK         0.3000 
    206 H206       -1.6467  -27.1584  -51.5920 H         1 UNK         0.0600 
    207 H207       -1.6662  -24.6636  -51.6262 H         1 UNK         0.0600 
    208 H208       -3.1297  -25.3117  -52.3494 H         1 UNK         0.0600 
    209 H209       -3.1789  -24.6479  -50.7215 H         1 UNK         0.0600 
    210 H210       -3.2471  -27.5027  -48.6428 H         1 UNK         0.3000 
    211 H211       -5.0766  -28.4589  -47.8615 H         1 UNK         0.0600 
    212 H212       -5.2134  -29.9773  -50.5219 H         1 UNK         0.0600 
    213 H213       -5.9738  -30.4521  -49.0090 H         1 UNK         0.0600 
    214 H214       -4.2227  -30.4376  -49.1378 H         1 UNK         0.0600 
    215 H215       -5.4067  -25.9452  -48.9143 H         1 UNK         0.3000 
    216 H216       -6.8089  -24.3548  -49.4157 H         1 UNK         0.0600 
    217 H217       -9.1990  -24.5773  -48.8915 H         1 UNK         0.0600 
    218 H218       -8.2597  -25.4361  -47.6836 H         1 UNK         0.0600 
    219 H219       -9.1012  -26.3304  -48.9496 H         1 UNK         0.0600 
    220 H220       -6.0912  -26.5033  -51.6380 H         1 UNK         0.3000 
    221 H221       -8.1240  -25.9465  -53.6645 H         1 UNK         0.0600 
    222 H222       -5.3967  -27.3052  -53.9435 H         1 UNK         0.0600 
    223 H223       -6.8849  -28.1412  -53.4975 H         1 UNK         0.0600 
    224 H224       -6.7379  -27.3799  -55.0744 H         1 UNK         0.0600 
    225 H225       -5.5167  -24.1506  -52.4413 H         1 UNK         0.3000 
    226 H226       -5.5800  -22.2319  -54.5812 H         1 UNK         0.0600 
    227 H227       -3.8237  -23.8971  -55.4222 H         1 UNK         0.0600 
    228 H228       -3.1762  -22.2978  -55.1342 H         1 UNK         0.0600 
    229 H229       -2.8830  -23.5810  -53.9679 H         1 UNK         0.0600 
    230 H230       -3.4068  -20.7458  -53.8300 H         1 UNK         0.3000 
    231 H231       -2.5994  -19.2430  -52.4622 H         1 UNK         0.0600 
    232 H232       -2.0655  -21.1715  -50.8943 H         1 UNK         0.0600 
    233 H233       -3.5798  -20.8382  -50.0544 H         1 UNK         0.0600 
    234 H234       -2.3148  -19.6411  -50.0595 H         1 UNK         0.0600 
    235 H235       -5.4318  -19.1749  -53.3827 H         1 UNK         0.3000 
    236 H236       -6.9133  -17.5979  -51.4282 H         1 UNK         0.0600 
    237 H237       -8.6089  -17.5279  -53.2481 H         1 UNK         0.0600 
    238 H238       -7.4781  -18.2960  -54.3572 H         1 UNK         0.0600 
    239 H239       -8.0703  -19.1715  -52.9459 H         1 UNK         0.0600 
    240 H240       -4.8744  -16.1468  -51.3133 H         1 UNK         0.3000 
    241 H241       -4.4355  -14.1267  -53.2813 H         1 UNK         0.0600 
    242 H242       -6.6862  -11.4411  -52.6623 H         1 UNK         0.3800 
    243 H243       -5.2695  -11.9694  -53.5238 H         1 UNK         0.3800 
    244 H244       -3.3313  -12.8517  -51.3928 H         1 UNK         0.0800 
    245 H245       -3.8990  -14.0568  -50.2688 H         1 UNK         0.0800 
    246 H246       -2.5335  -16.2091  -49.7224 H         1 UNK         0.0800 
    247 H247       -1.6679  -14.7421  -49.3148 H         1 UNK         0.0800 
@<TRIPOS>BOND
     1    1    2 1    
     2    1  127 1    
     3    1  128 1    
     4    1  129 1    
     5    2    3 2    
     6    2    4 am   BACKBONE|DICT|INTERRES
     7    4    5 1    
     8    4  130 1    
     9    5    6 1    
    10    5   65 1    
    11    5  131 1    
    12    6    7 1    
    13    6  132 1    
    14    6  133 1    
    15    7    8 1    
    16    8    9 1    
    17    8  134 1    
    18    8  135 1    
    19    9   10 ar   
    20    9   14 ar   
    21   10   11 ar   
    22   10  136 1    
    23   11   12 ar   
    24   11  126 1    
    25   12   13 ar   
    26   12  137 1    
    27   13   14 ar   
    28   13   15 1    
    29   14  138 1    
    30   15   16 1    
    31   15  139 1    
    32   15  140 1    
    33   16   17 1    
    34   17   18 1    
    35   17  141 1    
    36   17  142 1    
    37   18   19 1    
    38   18   67 1    
    39   18  143 1    
    40   19   20 am   BACKBONE|DICT|INTERRES
    41   19  144 1    
    42   20   21 2    
    43   20   22 1    
    44   22   23 1    
    45   22   24 1    
    46   22  145 1    
    47   23  146 1    
    48   23  147 1    
    49   23  148 1    
    50   24   25 am   BACKBONE|DICT|INTERRES
    51   24  149 1    
    52   25   26 2    
    53   25   27 1    
    54   27   28 1    
    55   27   29 1    
    56   27  150 1    
    57   28  151 1    
    58   28  152 1    
    59   28  153 1    
    60   29   30 am   BACKBONE|DICT|INTERRES
    61   29  154 1    
    62   30   31 2    
    63   30   32 1    
    64   32   33 1    
    65   32   34 1    
    66   32  155 1    
    67   33  156 1    
    68   33  157 1    
    69   33  158 1    
    70   34   35 am   BACKBONE|DICT|INTERRES
    71   34  159 1    
    72   35   36 2    
    73   35   37 1    
    74   37   38 1    
    75   37   39 1    
    76   37  160 1    
    77   38  161 1    
    78   38  162 1    
    79   38  163 1    
    80   39   40 am   BACKBONE|DICT|INTERRES
    81   39  164 1    
    82   40   41 2    
    83   40   42 1    
    84   42   43 1    
    85   42   44 1    
    86   42  165 1    
    87   43  166 1    
    88   43  167 1    
    89   43  168 1    
    90   44   45 am   BACKBONE|DICT|INTERRES
    91   44  169 1    
    92   45   46 2    
    93   45   47 1    
    94   47   48 1    
    95   47   49 1    
    96   47  170 1    
    97   48  171 1    
    98   48  172 1    
    99   48  173 1    
   100   49   50 am   BACKBONE|DICT|INTERRES
   101   49  174 1    
   102   50   51 2    
   103   50   52 1    
   104   52   53 1    
   105   52   54 1    
   106   52  175 1    
   107   53  176 1    
   108   53  177 1    
   109   53  178 1    
   110   54   55 am   BACKBONE|DICT|INTERRES
   111   54  179 1    
   112   55   56 2    
   113   55   57 1    
   114   57   58 1    
   115   57   59 1    
   116   57  180 1    
   117   58  181 1    
   118   58  182 1    
   119   58  183 1    
   120   59   60 am   BACKBONE|DICT|INTERRES
   121   59  184 1    
   122   60   61 2    
   123   60   62 1    
   124   62   63 1    
   125   62   64 1    
   126   62  185 1    
   127   63  186 1    
   128   63  187 1    
   129   63  188 1    
   130   64   65 am   BACKBONE|DICT|INTERRES
   131   64  189 1    
   132   65   66 2    
   133   67   68 2    
   134   67   69 am   BACKBONE|DICT|INTERRES
   135   69   70 1    
   136   69  190 1    
   137   70   71 1    
   138   70   72 1    
   139   70  191 1    
   140   71  192 1    
   141   71  193 1    
   142   71  194 1    
   143   72   73 2    
   144   72   74 am   BACKBONE|DICT|INTERRES
   145   74   75 1    
   146   74  195 1    
   147   75   76 1    
   148   75   77 1    
   149   75  196 1    
   150   76  197 1    
   151   76  198 1    
   152   76  199 1    
   153   77   78 2    
   154   77   79 am   BACKBONE|DICT|INTERRES
   155   79   80 1    
   156   79  200 1    
   157   80   81 1    
   158   80   82 1    
   159   80  201 1    
   160   81  202 1    
   161   81  203 1    
   162   81  204 1    
   163   82   83 2    
   164   82   84 am   BACKBONE|DICT|INTERRES
   165   84   85 1    
   166   84  205 1    
   167   85   86 1    
   168   85   87 1    
   169   85  206 1    
   170   86  207 1    
   171   86  208 1    
   172   86  209 1    
   173   87   88 2    
   174   87   89 am   BACKBONE|DICT|INTERRES
   175   89   90 1    
   176   89  210 1    
   177   90   91 1    
   178   90   92 1    
   179   90  211 1    
   180   91  212 1    
   181   91  213 1    
   182   91  214 1    
   183   92   93 2    
   184   92   94 am   BACKBONE|DICT|INTERRES
   185   94   95 1    
   186   94  215 1    
   187   95   96 1    
   188   95   97 1    
   189   95  216 1    
   190   96  217 1    
   191   96  218 1    
   192   96  219 1    
   193   97   98 2    
   194   97   99 am   BACKBONE|DICT|INTERRES
   195   99  100 1    
   196   99  220 1    
   197  100  101 1    
   198  100  102 1    
   199  100  221 1    
   200  101  222 1    
   201  101  223 1    
   202  101  224 1    
   203  102  103 2    
   204  102  104 am   BACKBONE|DICT|INTERRES
   205  104  105 1    
   206  104  225 1    
   207  105  106 1    
   208  105  107 1    
   209  105  226 1    
   210  106  227 1    
   211  106  228 1    
   212  106  229 1    
   213  107  108 2    
   214  107  109 am   BACKBONE|DICT|INTERRES
   215  109  110 1    
   216  109  230 1    
   217  110  111 1    
   218  110  112 1    
   219  110  231 1    
   220  111  232 1    
   221  111  233 1    
   222  111  234 1    
   223  112  113 2    
   224  112  114 am   BACKBONE|DICT|INTERRES
   225  114  115 1    
   226  114  235 1    
   227  115  116 1    
   228  115  117 1    
   229  115  236 1    
   230  116  237 1    
   231  116  238 1    
   232  116  239 1    
   233  117  118 2    
   234  117  119 am   BACKBONE|DICT|INTERRES
   235  119  120 1    
   236  119  240 1    
   237  120  121 1    
   238  120  124 1    
   239  120  241 1    
   240  121  122 am   BACKBONE|DICT|INTERRES
   241  121  123 2    
   242  122  242 1    
   243  122  243 1    
   244  124  125 1    
   245  124  244 1    
   246  124  245 1    
   247  125  126 1    
   248  126  246 1    
   249  126  247 1    
@<TRIPOS>SUBSTRUCTURE
     1 UNK         1 GROUP             0       ****    0 ROOT    
