@<TRIPOS>MOLECULE
3R540
247   249    1
SMALL
USER_CHARGES


@<TRIPOS>ATOM
      1 CA          0.0367  -12.0772  -45.8547 C.3       0 UNK        -0.1800 
      2 C           1.3684  -12.1644  -46.5867 C.2       0 UNK         0.5000 
      3 O           2.2871  -11.4088  -46.2705 O.2       0 UNK        -0.5000 
      4 N           1.4823  -13.0961  -47.5453 N.am      1 UNK        -0.5000 
      5 CA          2.6608  -13.3426  -48.3941 C.3       1 UNK         0.1400 
      6 C6          2.4452  -14.5494  -49.3369 C.3       23 UNK        -0.0398 
      7 S7          1.0282  -14.3857  -50.4717 S.3       23 UNK        -0.2404 
      8 C8          1.5455  -15.5006  -51.8214 C.3       23 UNK        -0.0205 
      9 C9          1.4356  -16.9727  -51.4381 C.ar      23 UNK        -0.0193 
     10 C10         0.3667  -17.7429  -51.9011 C.ar      23 UNK        -0.1150 
     11 C11         0.2661  -19.0990  -51.5733 C.ar      23 UNK        -0.0193 
     12 C12         1.2453  -19.6791  -50.7579 C.ar      23 UNK        -0.1150 
     13 C13         2.3302  -18.9243  -50.2905 C.ar      23 UNK        -0.0193 
     14 C14         2.4201  -17.5784  -50.6530 C.ar      23 UNK        -0.1150 
     15 C15         3.4610  -19.5135  -49.4439 C.3       23 UNK        -0.0205 
     16 S16         3.1054  -21.0949  -48.6076 S.3       23 UNK        -0.2404 
     17 C17         1.9730  -20.5643  -47.2798 C.3       23 UNK        -0.0398 
     18 CA          1.0836  -21.7341  -46.7946 C.3       11 UNK         0.1400 
     19 N           0.6293  -21.5547  -45.4128 N.am      11 UNK        -0.5000 
     20 C           0.0370  -22.5104  -44.6818 C.2       10 UNK         0.5000 
     21 O          -0.1380  -23.6622  -45.0789 O.2       10 UNK        -0.5000 
     22 CA         -0.4980  -22.1005  -43.2971 C.3       10 UNK         0.1400 
     23 CB          0.6219  -22.1130  -42.2466 C.3       10 UNK        -0.1800 
     24 N          -1.1519  -20.7909  -43.3166 N.am      10 UNK        -0.5000 
     25 C          -2.2658  -20.5189  -44.0115 C.2       9 UNK         0.5000 
     26 O          -2.8933  -21.3643  -44.6470 O.2       9 UNK        -0.5000 
     27 CA         -2.7344  -19.0542  -44.0478 C.3       9 UNK         0.1400 
     28 CB         -3.5713  -18.7212  -42.8041 C.3       9 UNK        -0.1800 
     29 N          -1.6266  -18.1063  -44.1762 N.am      9 UNK        -0.5000 
     30 C          -0.7958  -18.0388  -45.2271 C.2       8 UNK         0.5000 
     31 O          -0.9000  -18.7485  -46.2268 O.2       8 UNK        -0.5000 
     32 CA          0.3880  -17.0599  -45.1177 C.3       8 UNK         0.1400 
     33 CB         -0.0514  -15.6192  -45.4076 C.3       8 UNK        -0.1800 
     34 N           1.0352  -17.1192  -43.8075 N.am      8 UNK        -0.5000 
     35 C           1.6761  -18.1980  -43.3351 C.2       7 UNK         0.5000 
     36 O           1.8472  -19.2282  -43.9875 O.2       7 UNK        -0.5000 
     37 CA          2.1542  -18.1364  -41.8738 C.3       7 UNK         0.1400 
     38 CB          3.5157  -17.4392  -41.7540 C.3       7 UNK        -0.1800 
     39 N           1.1860  -17.4646  -41.0084 N.am      7 UNK        -0.5000 
     40 C           0.0056  -17.9894  -40.6538 C.2       6 UNK         0.5000 
     41 O          -0.3789  -19.1053  -41.0024 O.2       6 UNK        -0.5000 
     42 CA         -0.9123  -17.0990  -39.7976 C.3       6 UNK         0.1400 
     43 CB         -0.5148  -17.1750  -38.3160 C.3       6 UNK        -0.1800 
     44 N          -0.9060  -15.7009  -40.2326 N.am      6 UNK        -0.5000 
     45 C          -1.3883  -15.2751  -41.4084 C.2       5 UNK         0.5000 
     46 O          -1.8894  -16.0169  -42.2506 O.2       5 UNK        -0.5000 
     47 CA         -1.2512  -13.7748  -41.7144 C.3       5 UNK         0.1400 
     48 CB         -2.4262  -12.9894  -41.1135 C.3       5 UNK        -0.1800 
     49 N           0.0113  -13.2010  -41.2446 N.am      5 UNK        -0.5000 
     50 C           1.2174  -13.5474  -41.7090 C.2       4 UNK         0.5000 
     51 O           1.4083  -14.4413  -42.5398 O.2       4 UNK        -0.5000 
     52 CA          2.4128  -12.7624  -41.1625 C.3       4 UNK         0.1400 
     53 CB          3.2024  -13.5854  -40.1314 C.3       4 UNK        -0.1800 
     54 N           3.2528  -12.4344  -42.3025 N.am      4 UNK        -0.5000 
     55 C           4.0766  -11.3874  -42.4124 C.2       3 UNK         0.5000 
     56 O           4.2899  -10.5920  -41.4958 O.2       3 UNK        -0.5000 
     57 CA          4.7372  -11.1691  -43.7913 C.3       3 UNK         0.1400 
     58 CB          6.1807  -10.6327  -43.6893 C.3       3 UNK        -0.1800 
     59 N           4.6475  -12.3403  -44.6742 N.am      3 UNK        -0.5000 
     60 C           5.2865  -13.5156  -44.5535 C.2       2 UNK         0.5000 
     61 O           6.1232  -13.7503  -43.6815 O.2       2 UNK        -0.5000 
     62 CA          4.9052  -14.6391  -45.5424 C.3       2 UNK         0.1400 
     63 CB          4.4680  -15.9073  -44.7940 C.3       2 UNK        -0.1800 
     64 N           3.8219  -14.2724  -46.4528 N.am      2 UNK        -0.5000 
     65 C           3.9592  -13.5883  -47.5945 C.2       1 UNK         0.5000 
     66 O           5.0349  -13.1660  -48.0189 O.2       1 UNK        -0.5000 
     67 C          -0.0930  -22.0047  -47.7566 C.2       11 UNK         0.5000 
     68 O          -0.0066  -22.9155  -48.5798 O.2       11 UNK        -0.5000 
     69 N          -1.1919  -21.2536  -47.6007 N.am      12 UNK        -0.5000 
     70 CA         -2.4386  -21.4532  -48.3385 C.3       12 UNK         0.1400 
     71 CB         -3.4196  -20.3170  -48.0234 C.3       12 UNK        -0.1800 
     72 C          -3.0826  -22.8229  -48.0623 C.2       12 UNK         0.5000 
     73 O          -3.5040  -23.4913  -49.0045 O.2       12 UNK        -0.5000 
     74 N          -3.1133  -23.2393  -46.7893 N.am      13 UNK        -0.5000 
     75 CA         -3.6018  -24.5505  -46.3586 C.3       13 UNK         0.1400 
     76 CB         -3.6604  -24.6029  -44.8248 C.3       13 UNK        -0.1800 
     77 C          -2.7626  -25.7159  -46.9151 C.2       13 UNK         0.5000 
     78 O          -3.3314  -26.7392  -47.2957 O.2       13 UNK        -0.5000 
     79 N          -1.4365  -25.5300  -46.9815 N.am      14 UNK        -0.5000 
     80 CA         -0.4987  -26.4703  -47.5953 C.3       14 UNK         0.1400 
     81 CB          0.9396  -26.0885  -47.2133 C.3       14 UNK        -0.1800 
     82 C          -0.6590  -26.5538  -49.1256 C.2       14 UNK         0.5000 
     83 O          -0.5749  -27.6502  -49.6806 O.2       14 UNK        -0.5000 
     84 N          -0.8991  -25.4055  -49.7761 N.am      15 UNK        -0.5000 
     85 CA         -1.1647  -25.3011  -51.2127 C.3       15 UNK         0.1400 
     86 CB         -1.1005  -23.8288  -51.6435 C.3       15 UNK        -0.1800 
     87 C          -2.5082  -25.9369  -51.6199 C.2       15 UNK         0.5000 
     88 O          -2.5696  -26.5814  -52.6669 O.2       15 UNK        -0.5000 
     89 N          -3.5276  -25.7721  -50.7624 N.am      16 UNK        -0.5000 
     90 CA         -4.8678  -26.3638  -50.8185 C.3       16 UNK         0.1400 
     91 CB         -4.7825  -27.8920  -50.6229 C.3       16 UNK        -0.1800 
     92 C          -5.6420  -25.9750  -52.1016 C.2       16 UNK         0.5000 
     93 O          -5.6941  -26.7656  -53.0438 O.2       16 UNK        -0.5000 
     94 N          -6.2381  -24.7791  -52.1799 N.am      17 UNK        -0.5000 
     95 CA         -6.3202  -23.7249  -51.1722 C.3       17 UNK         0.1400 
     96 CB         -7.5169  -23.9892  -50.2393 C.3       17 UNK        -0.1800 
     97 C          -6.4718  -22.3743  -51.8864 C.2       17 UNK         0.5000 
     98 O          -6.7051  -22.3539  -53.0996 O.2       17 UNK        -0.5000 
     99 N          -6.3400  -21.2808  -51.1219 N.am      18 UNK        -0.5000 
    100 CA        -6.4536  -19.8915  -51.5746 C.3       18 UNK         0.1400 
    101 CB        -6.1697  -18.9404  -50.3998 C.3       18 UNK        -0.1800 
    102 C         -7.8171  -19.5880  -52.2266 C.2       18 UNK         0.5000 
    103 O         -8.7890  -19.3401  -51.5112 O.2       18 UNK        -0.5000 
    104 N         -7.8385  -19.6496  -53.5624 N.am      19 UNK        -0.5000 
    105 CA        -8.9557  -19.5083  -54.5020 C.3       19 UNK         0.1400 
    106 CB       -10.3044  -20.0375  -53.9641 C.3       19 UNK        -0.1800 
    107 C         -8.5901  -20.2839  -55.7752 C.2       19 UNK         0.5000 
    108 O         -8.6753  -19.7345  -56.8739 O.2       19 UNK        -0.5000 
    109 N         -8.1656  -21.5419  -55.5923 N.am      20 UNK        -0.5000 
    110 CA        -7.6199  -22.3997  -56.6434 C.3       20 UNK         0.1400 
    111 CB        -7.9297  -23.8688  -56.3137 C.3       20 UNK        -0.1800 
    112 C         -6.1056  -22.1726  -56.7715 C.2       20 UNK         0.5000 
    113 O         -5.5953  -22.0211  -57.8822 O.2       20 UNK        -0.5000 
    114 N         -5.4326  -22.1123  -55.6177 N.am      21 UNK        -0.5000 
    115 CA        -4.0586  -21.6586  -55.4540 C.3       21 UNK         0.1400 
    116 CB        -3.3773  -22.5507  -54.4007 C.3       21 UNK        -0.1800 
    117 C         -4.0592  -20.1876  -55.0000 C.2       21 UNK         0.5000 
    118 O         -5.1219  -19.6160  -54.7370 O.2       21 UNK        -0.5000 
    119 N         -2.8550  -19.6157  -54.8913 N.am      22 UNK        -0.5000 
    120 CA        -2.5698  -18.2778  -54.3371 C.3       22 UNK         0.1400 
    121 C         -3.0429  -17.0812  -55.2195 C.2       22 UNK         0.5000 
    122 N         -3.4239  -17.2902  -56.4734 N.am      22 UNK        -0.7600 
    123 O         -3.0317  -15.9367  -54.7746 O.2       22 UNK        -0.5000 
    124 C124       -3.0102  -18.1154  -52.8481 C.3       23 UNK        -0.0398 
    125 S125       -2.5283  -19.4398  -51.6710 S.3       23 UNK        -0.2404 
    126 C126       -0.8477  -19.9650  -52.1535 C.3       23 UNK        -0.0205 
    127 H127       -0.3501  -11.0592  -45.8996 H         1 UNK         0.0600 
    128 H128        0.1675  -12.3476  -44.8066 H         1 UNK         0.0600 
    129 H129       -0.7096  -12.7428  -46.2888 H         1 UNK         0.0600 
    130 H130        0.6758  -13.6602  -47.7724 H         1 UNK         0.3000 
    131 H131        2.8153  -12.4485  -49.0013 H         1 UNK         0.0600 
    132 H132        3.3416  -14.7029  -49.9410 H         1 UNK         0.0800 
    133 H133        2.3004  -15.4611  -48.7541 H         1 UNK         0.0800 
    134 H134        0.9225  -15.2950  -52.6932 H         1 UNK         0.0800 
    135 H135        2.5674  -15.2700  -52.1261 H         1 UNK         0.0800 
    136 H136       -0.3735  -17.2831  -52.5355 H         1 UNK         0.1150 
    137 H137        1.1731  -20.7300  -50.5175 H         1 UNK         0.1150 
    138 H138        3.2725  -17.0024  -50.3251 H         1 UNK         0.1150 
    139 H139        4.3231  -19.6643  -50.0948 H         1 UNK         0.0800 
    140 H140        3.7707  -18.7894  -48.6884 H         1 UNK         0.0800 
    141 H141        1.3718  -19.7132  -47.6056 H         1 UNK         0.0800 
    142 H142        2.5942  -20.1987  -46.4611 H         1 UNK         0.0800 
    143 H143        1.6981  -22.6374  -46.7853 H         1 UNK         0.0600 
    144 H144        0.7752  -20.6409  -44.9963 H         1 UNK         0.3000 
    145 H145       -1.2450  -22.8392  -42.9994 H         1 UNK         0.0600 
    146 H146        0.2334  -21.8846  -41.2540 H         1 UNK         0.0600 
    147 H147        1.0942  -23.0946  -42.1933 H         1 UNK         0.0600 
    148 H148        1.4013  -21.3869  -42.4757 H         1 UNK         0.0600 
    149 H149       -0.7276  -20.0570  -42.7592 H         1 UNK         0.3000 
    150 H150       -3.3739  -18.9330  -44.9239 H         1 UNK         0.0600 
    151 H151       -4.4058  -19.4153  -42.6971 H         1 UNK         0.0600 
    152 H152       -3.9910  -17.7174  -42.8696 H         1 UNK         0.0600 
    153 H153       -2.9777  -18.7773  -41.8916 H         1 UNK         0.0600 
    154 H154       -1.5108  -17.4443  -43.4130 H         1 UNK         0.3000 
    155 H155        1.1279  -17.3454  -45.8687 H         1 UNK         0.0600 
    156 H156       -0.8144  -15.2798  -44.7070 H         1 UNK         0.0600 
    157 H157       -0.4642  -15.5320  -46.4133 H         1 UNK         0.0600 
    158 H158        0.7927  -14.9351  -45.3348 H         1 UNK         0.0600 
    159 H159        0.9695  -16.2907  -43.2252 H         1 UNK         0.3000 
    160 H160        2.2729  -19.1640  -41.5237 H         1 UNK         0.0600 
    161 H161        3.4514  -16.3833  -42.0133 H         1 UNK         0.0600 
    162 H162        4.2514  -17.9010  -42.4136 H         1 UNK         0.0600 
    163 H163        3.9032  -17.5080  -40.7375 H         1 UNK         0.0600 
    164 H164        1.4085  -16.5256  -40.7145 H         1 UNK         0.3000 
    165 H165       -1.9310  -17.4801  -39.8968 H         1 UNK         0.0600 
    166 H166       -1.2093  -16.6118  -37.6924 H         1 UNK         0.0600 
    167 H167       -0.5256  -18.2069  -37.9621 H         1 UNK         0.0600 
    168 H168        0.4872  -16.7796  -38.1448 H         1 UNK         0.0600 
    169 H169       -0.5065  -15.0235  -39.6001 H         1 UNK         0.3000 
    170 H170       -1.2861  -13.6575  -42.7996 H         1 UNK         0.0600 
    171 H171       -3.3802  -13.3867  -41.4628 H         1 UNK         0.0600 
    172 H172       -2.4295  -13.0376  -40.0239 H         1 UNK         0.0600 
    173 H173       -2.3880  -11.9392  -41.4036 H         1 UNK         0.0600 
    174 H174       -0.0590  -12.4602  -40.5617 H         1 UNK         0.3000 
    175 H175        2.0548  -11.8416  -40.6971 H         1 UNK         0.0600 
    176 H176        3.6129  -14.4948  -40.5700 H         1 UNK         0.0600 
    177 H177        4.0337  -13.0101  -39.7237 H         1 UNK         0.0600 
    178 H178        2.5678  -13.8780  -39.2941 H         1 UNK         0.0600 
    179 H179        3.1101  -13.0305  -43.1066 H         1 UNK         0.3000 
    180 H180        4.1427  -10.3953  -44.2790 H         1 UNK         0.0600 
    181 H181        6.8237  -11.2959  -43.1107 H         1 UNK         0.0600 
    182 H182        6.1994   -9.6584  -43.1997 H         1 UNK         0.0600 
    183 H183        6.6260  -10.5067  -44.6762 H         1 UNK         0.0600 
    184 H184        3.9658  -12.2455  -45.4201 H         1 UNK         0.3000 
    185 H185        5.7990  -14.8753  -46.1235 H         1 UNK         0.0600 
    186 H186        5.2401  -16.2489  -44.1037 H         1 UNK         0.0600 
    187 H187        3.5605  -15.7270  -44.2185 H         1 UNK         0.0600 
    188 H188        4.2674  -16.7268  -45.4846 H         1 UNK         0.0600 
    189 H189        2.8935  -14.5576  -46.1802 H         1 UNK         0.3000 
    190 H190       -1.1695  -20.4815  -46.9393 H         1 UNK         0.3000 
    191 H191       -2.2028  -21.4128  -49.4033 H         1 UNK         0.0600 
    192 H192       -3.0325  -19.3568  -48.3653 H         1 UNK         0.0600 
    193 H193       -4.3755  -20.4845  -48.5183 H         1 UNK         0.0600 
    194 H194       -3.6189  -20.2377  -46.9558 H         1 UNK         0.0600 
    195 H195       -2.8059  -22.6040  -46.0568 H         1 UNK         0.3000 
    196 H196       -4.6185  -24.6654  -46.7400 H         1 UNK         0.0600 
    197 H197       -4.0468  -25.5631  -44.4810 H         1 UNK         0.0600 
    198 H198       -4.3163  -23.8274  -44.4289 H         1 UNK         0.0600 
    199 H199       -2.6750  -24.4666  -44.3792 H         1 UNK         0.0600 
    200 H200       -1.0413  -24.6834  -46.5854 H         1 UNK         0.3000 
    201 H201       -0.7023  -27.4622  -47.1864 H         1 UNK         0.0600 
    202 H202        1.0735  -26.0913  -46.1314 H         1 UNK         0.0600 
    203 H203        1.2066  -25.0973  -47.5797 H         1 UNK         0.0600 
    204 H204        1.6554  -26.7968  -47.6322 H         1 UNK         0.0600 
    205 H205       -0.8716  -24.5348  -49.2534 H         1 UNK         0.3000 
    206 H206       -0.3706  -25.8380  -51.7358 H         1 UNK         0.0600 
    207 H207       -0.1429  -23.3822  -51.3752 H         1 UNK         0.0600 
    208 H208       -1.2082  -23.7393  -52.7241 H         1 UNK         0.0600 
    209 H209       -1.8898  -23.2351  -51.1822 H         1 UNK         0.0600 
    210 H210       -3.3709  -25.1429  -49.9795 H         1 UNK         0.3000 
    211 H211       -5.4091  -25.9767  -49.9567 H         1 UNK         0.0600 
    212 H212       -4.2290  -28.3796  -51.4259 H         1 UNK         0.0600 
    213 H213       -5.7780  -28.3361  -50.5953 H         1 UNK         0.0600 
    214 H214       -4.2897  -28.1388  -49.6822 H         1 UNK         0.0600 
    215 H215       -6.6647  -24.5080  -53.0555 H         1 UNK         0.3000 
    216 H216       -5.3967  -23.6866  -50.6000 H         1 UNK         0.0600 
    217 H217       -7.5747  -23.2389  -49.4501 H         1 UNK         0.0600 
    218 H218       -7.4498  -24.9603  -49.7508 H         1 UNK         0.0600 
    219 H219       -8.4605  -23.9617  -50.7861 H         1 UNK         0.0600 
    220 H220       -6.1772  -21.4044  -50.1343 H         1 UNK         0.3000 
    221 H221       -5.6711  -19.7285  -52.3122 H         1 UNK         0.0600 
    222 H222       -6.8006  -19.1585  -49.5374 H         1 UNK         0.0600 
    223 H223       -5.1290  -19.0025  -50.0870 H         1 UNK         0.0600 
    224 H224       -6.3500  -17.9031  -50.6851 H         1 UNK         0.0600 
    225 H225       -6.9464  -19.8261  -54.0209 H         1 UNK         0.3000 
    226 H226       -9.0573  -18.4522  -54.7565 H         1 UNK         0.0600 
    227 H227      -10.7175  -19.3778  -53.2017 H         1 UNK         0.0600 
    228 H228      -11.0491  -20.0945  -54.7594 H         1 UNK         0.0600 
    229 H229      -10.2078  -21.0350  -53.5339 H         1 UNK         0.0600 
    230 H230       -8.0738  -21.8794  -54.6409 H         1 UNK         0.3000 
    231 H231       -8.0875  -22.1579  -57.6003 H         1 UNK         0.0600 
    232 H232       -7.4946  -24.1724  -55.3607 H         1 UNK         0.0600 
    233 H233       -7.5325  -24.5324  -57.0828 H         1 UNK         0.0600 
    234 H234       -9.0048  -24.0402  -56.2595 H         1 UNK         0.0600 
    235 H235       -5.9561  -22.2037  -54.7507 H         1 UNK         0.3000 
    236 H236       -3.5144  -21.7367  -56.3973 H         1 UNK         0.0600 
    237 H237       -3.4529  -23.6057  -54.6654 H         1 UNK         0.0600 
    238 H238       -2.3166  -22.3148  -54.3153 H         1 UNK         0.0600 
    239 H239       -3.8203  -22.4230  -53.4123 H         1 UNK         0.0600 
    240 H240       -2.0440  -20.1486  -55.1688 H         1 UNK         0.3000 
    241 H241       -1.4848  -18.1894  -54.3654 H         1 UNK         0.0600 
    242 H242       -3.7172  -16.5099  -57.0401 H         1 UNK         0.3800 
    243 H243       -3.4388  -18.2219  -56.8558 H         1 UNK         0.3800 
    244 H244       -2.6326  -17.1751  -52.4451 H         1 UNK         0.0800 
    245 H245       -4.0953  -18.0227  -52.7988 H         1 UNK         0.0800 
    246 H246       -0.7384  -20.0237  -53.2341 H         1 UNK         0.0800 
    247 H247       -0.7290  -20.9893  -51.8011 H         1 UNK         0.0800 
@<TRIPOS>BOND
     1    1    2 1    
     2    1  127 1    
     3    1  128 1    
     4    1  129 1    
     5    2    3 2    
     6    2    4 am   BACKBONE|DICT|INTERRES
     7    4    5 1    
     8    4  130 1    
     9    5    6 1    
    10    5   65 1    
    11    5  131 1    
    12    6    7 1    
    13    6  132 1    
    14    6  133 1    
    15    7    8 1    
    16    8    9 1    
    17    8  134 1    
    18    8  135 1    
    19    9   10 ar   
    20    9   14 ar   
    21   10   11 ar   
    22   10  136 1    
    23   11   12 ar   
    24   11  126 1    
    25   12   13 ar   
    26   12  137 1    
    27   13   14 ar   
    28   13   15 1    
    29   14  138 1    
    30   15   16 1    
    31   15  139 1    
    32   15  140 1    
    33   16   17 1    
    34   17   18 1    
    35   17  141 1    
    36   17  142 1    
    37   18   19 1    
    38   18   67 1    
    39   18  143 1    
    40   19   20 am   BACKBONE|DICT|INTERRES
    41   19  144 1    
    42   20   21 2    
    43   20   22 1    
    44   22   23 1    
    45   22   24 1    
    46   22  145 1    
    47   23  146 1    
    48   23  147 1    
    49   23  148 1    
    50   24   25 am   BACKBONE|DICT|INTERRES
    51   24  149 1    
    52   25   26 2    
    53   25   27 1    
    54   27   28 1    
    55   27   29 1    
    56   27  150 1    
    57   28  151 1    
    58   28  152 1    
    59   28  153 1    
    60   29   30 am   BACKBONE|DICT|INTERRES
    61   29  154 1    
    62   30   31 2    
    63   30   32 1    
    64   32   33 1    
    65   32   34 1    
    66   32  155 1    
    67   33  156 1    
    68   33  157 1    
    69   33  158 1    
    70   34   35 am   BACKBONE|DICT|INTERRES
    71   34  159 1    
    72   35   36 2    
    73   35   37 1    
    74   37   38 1    
    75   37   39 1    
    76   37  160 1    
    77   38  161 1    
    78   38  162 1    
    79   38  163 1    
    80   39   40 am   BACKBONE|DICT|INTERRES
    81   39  164 1    
    82   40   41 2    
    83   40   42 1    
    84   42   43 1    
    85   42   44 1    
    86   42  165 1    
    87   43  166 1    
    88   43  167 1    
    89   43  168 1    
    90   44   45 am   BACKBONE|DICT|INTERRES
    91   44  169 1    
    92   45   46 2    
    93   45   47 1    
    94   47   48 1    
    95   47   49 1    
    96   47  170 1    
    97   48  171 1    
    98   48  172 1    
    99   48  173 1    
   100   49   50 am   BACKBONE|DICT|INTERRES
   101   49  174 1    
   102   50   51 2    
   103   50   52 1    
   104   52   53 1    
   105   52   54 1    
   106   52  175 1    
   107   53  176 1    
   108   53  177 1    
   109   53  178 1    
   110   54   55 am   BACKBONE|DICT|INTERRES
   111   54  179 1    
   112   55   56 2    
   113   55   57 1    
   114   57   58 1    
   115   57   59 1    
   116   57  180 1    
   117   58  181 1    
   118   58  182 1    
   119   58  183 1    
   120   59   60 am   BACKBONE|DICT|INTERRES
   121   59  184 1    
   122   60   61 2    
   123   60   62 1    
   124   62   63 1    
   125   62   64 1    
   126   62  185 1    
   127   63  186 1    
   128   63  187 1    
   129   63  188 1    
   130   64   65 am   BACKBONE|DICT|INTERRES
   131   64  189 1    
   132   65   66 2    
   133   67   68 2    
   134   67   69 am   BACKBONE|DICT|INTERRES
   135   69   70 1    
   136   69  190 1    
   137   70   71 1    
   138   70   72 1    
   139   70  191 1    
   140   71  192 1    
   141   71  193 1    
   142   71  194 1    
   143   72   73 2    
   144   72   74 am   BACKBONE|DICT|INTERRES
   145   74   75 1    
   146   74  195 1    
   147   75   76 1    
   148   75   77 1    
   149   75  196 1    
   150   76  197 1    
   151   76  198 1    
   152   76  199 1    
   153   77   78 2    
   154   77   79 am   BACKBONE|DICT|INTERRES
   155   79   80 1    
   156   79  200 1    
   157   80   81 1    
   158   80   82 1    
   159   80  201 1    
   160   81  202 1    
   161   81  203 1    
   162   81  204 1    
   163   82   83 2    
   164   82   84 am   BACKBONE|DICT|INTERRES
   165   84   85 1    
   166   84  205 1    
   167   85   86 1    
   168   85   87 1    
   169   85  206 1    
   170   86  207 1    
   171   86  208 1    
   172   86  209 1    
   173   87   88 2    
   174   87   89 am   BACKBONE|DICT|INTERRES
   175   89   90 1    
   176   89  210 1    
   177   90   91 1    
   178   90   92 1    
   179   90  211 1    
   180   91  212 1    
   181   91  213 1    
   182   91  214 1    
   183   92   93 2    
   184   92   94 am   BACKBONE|DICT|INTERRES
   185   94   95 1    
   186   94  215 1    
   187   95   96 1    
   188   95   97 1    
   189   95  216 1    
   190   96  217 1    
   191   96  218 1    
   192   96  219 1    
   193   97   98 2    
   194   97   99 am   BACKBONE|DICT|INTERRES
   195   99  100 1    
   196   99  220 1    
   197  100  101 1    
   198  100  102 1    
   199  100  221 1    
   200  101  222 1    
   201  101  223 1    
   202  101  224 1    
   203  102  103 2    
   204  102  104 am   BACKBONE|DICT|INTERRES
   205  104  105 1    
   206  104  225 1    
   207  105  106 1    
   208  105  107 1    
   209  105  226 1    
   210  106  227 1    
   211  106  228 1    
   212  106  229 1    
   213  107  108 2    
   214  107  109 am   BACKBONE|DICT|INTERRES
   215  109  110 1    
   216  109  230 1    
   217  110  111 1    
   218  110  112 1    
   219  110  231 1    
   220  111  232 1    
   221  111  233 1    
   222  111  234 1    
   223  112  113 2    
   224  112  114 am   BACKBONE|DICT|INTERRES
   225  114  115 1    
   226  114  235 1    
   227  115  116 1    
   228  115  117 1    
   229  115  236 1    
   230  116  237 1    
   231  116  238 1    
   232  116  239 1    
   233  117  118 2    
   234  117  119 am   BACKBONE|DICT|INTERRES
   235  119  120 1    
   236  119  240 1    
   237  120  121 1    
   238  120  124 1    
   239  120  241 1    
   240  121  122 am   BACKBONE|DICT|INTERRES
   241  121  123 2    
   242  122  242 1    
   243  122  243 1    
   244  124  125 1    
   245  124  244 1    
   246  124  245 1    
   247  125  126 1    
   248  126  246 1    
   249  126  247 1    
@<TRIPOS>SUBSTRUCTURE
     1 UNK         1 GROUP             0       ****    0 ROOT    
