@<TRIPOS>MOLECULE
3R540
247   249    1
SMALL
USER_CHARGES


@<TRIPOS>ATOM
      1 CA          4.9841  -15.5669  -45.7639 C.3       0 UNK        -0.1800 
      2 C           3.8442  -15.6347  -46.7698 C.2       0 UNK         0.5000 
      3 O           2.7686  -16.1236  -46.4399 O.2       0 UNK        -0.5000 
      4 N           4.0748  -15.1502  -47.9961 N.am      1 UNK        -0.5000 
      5 CA          3.0850  -15.1016  -49.0813 C.3       1 UNK         0.1400 
      6 C6          3.8074  -14.8937  -50.4408 C.3       23 UNK        -0.0398 
      7 S7          2.7412  -14.7767  -51.9207 S.3       23 UNK        -0.2404 
      8 C8          2.6837  -16.5064  -52.4987 C.3       23 UNK        -0.0205 
      9 C9          1.8572  -17.4254  -51.6045 C.ar      23 UNK        -0.0193 
     10 C10         0.6001  -17.0303  -51.1343 C.ar      23 UNK        -0.1150 
     11 C11        -0.1614  -17.8814  -50.3309 C.ar      23 UNK        -0.0193 
     12 C12         0.3270  -19.1526  -50.0205 C.ar      23 UNK        -0.1150 
     13 C13         1.5727  -19.5701  -50.4979 C.ar      23 UNK        -0.0193 
     14 C14         2.3361  -18.6986  -51.2806 C.ar      23 UNK        -0.1150 
     15 C15         2.0711  -20.9794  -50.2165 C.3       23 UNK        -0.0205 
     16 S16         3.1487  -21.0797  -48.7485 S.3       23 UNK        -0.2404 
     17 C17         2.0046  -20.7646  -47.3597 C.3       23 UNK        -0.0398 
     18 CA          1.3674  -22.0485  -46.7703 C.3       11 UNK         0.1400 
     19 N           0.8772  -21.8415  -45.4065 N.am      11 UNK        -0.5000 
     20 C           0.3889  -22.7974  -44.6036 C.2       10 UNK         0.5000 
     21 O           0.3528  -23.9907  -44.9016 O.2       10 UNK        -0.5000 
     22 CA         -0.2110  -22.3363  -43.2632 C.3       10 UNK         0.1400 
     23 CB          0.8906  -22.0934  -42.2212 C.3       10 UNK        -0.1800 
     24 N          -1.0404  -21.1376  -43.4032 N.am      10 UNK        -0.5000 
     25 C          -2.1725  -21.0860  -44.1213 C.2       9 UNK         0.5000 
     26 O          -2.6578  -22.0580  -44.7004 O.2       9 UNK        -0.5000 
     27 CA         -2.8578  -19.7135  -44.2496 C.3       9 UNK         0.1400 
     28 CB         -3.6707  -19.3896  -42.9876 C.3       9 UNK        -0.1800 
     29 N          -1.9116  -18.6303  -44.5164 N.am      9 UNK        -0.5000 
     30 C          -1.1499  -18.5374  -45.6162 C.2       8 UNK         0.5000 
     31 O          -1.1931  -19.3380  -46.5502 O.2       8 UNK        -0.5000 
     32 CA         -0.1185  -17.3969  -45.6470 C.3       8 UNK         0.1400 
     33 CB         -0.7752  -16.0486  -45.9826 C.3       8 UNK        -0.1800 
     34 N           0.6128  -17.2808  -44.3860 N.am      8 UNK        -0.5000 
     35 C           1.4014  -18.2320  -43.8681 C.2       7 UNK         0.5000 
     36 O           1.6151  -19.3163  -44.4060 O.2       7 UNK        -0.5000 
     37 CA          2.0061  -17.9514  -42.4840 C.3       7 UNK         0.1400 
     38 CB          3.2728  -17.0910  -42.6021 C.3       7 UNK        -0.1800 
     39 N           1.0389  -17.3086  -41.5946 N.am      7 UNK        -0.5000 
     40 C          -0.0453  -17.9204  -41.0958 C.2       6 UNK         0.5000 
     41 O          -0.3184  -19.1035  -41.2998 O.2       6 UNK        -0.5000 
     42 CA         -1.0063  -17.0519  -40.2637 C.3       6 UNK         0.1400 
     43 CB         -0.5070  -16.9217  -38.8171 C.3       6 UNK        -0.1800 
     44 N          -1.1942  -15.7179  -40.8359 N.am      6 UNK        -0.5000 
     45 C          -1.8059  -15.4782  -42.0042 C.2       5 UNK         0.5000 
     46 O          -2.3105  -16.3562  -42.7036 O.2       5 UNK        -0.5000 
     47 CA         -1.8177  -14.0177  -42.4949 C.3       5 UNK         0.1400 
     48 CB         -3.0244  -13.2642  -41.9166 C.3       5 UNK        -0.1800 
     49 N          -0.5915  -13.2719  -42.1926 N.am      5 UNK        -0.5000 
     50 C           0.6401  -13.6177  -42.5897 C.2       4 UNK         0.5000 
     51 O           0.8876  -14.6458  -43.2200 O.2       4 UNK        -0.5000 
     52 CA          1.7690  -12.6263  -42.2600 C.3       4 UNK         0.1400 
     53 CB          3.1459  -13.3081  -42.1906 C.3       4 UNK        -0.1800 
     54 N           1.8121  -11.5890  -43.2837 N.am      4 UNK        -0.5000 
     55 C           1.0122  -10.5203  -43.3432 C.2       3 UNK         0.5000 
     56 O           0.1921  -10.2356  -42.4692 O.2       3 UNK        -0.5000 
     57 CA          1.1194   -9.6382  -44.6017 C.3       3 UNK         0.1400 
     58 CB          2.3781   -8.7499  -44.5645 C.3       3 UNK        -0.1800 
     59 N           1.0124  -10.3836  -45.8654 N.am      3 UNK        -0.5000 
     60 C           1.8686  -11.2619  -46.4068 C.2       2 UNK         0.5000 
     61 O           2.9410  -11.5958  -45.8937 O.2       2 UNK        -0.5000 
     62 CA          1.4422  -11.8653  -47.7527 C.3       2 UNK         0.1400 
     63 CB          1.4828  -10.8161  -48.8790 C.3       2 UNK        -0.1800 
     64 N           2.3282  -12.9722  -48.0953 N.am      2 UNK        -0.5000 
     65 C           1.9800  -14.0493  -48.8093 C.2       1 UNK         0.5000 
     66 O           0.8383  -14.2351  -49.2330 O.2       1 UNK        -0.5000 
     67 C           0.2591  -22.6085  -47.6827 C.2       11 UNK         0.5000 
     68 O           0.4898  -23.6068  -48.3639 O.2       11 UNK        -0.5000 
     69 N          -0.9298  -21.9867  -47.6534 N.am      12 UNK        -0.5000 
     70 CA         -2.1069  -22.4102  -48.4141 C.3       12 UNK         0.1400 
     71 CB         -3.2547  -21.4140  -48.1978 C.3       12 UNK        -0.1800 
     72 C          -2.5594  -23.8368  -48.0617 C.2       12 UNK         0.5000 
     73 O          -2.8340  -24.6227  -48.9679 O.2       12 UNK        -0.5000 
     74 N          -2.5813  -24.1554  -46.7598 N.am      13 UNK        -0.5000 
     75 CA         -2.8922  -25.4832  -46.2331 C.3       13 UNK         0.1400 
     76 CB         -3.0274  -25.4125  -44.7046 C.3       13 UNK        -0.1800 
     77 C          -1.8583  -26.5471  -46.6451 C.2       13 UNK         0.5000 
     78 O          -2.2514  -27.6405  -47.0518 O.2       13 UNK        -0.5000 
     79 N          -0.5646  -26.2039  -46.5629 N.am      14 UNK        -0.5000 
     80 CA          0.5525  -27.0637  -46.9618 C.3       14 UNK         0.1400 
     81 CB          1.8759  -26.4403  -46.4924 C.3       14 UNK        -0.1800 
     82 C           0.5872  -27.3380  -48.4766 C.2       14 UNK         0.5000 
     83 O           0.8408  -28.4722  -48.8842 O.2       14 UNK        -0.5000 
     84 N           0.3083  -26.3030  -49.2798 N.am      15 UNK        -0.5000 
     85 CA          0.2007  -26.3804  -50.7376 C.3       15 UNK         0.1400 
     86 CB          0.2728  -24.9563  -51.3134 C.3       15 UNK        -0.1800 
     87 C          -1.0866  -27.0787  -51.2194 C.2       15 UNK         0.5000 
     88 O          -1.1353  -27.5153  -52.3700 O.2       15 UNK        -0.5000 
     89 N          -2.1038  -27.1395  -50.3463 N.am      16 UNK        -0.5000 
     90 CA         -3.4853  -27.5599  -50.6034 C.3       16 UNK         0.1400 
     91 CB         -3.5564  -29.0614  -50.9499 C.3       16 UNK        -0.1800 
     92 C          -4.1738  -26.6524  -51.6464 C.2       16 UNK         0.5000 
     93 O          -4.9058  -27.1354  -52.5129 O.2       16 UNK        -0.5000 
     94 N          -3.8964  -25.3472  -51.5511 N.am      17 UNK        -0.5000 
     95 CA         -4.3891  -24.3109  -52.4496 C.3       17 UNK         0.1400 
     96 CB         -3.2896  -23.2492  -52.6215 C.3       17 UNK        -0.1800 
     97 C          -5.6579  -23.6639  -51.8777 C.2       17 UNK         0.5000 
     98 O          -5.7785  -23.5123  -50.6593 O.2       17 UNK        -0.5000 
     99 N          -6.5572  -23.2390  -52.7726 N.am      18 UNK        -0.5000 
    100 CA        -7.6808  -22.3654  -52.4438 C.3       18 UNK         0.1400 
    101 CB        -8.7279  -22.4352  -53.5659 C.3       18 UNK        -0.1800 
    102 C         -7.1549  -20.9319  -52.2807 C.2       18 UNK         0.5000 
    103 O         -6.4808  -20.4380  -53.1874 O.2       18 UNK        -0.5000 
    104 N         -7.4646  -20.2910  -51.1470 N.am      19 UNK        -0.5000 
    105 CA        -6.9241  -18.9889  -50.7338 C.3       19 UNK         0.1400 
    106 CB        -7.3943  -18.6871  -49.3029 C.3       19 UNK        -0.1800 
    107 C         -7.2508  -17.8092  -51.6733 C.2       19 UNK         0.5000 
    108 O         -6.5577  -16.7930  -51.6270 O.2       19 UNK        -0.5000 
    109 N         -8.2783  -17.9662  -52.5198 N.am      20 UNK        -0.5000 
    110 CA        -8.6418  -17.0240  -53.5800 C.3       20 UNK         0.1400 
    111 CB        -9.9985  -17.4368  -54.1709 C.3       20 UNK        -0.1800 
    112 C         -7.5774  -16.9206  -54.6926 C.2       20 UNK         0.5000 
    113 O         -7.4427  -15.8565  -55.2982 O.2       20 UNK        -0.5000 
    114 N         -6.8418  -18.0147  -54.9313 N.am      21 UNK        -0.5000 
    115 CA        -5.7064  -18.0764  -55.8513 C.3       21 UNK         0.1400 
    116 CB        -5.8240  -19.3428  -56.7153 C.3       21 UNK        -0.1800 
    117 C         -4.3866  -18.0727  -55.0632 C.2       21 UNK         0.5000 
    118 O         -3.4842  -17.2979  -55.3830 O.2       21 UNK        -0.5000 
    119 N         -4.3245  -18.9170  -54.0266 N.am      22 UNK        -0.5000 
    120 CA        -3.1950  -19.1247  -53.1143 C.3       22 UNK         0.1400 
    121 C         -1.9125  -19.6952  -53.7956 C.2       22 UNK         0.5000 
    122 N         -0.7697  -19.6799  -53.1246 N.am      22 UNK        -0.7600 
    123 O         -1.9475  -20.2070  -54.9128 O.2       22 UNK        -0.5000 
    124 C124       -2.9555  -17.8895  -52.1936 C.3       23 UNK        -0.0398 
    125 S125       -2.8993  -18.3799  -50.4394 S.3       23 UNK        -0.2404 
    126 C126       -1.5020  -17.4204  -49.7837 C.3       23 UNK        -0.0205 
    127 H127        4.6970  -14.9456  -44.9159 H         1 UNK         0.0600 
    128 H128        5.8894  -15.1472  -46.2029 H         1 UNK         0.0600 
    129 H129        5.2161  -16.5651  -45.3928 H         1 UNK         0.0600 
    130 H130        4.9851  -14.7683  -48.2103 H         1 UNK         0.3000 
    131 H131        2.5895  -16.0743  -49.1159 H         1 UNK         0.0600 
    132 H132        4.3980  -13.9769  -50.4045 H         1 UNK         0.0800 
    133 H133        4.5261  -15.6992  -50.5979 H         1 UNK         0.0800 
    134 H134        3.7033  -16.8796  -52.6060 H         1 UNK         0.0800 
    135 H135        2.2456  -16.5220  -53.4974 H         1 UNK         0.0800 
    136 H136        0.2195  -16.0494  -51.3825 H         1 UNK         0.1150 
    137 H137       -0.2727  -19.8171  -49.4141 H         1 UNK         0.1150 
    138 H138        3.2973  -19.0230  -51.6543 H         1 UNK         0.1150 
    139 H139        1.2297  -21.6648  -50.1229 H         1 UNK         0.0800 
    140 H140        2.6377  -21.3368  -51.0776 H         1 UNK         0.0800 
    141 H141        2.6138  -20.2851  -46.5934 H         1 UNK         0.0800 
    142 H142        1.2533  -20.0231  -47.6269 H         1 UNK         0.0800 
    143 H143        2.1472  -22.8099  -46.7007 H         1 UNK         0.0600 
    144 H144        0.9203  -20.8872  -45.0546 H         1 UNK         0.3000 
    145 H145       -0.8511  -23.1405  -42.8944 H         1 UNK         0.0600 
    146 H146        0.4650  -21.8414  -41.2498 H         1 UNK         0.0600 
    147 H147        1.5034  -22.9855  -42.0866 H         1 UNK         0.0600 
    148 H148        1.5544  -21.2808  -42.5160 H         1 UNK         0.0600 
    149 H149       -0.7232  -20.3040  -42.9198 H         1 UNK         0.3000 
    150 H150       -3.5478  -19.7662  -45.0942 H         1 UNK         0.0600 
    151 H151       -4.3904  -20.1803  -42.7719 H         1 UNK         0.0600 
    152 H152       -4.2318  -18.4629  -43.1086 H         1 UNK         0.0600 
    153 H153       -3.0296  -19.2791  -42.1124 H         1 UNK         0.0600 
    154 H154       -1.8421  -17.9036  -43.8098 H         1 UNK         0.3000 
    155 H155        0.6026  -17.6298  -46.4328 H         1 UNK         0.0600 
    156 H156       -1.5105  -15.7602  -45.2328 H         1 UNK         0.0600 
    157 H157       -0.0294  -15.2553  -46.0440 H         1 UNK         0.0600 
    158 H158       -1.2870  -16.0846  -46.9432 H         1 UNK         0.0600 
    159 H159        0.5547  -16.3881  -43.9037 H         1 UNK         0.3000 
    160 H160        2.2899  -18.9075  -42.0393 H         1 UNK         0.0600 
    161 H161        3.0746  -16.1483  -43.1109 H         1 UNK         0.0600 
    162 H162        4.0392  -17.6116  -43.1775 H         1 UNK         0.0600 
    163 H163        3.6956  -16.8665  -41.6229 H         1 UNK         0.0600 
    164 H164        1.1517  -16.3173  -41.4435 H         1 UNK         0.3000 
    165 H165       -1.9763  -17.5536  -40.2458 H         1 UNK         0.0600 
    166 H166       -1.2207  -16.3737  -38.2017 H         1 UNK         0.0600 
    167 H167       -0.3733  -17.9038  -38.3614 H         1 UNK         0.0600 
    168 H168        0.4507  -16.4023  -38.7646 H         1 UNK         0.0600 
    169 H169       -0.8071  -14.9382  -40.3250 H         1 UNK         0.3000 
    170 H170       -1.9231  -14.0398  -43.5810 H         1 UNK         0.0600 
    171 H171       -3.9560  -13.7834  -42.1463 H         1 UNK         0.0600 
    172 H172       -2.9589  -13.1706  -40.8320 H         1 UNK         0.0600 
    173 H173       -3.1012  -12.2611  -42.3365 H         1 UNK         0.0600 
    174 H174       -0.7089  -12.3821  -41.7265 H         1 UNK         0.3000 
    175 H175        1.5650  -12.1770  -41.2858 H         1 UNK         0.0600 
    176 H176        3.4376  -13.7267  -43.1543 H         1 UNK         0.0600 
    177 H177        3.9185  -12.6006  -41.8893 H         1 UNK         0.0600 
    178 H178        3.1453  -14.1192  -41.4617 H         1 UNK         0.0600 
    179 H179        2.4165  -11.7594  -44.0833 H         1 UNK         0.3000 
    180 H180        0.2566   -8.9703  -44.5848 H         1 UNK         0.0600 
    181 H181        3.2969   -9.3366  -44.5511 H         1 UNK         0.0600 
    182 H182        2.3825   -8.1227  -43.6722 H         1 UNK         0.0600 
    183 H183        2.4170   -8.0862  -45.4282 H         1 UNK         0.0600 
    184 H184        0.1544  -10.2096  -46.3707 H         1 UNK         0.3000 
    185 H185        0.4215  -12.2363  -47.6366 H         1 UNK         0.0600 
    186 H186        0.8152   -9.9798  -48.6688 H         1 UNK         0.0600 
    187 H187        2.4866  -10.4107  -49.0119 H         1 UNK         0.0600 
    188 H188        1.1684  -11.2464  -49.8301 H         1 UNK         0.0600 
    189 H189        3.2505  -12.9196  -47.6827 H         1 UNK         0.3000 
    190 H190       -1.0368  -21.1495  -47.0852 H         1 UNK         0.3000 
    191 H191       -1.8343  -22.3937  -49.4711 H         1 UNK         0.0600 
    192 H192       -3.6196  -21.4317  -47.1709 H         1 UNK         0.0600 
    193 H193       -4.0974  -21.6426  -48.8519 H         1 UNK         0.0600 
    194 H194       -2.9380  -20.3957  -48.4141 H         1 UNK         0.0600 
    195 H195       -2.3790  -23.4305  -46.0770 H         1 UNK         0.3000 
    196 H196       -3.8582  -25.7838  -46.6442 H         1 UNK         0.0600 
    197 H197       -3.2787  -26.3888  -44.2885 H         1 UNK         0.0600 
    198 H198       -3.8168  -24.7202  -44.4113 H         1 UNK         0.0600 
    199 H199       -2.1021  -25.0814  -44.2325 H         1 UNK         0.0600 
    200 H200       -0.3206  -25.2960  -46.1763 H         1 UNK         0.3000 
    201 H201        0.4326  -28.0232  -46.4546 H         1 UNK         0.0600 
    202 H202        1.8945  -26.3267  -45.4084 H         1 UNK         0.0600 
    203 H203        2.0365  -25.4562  -46.9339 H         1 UNK         0.0600 
    204 H204        2.7242  -27.0678  -46.7685 H         1 UNK         0.0600 
    205 H205        0.1814  -25.3818  -48.8653 H         1 UNK         0.3000 
    206 H206        1.0508  -26.9496  -51.1189 H         1 UNK         0.0600 
    207 H207        1.2043  -24.4636  -51.0336 H         1 UNK         0.0600 
    208 H208        0.2258  -24.9694  -52.4030 H         1 UNK         0.0600 
    209 H209       -0.5522  -24.3380  -50.9566 H         1 UNK         0.0600 
    210 H210       -1.9543  -26.7082  -49.4433 H         1 UNK         0.3000 
    211 H211       -4.0250  -27.4115  -49.6670 H         1 UNK         0.0600 
    212 H212       -3.0917  -29.2809  -51.9114 H         1 UNK         0.0600 
    213 H213       -4.5918  -29.3994  -51.0038 H         1 UNK         0.0600 
    214 H214       -3.0578  -29.6635  -50.1903 H         1 UNK         0.0600 
    215 H215       -3.3852  -25.0284  -50.7314 H         1 UNK         0.3000 
    216 H216       -4.6122  -24.7420  -53.4280 H         1 UNK         0.0600 
    217 H217       -3.6051  -22.4689  -53.3154 H         1 UNK         0.0600 
    218 H218       -2.3754  -23.6885  -53.0212 H         1 UNK         0.0600 
    219 H219       -3.0422  -22.7666  -51.6750 H         1 UNK         0.0600 
    220 H220       -6.3661  -23.3628  -53.7563 H         1 UNK         0.3000 
    221 H221       -8.1437  -22.6994  -51.5126 H         1 UNK         0.0600 
    222 H222       -8.3194  -22.1093  -54.5236 H         1 UNK         0.0600 
    223 H223       -9.1036  -23.4510  -53.6907 H         1 UNK         0.0600 
    224 H224       -9.5838  -21.7978  -53.3405 H         1 UNK         0.0600 
    225 H225       -8.0337  -20.7684  -50.4627 H         1 UNK         0.3000 
    226 H226       -5.8369  -19.0840  -50.7181 H         1 UNK         0.0600 
    227 H227       -7.0676  -19.4615  -48.6086 H         1 UNK         0.0600 
    228 H228       -6.9828  -17.7416  -48.9467 H         1 UNK         0.0600 
    229 H229       -8.4810  -18.6161  -49.2439 H         1 UNK         0.0600 
    230 H230       -8.8012  -18.8281  -52.4776 H         1 UNK         0.3000 
    231 H231       -8.7493  -16.0342  -53.1314 H         1 UNK         0.0600 
    232 H232      -10.3128  -16.7410  -54.9499 H         1 UNK         0.0600 
    233 H233      -10.7768  -17.4412  -53.4077 H         1 UNK         0.0600 
    234 H234       -9.9577  -18.4317  -54.6163 H         1 UNK         0.0600 
    235 H235       -6.9916  -18.8322  -54.3512 H         1 UNK         0.3000 
    236 H236       -5.7029  -17.2123  -56.5190 H         1 UNK         0.0600 
    237 H237       -6.7303  -19.3211  -57.3205 H         1 UNK         0.0600 
    238 H238       -4.9777  -19.4288  -57.3981 H         1 UNK         0.0600 
    239 H239       -5.8502  -20.2485  -56.1078 H         1 UNK         0.0600 
    240 H240       -5.1241  -19.5203  -53.8461 H         1 UNK         0.3000 
    241 H241       -3.5444  -19.9545  -52.4988 H         1 UNK         0.0600 
    242 H242       -0.7013  -19.2824  -52.1996 H         1 UNK         0.3800 
    243 H243        0.0524  -20.0642  -53.5616 H         1 UNK         0.3800 
    244 H244       -2.0602  -17.3349  -52.4781 H         1 UNK         0.0800 
    245 H245       -3.7736  -17.1733  -52.2829 H         1 UNK         0.0800 
    246 H246       -1.6647  -16.3584  -49.9750 H         1 UNK         0.0800 
    247 H247       -1.4902  -17.5412  -48.7013 H         1 UNK         0.0800 
@<TRIPOS>BOND
     1    1    2 1    
     2    1  127 1    
     3    1  128 1    
     4    1  129 1    
     5    2    3 2    
     6    2    4 am   BACKBONE|DICT|INTERRES
     7    4    5 1    
     8    4  130 1    
     9    5    6 1    
    10    5   65 1    
    11    5  131 1    
    12    6    7 1    
    13    6  132 1    
    14    6  133 1    
    15    7    8 1    
    16    8    9 1    
    17    8  134 1    
    18    8  135 1    
    19    9   10 ar   
    20    9   14 ar   
    21   10   11 ar   
    22   10  136 1    
    23   11   12 ar   
    24   11  126 1    
    25   12   13 ar   
    26   12  137 1    
    27   13   14 ar   
    28   13   15 1    
    29   14  138 1    
    30   15   16 1    
    31   15  139 1    
    32   15  140 1    
    33   16   17 1    
    34   17   18 1    
    35   17  141 1    
    36   17  142 1    
    37   18   19 1    
    38   18   67 1    
    39   18  143 1    
    40   19   20 am   BACKBONE|DICT|INTERRES
    41   19  144 1    
    42   20   21 2    
    43   20   22 1    
    44   22   23 1    
    45   22   24 1    
    46   22  145 1    
    47   23  146 1    
    48   23  147 1    
    49   23  148 1    
    50   24   25 am   BACKBONE|DICT|INTERRES
    51   24  149 1    
    52   25   26 2    
    53   25   27 1    
    54   27   28 1    
    55   27   29 1    
    56   27  150 1    
    57   28  151 1    
    58   28  152 1    
    59   28  153 1    
    60   29   30 am   BACKBONE|DICT|INTERRES
    61   29  154 1    
    62   30   31 2    
    63   30   32 1    
    64   32   33 1    
    65   32   34 1    
    66   32  155 1    
    67   33  156 1    
    68   33  157 1    
    69   33  158 1    
    70   34   35 am   BACKBONE|DICT|INTERRES
    71   34  159 1    
    72   35   36 2    
    73   35   37 1    
    74   37   38 1    
    75   37   39 1    
    76   37  160 1    
    77   38  161 1    
    78   38  162 1    
    79   38  163 1    
    80   39   40 am   BACKBONE|DICT|INTERRES
    81   39  164 1    
    82   40   41 2    
    83   40   42 1    
    84   42   43 1    
    85   42   44 1    
    86   42  165 1    
    87   43  166 1    
    88   43  167 1    
    89   43  168 1    
    90   44   45 am   BACKBONE|DICT|INTERRES
    91   44  169 1    
    92   45   46 2    
    93   45   47 1    
    94   47   48 1    
    95   47   49 1    
    96   47  170 1    
    97   48  171 1    
    98   48  172 1    
    99   48  173 1    
   100   49   50 am   BACKBONE|DICT|INTERRES
   101   49  174 1    
   102   50   51 2    
   103   50   52 1    
   104   52   53 1    
   105   52   54 1    
   106   52  175 1    
   107   53  176 1    
   108   53  177 1    
   109   53  178 1    
   110   54   55 am   BACKBONE|DICT|INTERRES
   111   54  179 1    
   112   55   56 2    
   113   55   57 1    
   114   57   58 1    
   115   57   59 1    
   116   57  180 1    
   117   58  181 1    
   118   58  182 1    
   119   58  183 1    
   120   59   60 am   BACKBONE|DICT|INTERRES
   121   59  184 1    
   122   60   61 2    
   123   60   62 1    
   124   62   63 1    
   125   62   64 1    
   126   62  185 1    
   127   63  186 1    
   128   63  187 1    
   129   63  188 1    
   130   64   65 am   BACKBONE|DICT|INTERRES
   131   64  189 1    
   132   65   66 2    
   133   67   68 2    
   134   67   69 am   BACKBONE|DICT|INTERRES
   135   69   70 1    
   136   69  190 1    
   137   70   71 1    
   138   70   72 1    
   139   70  191 1    
   140   71  192 1    
   141   71  193 1    
   142   71  194 1    
   143   72   73 2    
   144   72   74 am   BACKBONE|DICT|INTERRES
   145   74   75 1    
   146   74  195 1    
   147   75   76 1    
   148   75   77 1    
   149   75  196 1    
   150   76  197 1    
   151   76  198 1    
   152   76  199 1    
   153   77   78 2    
   154   77   79 am   BACKBONE|DICT|INTERRES
   155   79   80 1    
   156   79  200 1    
   157   80   81 1    
   158   80   82 1    
   159   80  201 1    
   160   81  202 1    
   161   81  203 1    
   162   81  204 1    
   163   82   83 2    
   164   82   84 am   BACKBONE|DICT|INTERRES
   165   84   85 1    
   166   84  205 1    
   167   85   86 1    
   168   85   87 1    
   169   85  206 1    
   170   86  207 1    
   171   86  208 1    
   172   86  209 1    
   173   87   88 2    
   174   87   89 am   BACKBONE|DICT|INTERRES
   175   89   90 1    
   176   89  210 1    
   177   90   91 1    
   178   90   92 1    
   179   90  211 1    
   180   91  212 1    
   181   91  213 1    
   182   91  214 1    
   183   92   93 2    
   184   92   94 am   BACKBONE|DICT|INTERRES
   185   94   95 1    
   186   94  215 1    
   187   95   96 1    
   188   95   97 1    
   189   95  216 1    
   190   96  217 1    
   191   96  218 1    
   192   96  219 1    
   193   97   98 2    
   194   97   99 am   BACKBONE|DICT|INTERRES
   195   99  100 1    
   196   99  220 1    
   197  100  101 1    
   198  100  102 1    
   199  100  221 1    
   200  101  222 1    
   201  101  223 1    
   202  101  224 1    
   203  102  103 2    
   204  102  104 am   BACKBONE|DICT|INTERRES
   205  104  105 1    
   206  104  225 1    
   207  105  106 1    
   208  105  107 1    
   209  105  226 1    
   210  106  227 1    
   211  106  228 1    
   212  106  229 1    
   213  107  108 2    
   214  107  109 am   BACKBONE|DICT|INTERRES
   215  109  110 1    
   216  109  230 1    
   217  110  111 1    
   218  110  112 1    
   219  110  231 1    
   220  111  232 1    
   221  111  233 1    
   222  111  234 1    
   223  112  113 2    
   224  112  114 am   BACKBONE|DICT|INTERRES
   225  114  115 1    
   226  114  235 1    
   227  115  116 1    
   228  115  117 1    
   229  115  236 1    
   230  116  237 1    
   231  116  238 1    
   232  116  239 1    
   233  117  118 2    
   234  117  119 am   BACKBONE|DICT|INTERRES
   235  119  120 1    
   236  119  240 1    
   237  120  121 1    
   238  120  124 1    
   239  120  241 1    
   240  121  122 am   BACKBONE|DICT|INTERRES
   241  121  123 2    
   242  122  242 1    
   243  122  243 1    
   244  124  125 1    
   245  124  244 1    
   246  124  245 1    
   247  125  126 1    
   248  126  246 1    
   249  126  247 1    
@<TRIPOS>SUBSTRUCTURE
     1 UNK         1 GROUP             0       ****    0 ROOT    
