@<TRIPOS>MOLECULE
3R540
247   249    1
SMALL
USER_CHARGES


@<TRIPOS>ATOM
      1 CA          1.5265  -19.8920  -49.1631 C.3       0 UNK        -0.1800 
      2 C           1.2890  -18.5315  -48.5232 C.2       0 UNK         0.5000 
      3 O           1.1833  -18.4346  -47.3024 O.2       0 UNK        -0.5000 
      4 N           1.2109  -17.4710  -49.3351 N.am      1 UNK        -0.5000 
      5 CA          1.0473  -16.0901  -48.8769 C.3       1 UNK         0.1400 
      6 C6          0.3839  -15.2158  -49.9674 C.3       23 UNK        -0.0398 
      7 S7         -0.1662  -13.5785  -49.3691 S.3       23 UNK        -0.2404 
      8 C8         -1.5840  -13.9796  -48.2870 C.3       23 UNK        -0.0205 
      9 C9         -2.6697  -14.8296  -48.9410 C.ar      23 UNK        -0.0193 
     10 C10        -3.1198  -14.5564  -50.2378 C.ar      23 UNK        -0.1150 
     11 C11        -4.1313  -15.3236  -50.8240 C.ar      23 UNK        -0.0193 
     12 C12        -4.7143  -16.3566  -50.0830 C.ar      23 UNK        -0.1150 
     13 C13        -4.2863  -16.6339  -48.7826 C.ar      23 UNK        -0.0193 
     14 C14        -3.2583  -15.8732  -48.2195 C.ar      23 UNK        -0.1150 
     15 C15        -4.9645  -17.7359  -47.9846 C.3       23 UNK        -0.0205 
     16 S16        -4.2189  -19.3588  -48.3118 S.3       23 UNK        -0.2404 
     17 C17        -2.8687  -19.3905  -47.0819 C.3       23 UNK        -0.0398 
     18 CA         -2.0149  -20.6827  -47.1029 C.3       11 UNK         0.1400 
     19 N          -0.9444  -20.6659  -46.1035 N.am      11 UNK        -0.5000 
     20 C           0.0373  -21.5768  -46.0192 C.2       10 UNK         0.5000 
     21 O           0.1768  -22.4981  -46.8230 O.2       10 UNK        -0.5000 
     22 CA          0.9767  -21.5041  -44.8012 C.3       10 UNK         0.1400 
     23 CB          2.1213  -20.5064  -45.0148 C.3       10 UNK        -0.1800 
     24 N           0.2717  -21.1897  -43.5599 N.am      10 UNK        -0.5000 
     25 C          -0.6367  -21.9918  -42.9884 C.2       9 UNK         0.5000 
     26 O          -0.9652  -23.0868  -43.4441 O.2       9 UNK        -0.5000 
     27 CA         -1.3164  -21.4667  -41.7144 C.3       9 UNK         0.1400 
     28 CB         -0.4047  -21.6485  -40.4914 C.3       9 UNK        -0.1800 
     29 N          -1.6938  -20.0604  -41.8373 N.am      9 UNK        -0.5000 
     30 C          -2.6824  -19.6052  -42.6187 C.2       8 UNK         0.5000 
     31 O          -3.3942  -20.3268  -43.3188 O.2       8 UNK        -0.5000 
     32 CA         -2.8679  -18.0762  -42.6527 C.3       8 UNK         0.1400 
     33 CB         -3.5629  -17.5766  -41.3771 C.3       8 UNK        -0.1800 
     34 N          -1.5971  -17.3693  -42.8248 N.am      8 UNK        -0.5000 
     35 C          -0.8401  -17.4643  -43.9264 C.2       7 UNK         0.5000 
     36 O          -1.1671  -18.1105  -44.9158 O.2       7 UNK        -0.5000 
     37 CA          0.5206  -16.7527  -43.9292 C.3       7 UNK         0.1400 
     38 CB          0.3787  -15.3618  -44.5601 C.3       7 UNK        -0.1800 
     39 N           1.1520  -16.6475  -42.6111 N.am      7 UNK        -0.5000 
     40 C           1.4777  -17.6892  -41.8269 C.2       6 UNK         0.5000 
     41 O           1.2401  -18.8598  -42.1278 O.2       6 UNK        -0.5000 
     42 CA          2.1804  -17.4002  -40.4835 C.3       6 UNK         0.1400 
     43 CB          3.6586  -17.8116  -40.5629 C.3       6 UNK        -0.1800 
     44 N           2.1074  -16.0032  -40.0549 N.am      6 UNK        -0.5000 
     45 C           0.9961  -15.3594  -39.6720 C.2       5 UNK         0.5000 
     46 O          -0.1032  -15.9041  -39.5626 O.2       5 UNK        -0.5000 
     47 CA          1.1277  -13.8413  -39.4130 C.3       5 UNK         0.1400 
     48 CB          1.2677  -13.5660  -37.9082 C.3       5 UNK        -0.1800 
     49 N           2.2388  -13.1886  -40.1238 N.am      5 UNK        -0.5000 
     50 C           2.4103  -13.1904  -41.4535 C.2       4 UNK         0.5000 
     51 O           1.6545  -13.7853  -42.2230 O.2       4 UNK        -0.5000 
     52 CA          3.6598  -12.4669  -41.9973 C.3       4 UNK         0.1400 
     53 CB          4.9398  -13.2002  -41.5614 C.3       4 UNK        -0.1800 
     54 N           3.6556  -12.3961  -43.4586 N.am      4 UNK        -0.5000 
     55 C           2.8414  -11.6472  -44.2104 C.2       3 UNK         0.5000 
     56 O           2.0849  -10.7927  -43.7465 O.2       3 UNK        -0.5000 
     57 CA          2.8435  -11.9058  -45.7333 C.3       3 UNK         0.1400 
     58 CB          3.8370  -10.9768  -46.4565 C.3       3 UNK        -0.1800 
     59 N           3.0355  -13.3127  -46.1252 N.am      3 UNK        -0.5000 
     60 C           4.1237  -14.0898  -46.0110 C.2       2 UNK         0.5000 
     61 O           5.1860  -13.7027  -45.5237 O.2       2 UNK        -0.5000 
     62 CA          4.0044  -15.5630  -46.4590 C.3       2 UNK         0.1400 
     63 CB          4.1760  -16.5022  -45.2523 C.3       2 UNK        -0.1800 
     64 N           2.7447  -15.8984  -47.1298 N.am      2 UNK        -0.5000 
     65 C           2.4039  -15.5464  -48.3757 C.2       1 UNK         0.5000 
     66 O           3.1202  -14.8699  -49.1149 O.2       1 UNK        -0.5000 
     67 C          -2.8727  -21.9563  -46.9797 C.2       11 UNK         0.5000 
     68 O          -3.1200  -22.5995  -47.9980 O.2       11 UNK        -0.5000 
     69 N          -3.2722  -22.3200  -45.7526 N.am      12 UNK        -0.5000 
     70 CA         -4.0452  -23.5323  -45.4768 C.3       12 UNK         0.1400 
     71 CB         -4.4851  -23.5385  -44.0050 C.3       12 UNK        -0.1800 
     72 C          -3.2875  -24.8271  -45.8317 C.2       12 UNK         0.5000 
     73 O          -3.8951  -25.7588  -46.3600 O.2       12 UNK        -0.5000 
     74 N          -1.9781  -24.8545  -45.5515 N.am      13 UNK        -0.5000 
     75 CA         -1.0917  -25.9790  -45.8396 C.3       13 UNK         0.1400 
     76 CB          0.2060  -25.8227  -45.0310 C.3       13 UNK        -0.1800 
     77 C          -0.7821  -26.1361  -47.3398 C.2       13 UNK         0.5000 
     78 O          -0.9048  -27.2410  -47.8700 O.2       13 UNK        -0.5000 
     79 N          -0.3623  -25.0424  -47.9897 N.am      14 UNK        -0.5000 
     80 CA          0.1633  -25.0493  -49.3580 C.3       14 UNK         0.1400 
     81 CB          1.3343  -24.0548  -49.4353 C.3       14 UNK        -0.1800 
     82 C          -0.8887  -24.7166  -50.4315 C.2       14 UNK         0.5000 
     83 O          -0.5432  -24.7055  -51.6136 O.2       14 UNK        -0.5000 
     84 N          -2.1249  -24.3965  -50.0238 N.am      15 UNK        -0.5000 
     85 CA         -3.2381  -23.9295  -50.8610 C.3       15 UNK         0.1400 
     86 CB         -3.7202  -25.0428  -51.8145 C.3       15 UNK        -0.1800 
     87 C          -2.8918  -22.6178  -51.5954 C.2       15 UNK         0.5000 
     88 O          -3.1362  -22.5021  -52.7970 O.2       15 UNK        -0.5000 
     89 N          -2.3021  -21.6643  -50.8591 N.am      16 UNK        -0.5000 
     90 CA         -1.7313  -20.3965  -51.3459 C.3       16 UNK         0.1400 
     91 CB         -2.8264  -19.4323  -51.8524 C.3       16 UNK        -0.1800 
     92 C          -0.5990  -20.6062  -52.3774 C.2       16 UNK         0.5000 
     93 O          -0.4790  -19.8348  -53.3287 O.2       16 UNK        -0.5000 
     94 N           0.2059  -21.6575  -52.1585 N.am      17 UNK        -0.5000 
     95 CA          1.2658  -22.1635  -53.0372 C.3       17 UNK         0.1400 
     96 CB          2.4017  -21.1328  -53.2111 C.3       17 UNK        -0.1800 
     97 C           0.6903  -22.6872  -54.3684 C.2       17 UNK         0.5000 
     98 O           1.0877  -22.2355  -55.4440 O.2       17 UNK        -0.5000 
     99 N          -0.2469  -23.6391  -54.2452 N.am      18 UNK        -0.5000 
    100 CA        -0.9715  -24.3264  -55.3185 C.3       18 UNK         0.1400 
    101 CB        -0.0169  -25.2315  -56.1251 C.3       18 UNK        -0.1800 
    102 C         -1.7956  -23.3674  -56.2041 C.2       18 UNK         0.5000 
    103 O         -1.7596  -23.4672  -57.4323 O.2       18 UNK        -0.5000 
    104 N         -2.5340  -22.4608  -55.5545 N.am      19 UNK        -0.5000 
    105 CA        -3.4103  -21.4675  -56.1765 C.3       19 UNK         0.1400 
    106 CB        -2.8107  -20.0661  -55.9669 C.3       19 UNK        -0.1800 
    107 C         -4.8460  -21.5802  -55.6271 C.2       19 UNK         0.5000 
    108 O         -5.5775  -20.5890  -55.6179 O.2       19 UNK        -0.5000 
    109 N         -5.2202  -22.7827  -55.1587 N.am      20 UNK        -0.5000 
    110 CA        -6.5326  -23.1653  -54.6183 C.3       20 UNK         0.1400 
    111 CB        -7.5798  -23.2104  -55.7502 C.3       20 UNK        -0.1800 
    112 C         -6.9868  -22.2967  -53.4245 C.2       20 UNK         0.5000 
    113 O         -8.1746  -21.9927  -53.2951 O.2       20 UNK        -0.5000 
    114 N         -6.0167  -21.8671  -52.6024 N.am      21 UNK        -0.5000 
    115 CA        -6.1628  -20.9474  -51.4645 C.3       21 UNK         0.1400 
    116 CB        -6.9608  -21.6123  -50.3248 C.3       21 UNK        -0.1800 
    117 C         -6.7215  -19.5614  -51.8637 C.2       21 UNK         0.5000 
    118 O         -7.3268  -18.8823  -51.0334 O.2       21 UNK        -0.5000 
    119 N         -6.5313  -19.1862  -53.1375 N.am      22 UNK        -0.5000 
    120 CA        -7.1210  -18.0172  -53.8089 C.3       22 UNK         0.1400 
    121 C         -8.6711  -18.0937  -53.9810 C.2       22 UNK         0.5000 
    122 N         -9.3031  -19.2557  -53.8506 N.am      22 UNK        -0.7600 
    123 O         -9.3170  -17.0899  -54.2706 O.2       22 UNK        -0.5000 
    124 C124       -6.6422  -16.6576  -53.2273 C.3       23 UNK        -0.0398 
    125 S125       -4.8283  -16.4546  -53.3029 S.3       23 UNK        -0.2404 
    126 C126       -4.6027  -14.9910  -52.2373 C.3       23 UNK        -0.0205 
    127 H127        1.6619  -19.8137  -50.2414 H         1 UNK         0.0600 
    128 H128        0.6827  -20.5522  -48.9700 H         1 UNK         0.0600 
    129 H129        2.4193  -20.3530  -48.7408 H         1 UNK         0.0600 
    130 H130        1.3459  -17.5918  -50.3286 H         1 UNK         0.3000 
    131 H131        0.3643  -16.1059  -48.0253 H         1 UNK         0.0600 
    132 H132       -0.4810  -15.7348  -50.3820 H         1 UNK         0.0800 
    133 H133        1.0622  -15.0653  -50.8089 H         1 UNK         0.0800 
    134 H134       -2.0373  -13.0443  -47.9565 H         1 UNK         0.0800 
    135 H135       -1.2101  -14.4652  -47.3861 H         1 UNK         0.0800 
    136 H136       -2.6797  -13.7398  -50.7926 H         1 UNK         0.1150 
    137 H137       -5.5071  -16.9501  -50.5126 H         1 UNK         0.1150 
    138 H138       -2.9305  -16.0844  -47.2110 H         1 UNK         0.1150 
    139 H139       -4.9346  -17.5151  -46.9166 H         1 UNK         0.0800 
    140 H140       -6.0209  -17.7812  -48.2545 H         1 UNK         0.0800 
    141 H141       -3.3030  -19.2426  -46.0917 H         1 UNK         0.0800 
    142 H142       -2.2245  -18.5309  -47.2706 H         1 UNK         0.0800 
    143 H143       -1.5267  -20.7244  -48.0772 H         1 UNK         0.0600 
    144 H144       -0.9596  -19.8859  -45.4513 H         1 UNK         0.3000 
    145 H145        1.4236  -22.4935  -44.6844 H         1 UNK         0.0600 
    146 H146        2.8711  -20.5944  -44.2286 H         1 UNK         0.0600 
    147 H147        2.6223  -20.6770  -45.9685 H         1 UNK         0.0600 
    148 H148        1.7589  -19.4809  -45.0100 H         1 UNK         0.0600 
    149 H149        0.5119  -20.3137  -43.1025 H         1 UNK         0.3000 
    150 H150       -2.2236  -22.0529  -41.5530 H         1 UNK         0.0600 
    151 H151       -0.1227  -22.6950  -40.3686 H         1 UNK         0.0600 
    152 H152       -0.9079  -21.3382  -39.5756 H         1 UNK         0.0600 
    153 H153        0.5151  -21.0693  -40.5814 H         1 UNK         0.0600 
    154 H154       -1.1132  -19.3918  -41.3522 H         1 UNK         0.3000 
    155 H155       -3.5080  -17.8376  -43.5050 H         1 UNK         0.0600 
    156 H156       -2.9514  -17.7451  -40.4897 H         1 UNK         0.0600 
    157 H157       -4.5137  -18.0890  -41.2244 H         1 UNK         0.0600 
    158 H158       -3.7758  -16.5092  -41.4380 H         1 UNK         0.0600 
    159 H159       -1.2569  -16.8242  -42.0451 H         1 UNK         0.3000 
    160 H160        1.1888  -17.3368  -44.5622 H         1 UNK         0.0600 
    161 H161       -0.2858  -14.7220  -43.9783 H         1 UNK         0.0600 
    162 H162       -0.0285  -15.4314  -45.5684 H         1 UNK         0.0600 
    163 H163        1.3431  -14.8635  -44.6306 H         1 UNK         0.0600 
    164 H164        1.3686  -15.7051  -42.2989 H         1 UNK         0.3000 
    165 H165        1.6923  -18.0144  -39.7242 H         1 UNK         0.0600 
    166 H166        4.1558  -17.6875  -39.6006 H         1 UNK         0.0600 
    167 H167        3.7590  -18.8606  -40.8450 H         1 UNK         0.0600 
    168 H168        4.2012  -17.2201  -41.3017 H         1 UNK         0.0600 
    169 H169        2.9615  -15.4696  -40.1165 H         1 UNK         0.3000 
    170 H170        0.2023  -13.3773  -39.7601 H         1 UNK         0.0600 
    171 H171        0.4436  -14.0127  -37.3500 H         1 UNK         0.0600 
    172 H172        2.1956  -13.9774  -37.5091 H         1 UNK         0.0600 
    173 H173        1.2561  -12.4961  -37.6991 H         1 UNK         0.0600 
    174 H174        2.9049  -12.6936  -39.5482 H         1 UNK         0.3000 
    175 H175        3.6723  -11.4514  -41.5968 H         1 UNK         0.0600 
    176 H176        4.9559  -14.2294  -41.9231 H         1 UNK         0.0600 
    177 H177        5.8291  -12.6992  -41.9446 H         1 UNK         0.0600 
    178 H178        5.0332  -13.2308  -40.4753 H         1 UNK         0.0600 
    179 H179        4.2624  -13.0440  -43.9492 H         1 UNK         0.3000 
    180 H180        1.8443  -11.6454  -46.0864 H         1 UNK         0.0600 
    181 H181        4.8642  -11.1433  -46.1318 H         1 UNK         0.0600 
    182 H182        3.6016   -9.9301  -46.2600 H         1 UNK         0.0600 
    183 H183        3.7975  -11.1217  -47.5361 H         1 UNK         0.0600 
    184 H184        2.2164  -13.7527  -46.5169 H         1 UNK         0.3000 
    185 H185        4.8209  -15.7547  -47.1581 H         1 UNK         0.0600 
    186 H186        5.1608  -16.3802  -44.7995 H         1 UNK         0.0600 
    187 H187        3.4372  -16.3026  -44.4763 H         1 UNK         0.0600 
    188 H188        4.0832  -17.5486  -45.5449 H         1 UNK         0.0600 
    189 H189        2.1392  -16.5543  -46.6519 H         1 UNK         0.3000 
    190 H190       -3.0434  -21.7330  -44.9587 H         1 UNK         0.3000 
    191 H191       -4.9437  -23.4979  -46.0966 H         1 UNK         0.0600 
    192 H192       -3.6311  -23.5459  -43.3276 H         1 UNK         0.0600 
    193 H193       -5.0891  -24.4188  -43.7817 H         1 UNK         0.0600 
    194 H194       -5.0888  -22.6615  -43.7709 H         1 UNK         0.0600 
    195 H195       -1.5711  -24.0673  -45.0554 H         1 UNK         0.3000 
    196 H196       -1.5845  -26.8942  -45.5044 H         1 UNK         0.0600 
    197 H197        0.8862  -26.6548  -45.2168 H         1 UNK         0.0600 
    198 H198        0.0017  -25.8019  -43.9604 H         1 UNK         0.0600 
    199 H199        0.7330  -24.9028  -45.2866 H         1 UNK         0.0600 
    200 H200       -0.2787  -24.1626  -47.4830 H         1 UNK         0.3000 
    201 H201        0.5572  -26.0401  -49.5935 H         1 UNK         0.0600 
    202 H202        2.0715  -24.2518  -48.6568 H         1 UNK         0.0600 
    203 H203        0.9985  -23.0240  -49.3223 H         1 UNK         0.0600 
    204 H204        1.8514  -24.1310  -50.3919 H         1 UNK         0.0600 
    205 H205       -2.2964  -24.3580  -49.0262 H         1 UNK         0.3000 
    206 H206       -4.0653  -23.6978  -50.1892 H         1 UNK         0.0600 
    207 H207       -4.6238  -24.7386  -52.3435 H         1 UNK         0.0600 
    208 H208       -3.9586  -25.9534  -51.2653 H         1 UNK         0.0600 
    209 H209       -2.9707  -25.2919  -52.5658 H         1 UNK         0.0600 
    210 H210       -2.2077  -21.8546  -49.8693 H         1 UNK         0.3000 
    211 H211       -1.2620  -19.9187  -50.4854 H         1 UNK         0.0600 
    212 H212       -2.3975  -18.4943  -52.2071 H         1 UNK         0.0600 
    213 H213       -3.5204  -19.1650  -51.0596 H         1 UNK         0.0600 
    214 H214       -3.4023  -19.8566  -52.6736 H         1 UNK         0.0600 
    215 H215       -0.0166  -22.2527  -51.3753 H         1 UNK         0.3000 
    216 H216        1.6961  -23.0297  -52.5336 H         1 UNK         0.0600 
    217 H217        3.2290  -21.5624  -53.7770 H         1 UNK         0.0600 
    218 H218        2.7993  -20.8180  -52.2467 H         1 UNK         0.0600 
    219 H219        2.0727  -20.2423  -53.7467 H         1 UNK         0.0600 
    220 H220       -0.4748  -23.9522  -53.3034 H         1 UNK         0.3000 
    221 H221       -1.6951  -24.9760  -54.8241 H         1 UNK         0.0600 
    222 H222        0.7184  -24.6512  -56.6831 H         1 UNK         0.0600 
    223 H223        0.5226  -25.9161  -55.4706 H         1 UNK         0.0600 
    224 H224       -0.5682  -25.8386  -56.8440 H         1 UNK         0.0600 
    225 H225       -2.5374  -22.4649  -54.5357 H         1 UNK         0.3000 
    226 H226       -3.4842  -21.6447  -57.2509 H         1 UNK         0.0600 
    227 H227       -2.7771  -19.7983  -54.9117 H         1 UNK         0.0600 
    228 H228       -1.7934  -20.0118  -56.3549 H         1 UNK         0.0600 
    229 H229       -3.3962  -19.3035  -56.4818 H         1 UNK         0.0600 
    230 H230       -4.5272  -23.5167  -55.1809 H         1 UNK         0.3000 
    231 H231       -6.4226  -24.1783  -54.2292 H         1 UNK         0.0600 
    232 H232       -7.2459  -23.8448  -56.5712 H         1 UNK         0.0600 
    233 H233       -7.7804  -22.2173  -56.1539 H         1 UNK         0.0600 
    234 H234       -8.5271  -23.6165  -55.3936 H         1 UNK         0.0600 
    235 H235       -5.0626  -22.1283  -52.8328 H         1 UNK         0.3000 
    236 H236       -5.1607  -20.7694  -51.0810 H         1 UNK         0.0600 
    237 H237       -6.9423  -20.9958  -49.4251 H         1 UNK         0.0600 
    238 H238       -6.5365  -22.5804  -50.0592 H         1 UNK         0.0600 
    239 H239       -8.0058  -21.7643  -50.5959 H         1 UNK         0.0600 
    240 H240       -6.0508  -19.8227  -53.7634 H         1 UNK         0.3000 
    241 H241       -6.7448  -18.0681  -54.8311 H         1 UNK         0.0600 
    242 H242      -10.3021  -19.2882  -53.9762 H         1 UNK         0.3800 
    243 H243       -8.8016  -20.1087  -53.6258 H         1 UNK         0.3800 
    244 H244       -7.0761  -15.8305  -53.7914 H         1 UNK         0.0800 
    245 H245       -6.9893  -16.5343  -52.2016 H         1 UNK         0.0800 
    246 H246       -5.5294  -14.4189  -52.1789 H         1 UNK         0.0800 
    247 H247       -3.8768  -14.3403  -52.7273 H         1 UNK         0.0800 
@<TRIPOS>BOND
     1    1    2 1    
     2    1  127 1    
     3    1  128 1    
     4    1  129 1    
     5    2    3 2    
     6    2    4 am   BACKBONE|DICT|INTERRES
     7    4    5 1    
     8    4  130 1    
     9    5    6 1    
    10    5   65 1    
    11    5  131 1    
    12    6    7 1    
    13    6  132 1    
    14    6  133 1    
    15    7    8 1    
    16    8    9 1    
    17    8  134 1    
    18    8  135 1    
    19    9   10 ar   
    20    9   14 ar   
    21   10   11 ar   
    22   10  136 1    
    23   11   12 ar   
    24   11  126 1    
    25   12   13 ar   
    26   12  137 1    
    27   13   14 ar   
    28   13   15 1    
    29   14  138 1    
    30   15   16 1    
    31   15  139 1    
    32   15  140 1    
    33   16   17 1    
    34   17   18 1    
    35   17  141 1    
    36   17  142 1    
    37   18   19 1    
    38   18   67 1    
    39   18  143 1    
    40   19   20 am   BACKBONE|DICT|INTERRES
    41   19  144 1    
    42   20   21 2    
    43   20   22 1    
    44   22   23 1    
    45   22   24 1    
    46   22  145 1    
    47   23  146 1    
    48   23  147 1    
    49   23  148 1    
    50   24   25 am   BACKBONE|DICT|INTERRES
    51   24  149 1    
    52   25   26 2    
    53   25   27 1    
    54   27   28 1    
    55   27   29 1    
    56   27  150 1    
    57   28  151 1    
    58   28  152 1    
    59   28  153 1    
    60   29   30 am   BACKBONE|DICT|INTERRES
    61   29  154 1    
    62   30   31 2    
    63   30   32 1    
    64   32   33 1    
    65   32   34 1    
    66   32  155 1    
    67   33  156 1    
    68   33  157 1    
    69   33  158 1    
    70   34   35 am   BACKBONE|DICT|INTERRES
    71   34  159 1    
    72   35   36 2    
    73   35   37 1    
    74   37   38 1    
    75   37   39 1    
    76   37  160 1    
    77   38  161 1    
    78   38  162 1    
    79   38  163 1    
    80   39   40 am   BACKBONE|DICT|INTERRES
    81   39  164 1    
    82   40   41 2    
    83   40   42 1    
    84   42   43 1    
    85   42   44 1    
    86   42  165 1    
    87   43  166 1    
    88   43  167 1    
    89   43  168 1    
    90   44   45 am   BACKBONE|DICT|INTERRES
    91   44  169 1    
    92   45   46 2    
    93   45   47 1    
    94   47   48 1    
    95   47   49 1    
    96   47  170 1    
    97   48  171 1    
    98   48  172 1    
    99   48  173 1    
   100   49   50 am   BACKBONE|DICT|INTERRES
   101   49  174 1    
   102   50   51 2    
   103   50   52 1    
   104   52   53 1    
   105   52   54 1    
   106   52  175 1    
   107   53  176 1    
   108   53  177 1    
   109   53  178 1    
   110   54   55 am   BACKBONE|DICT|INTERRES
   111   54  179 1    
   112   55   56 2    
   113   55   57 1    
   114   57   58 1    
   115   57   59 1    
   116   57  180 1    
   117   58  181 1    
   118   58  182 1    
   119   58  183 1    
   120   59   60 am   BACKBONE|DICT|INTERRES
   121   59  184 1    
   122   60   61 2    
   123   60   62 1    
   124   62   63 1    
   125   62   64 1    
   126   62  185 1    
   127   63  186 1    
   128   63  187 1    
   129   63  188 1    
   130   64   65 am   BACKBONE|DICT|INTERRES
   131   64  189 1    
   132   65   66 2    
   133   67   68 2    
   134   67   69 am   BACKBONE|DICT|INTERRES
   135   69   70 1    
   136   69  190 1    
   137   70   71 1    
   138   70   72 1    
   139   70  191 1    
   140   71  192 1    
   141   71  193 1    
   142   71  194 1    
   143   72   73 2    
   144   72   74 am   BACKBONE|DICT|INTERRES
   145   74   75 1    
   146   74  195 1    
   147   75   76 1    
   148   75   77 1    
   149   75  196 1    
   150   76  197 1    
   151   76  198 1    
   152   76  199 1    
   153   77   78 2    
   154   77   79 am   BACKBONE|DICT|INTERRES
   155   79   80 1    
   156   79  200 1    
   157   80   81 1    
   158   80   82 1    
   159   80  201 1    
   160   81  202 1    
   161   81  203 1    
   162   81  204 1    
   163   82   83 2    
   164   82   84 am   BACKBONE|DICT|INTERRES
   165   84   85 1    
   166   84  205 1    
   167   85   86 1    
   168   85   87 1    
   169   85  206 1    
   170   86  207 1    
   171   86  208 1    
   172   86  209 1    
   173   87   88 2    
   174   87   89 am   BACKBONE|DICT|INTERRES
   175   89   90 1    
   176   89  210 1    
   177   90   91 1    
   178   90   92 1    
   179   90  211 1    
   180   91  212 1    
   181   91  213 1    
   182   91  214 1    
   183   92   93 2    
   184   92   94 am   BACKBONE|DICT|INTERRES
   185   94   95 1    
   186   94  215 1    
   187   95   96 1    
   188   95   97 1    
   189   95  216 1    
   190   96  217 1    
   191   96  218 1    
   192   96  219 1    
   193   97   98 2    
   194   97   99 am   BACKBONE|DICT|INTERRES
   195   99  100 1    
   196   99  220 1    
   197  100  101 1    
   198  100  102 1    
   199  100  221 1    
   200  101  222 1    
   201  101  223 1    
   202  101  224 1    
   203  102  103 2    
   204  102  104 am   BACKBONE|DICT|INTERRES
   205  104  105 1    
   206  104  225 1    
   207  105  106 1    
   208  105  107 1    
   209  105  226 1    
   210  106  227 1    
   211  106  228 1    
   212  106  229 1    
   213  107  108 2    
   214  107  109 am   BACKBONE|DICT|INTERRES
   215  109  110 1    
   216  109  230 1    
   217  110  111 1    
   218  110  112 1    
   219  110  231 1    
   220  111  232 1    
   221  111  233 1    
   222  111  234 1    
   223  112  113 2    
   224  112  114 am   BACKBONE|DICT|INTERRES
   225  114  115 1    
   226  114  235 1    
   227  115  116 1    
   228  115  117 1    
   229  115  236 1    
   230  116  237 1    
   231  116  238 1    
   232  116  239 1    
   233  117  118 2    
   234  117  119 am   BACKBONE|DICT|INTERRES
   235  119  120 1    
   236  119  240 1    
   237  120  121 1    
   238  120  124 1    
   239  120  241 1    
   240  121  122 am   BACKBONE|DICT|INTERRES
   241  121  123 2    
   242  122  242 1    
   243  122  243 1    
   244  124  125 1    
   245  124  244 1    
   246  124  245 1    
   247  125  126 1    
   248  126  246 1    
   249  126  247 1    
@<TRIPOS>SUBSTRUCTURE
     1 UNK         1 GROUP             0       ****    0 ROOT    
