@<TRIPOS>MOLECULE
3R540
247   249    1
SMALL
USER_CHARGES


@<TRIPOS>ATOM
      1 CA         -5.5145  -18.5343  -47.8376 C.3       0 UNK        -0.1800 
      2 C          -4.8120  -17.1899  -47.9698 C.2       0 UNK         0.5000 
      3 O          -5.1119  -16.4241  -48.8857 O.2       0 UNK        -0.5000 
      4 N          -3.8838  -16.9038  -47.0509 N.am      1 UNK        -0.5000 
      5 CA         -3.1631  -15.6331  -46.9543 C.3       1 UNK         0.1400 
      6 C6         -1.8119  -15.8322  -46.2229 C.3       23 UNK        -0.0398 
      7 S7         -0.6069  -14.4931  -46.5407 S.3       23 UNK        -0.2404 
      8 C8          0.7601  -15.3552  -47.3783 C.3       23 UNK        -0.0205 
      9 C9          0.3046  -16.0607  -48.6467 C.ar      23 UNK        -0.0193 
     10 C10         0.0484  -15.3313  -49.8113 C.ar      23 UNK        -0.1150 
     11 C11        -0.3960  -15.9776  -50.9696 C.ar      23 UNK        -0.0193 
     12 C12        -0.5927  -17.3603  -50.9503 C.ar      23 UNK        -0.1150 
     13 C13        -0.3354  -18.1003  -49.7938 C.ar      23 UNK        -0.0193 
     14 C14         0.1279  -17.4465  -48.6516 C.ar      23 UNK        -0.1150 
     15 C15        -0.5588  -19.6025  -49.7825 C.3       23 UNK        -0.0205 
     16 S16        -2.2181  -20.0242  -49.1586 S.3       23 UNK        -0.2404 
     17 C17        -1.8568  -20.3644  -47.4059 C.3       23 UNK        -0.0398 
     18 CA         -1.5850  -21.8753  -47.1663 C.3       11 UNK         0.1400 
     19 N          -0.2775  -22.1226  -46.5537 N.am      11 UNK        -0.5000 
     20 C           0.2878  -23.3311  -46.4241 C.2       10 UNK         0.5000 
     21 O          -0.2176  -24.3696  -46.8456 O.2       10 UNK        -0.5000 
     22 CA          1.6119  -23.3981  -45.6451 C.3       10 UNK         0.1400 
     23 CB          2.8054  -23.0589  -46.5509 C.3       10 UNK        -0.1800 
     24 N           1.6011  -22.5135  -44.4802 N.am      10 UNK        -0.5000 
     25 C           0.8474  -22.7133  -43.3897 C.2       9 UNK         0.5000 
     26 O           0.1186  -23.6934  -43.2330 O.2       9 UNK        -0.5000 
     27 CA          0.8787  -21.6065  -42.3195 C.3       9 UNK         0.1400 
     28 CB          2.1066  -21.7624  -41.4107 C.3       9 UNK        -0.1800 
     29 N           0.8720  -20.2640  -42.9041 N.am      9 UNK        -0.5000 
     30 C          -0.1653  -19.7439  -43.5779 C.2       8 UNK         0.5000 
     31 O          -1.2325  -20.3316  -43.7488 O.2       8 UNK        -0.5000 
     32 CA          0.0364  -18.3610  -44.2256 C.3       8 UNK         0.1400 
     33 CB         -0.2884  -17.2473  -43.2191 C.3       8 UNK        -0.1800 
     34 N           1.3845  -18.1487  -44.7522 N.am      8 UNK        -0.5000 
     35 C           2.0196  -18.9532  -45.6186 C.2       7 UNK         0.5000 
     36 O           1.4691  -19.8956  -46.1853 O.2       7 UNK        -0.5000 
     37 CA          3.5219  -18.7057  -45.8681 C.3       7 UNK         0.1400 
     38 CB          3.7397  -18.1093  -47.2670 C.3       7 UNK        -0.1800 
     39 N           4.1617  -17.8384  -44.8759 N.am      7 UNK        -0.5000 
     40 C           4.2129  -18.0439  -43.5506 C.2       6 UNK         0.5000 
     41 O           3.8106  -19.0722  -43.0037 O.2       6 UNK        -0.5000 
     42 CA          4.7286  -16.8735  -42.6868 C.3       6 UNK         0.1400 
     43 CB          6.1599  -17.1536  -42.2051 C.3       6 UNK        -0.1800 
     44 N           4.6976  -15.5665  -43.3589 N.am      6 UNK        -0.5000 
     45 C           3.6034  -14.9444  -43.8220 C.2       5 UNK         0.5000 
     46 O           2.4613  -15.4060  -43.7433 O.2       5 UNK        -0.5000 
     47 CA          3.8480  -13.6214  -44.5584 C.3       5 UNK         0.1400 
     48 CB          4.4649  -13.8804  -45.9468 C.3       5 UNK        -0.1800 
     49 N           2.5886  -12.9000  -44.7083 N.am      5 UNK        -0.5000 
     50 C           2.4769  -11.5808  -44.9061 C.2       4 UNK         0.5000 
     51 O           3.4426  -10.8177  -44.9594 O.2       4 UNK        -0.5000 
     52 CA          1.0603  -11.0055  -45.0914 C.3       4 UNK         0.1400 
     53 CB          0.7676  -10.7791  -46.5833 C.3       4 UNK        -0.1800 
     54 N           0.0086  -11.8561  -44.5374 N.am      4 UNK        -0.5000 
     55 C          -0.3252  -11.9283  -43.2423 C.2       3 UNK         0.5000 
     56 O           0.2562  -11.3043  -42.3531 O.2       3 UNK        -0.5000 
     57 CA         -1.5147  -12.8533  -42.9023 C.3       3 UNK         0.1400 
     58 CB         -2.1500  -12.5502  -41.5295 C.3       3 UNK        -0.1800 
     59 N          -2.5304  -12.8843  -43.9642 N.am      3 UNK        -0.5000 
     60 C          -3.2983  -11.8752  -44.4095 C.2       2 UNK         0.5000 
     61 O          -3.3065  -10.7523  -43.9036 O.2       2 UNK        -0.5000 
     62 CA         -4.1775  -12.1576  -45.6533 C.3       2 UNK         0.1400 
     63 CB         -4.2460  -10.9371  -46.5885 C.3       2 UNK        -0.1800 
     64 N          -3.6889  -13.3034  -46.4273 N.am      2 UNK        -0.5000 
     65 C          -4.0223  -14.5820  -46.2182 C.2       1 UNK         0.5000 
     66 O          -4.8870  -14.9373  -45.4138 O.2       1 UNK        -0.5000 
     67 C          -2.7269  -22.5511  -46.3811 C.2       11 UNK         0.5000 
     68 O          -3.6023  -23.1610  -46.9945 O.2       11 UNK        -0.5000 
     69 N          -2.6739  -22.4743  -45.0434 N.am      12 UNK        -0.5000 
     70 CA         -3.5966  -23.1575  -44.1366 C.3       12 UNK         0.1400 
     71 CB         -3.3578  -22.6829  -42.6956 C.3       12 UNK        -0.1800 
     72 C          -3.4948  -24.6900  -44.2375 C.2       12 UNK         0.5000 
     73 O          -4.5264  -25.3571  -44.3176 O.2       12 UNK        -0.5000 
     74 N          -2.2626  -25.2184  -44.2903 N.am      13 UNK        -0.5000 
     75 CA         -1.9781  -26.6432  -44.4935 C.3       13 UNK         0.1400 
     76 CB         -0.4755  -26.9001  -44.3057 C.3       13 UNK        -0.1800 
     77 C          -2.4580  -27.1664  -45.8630 C.2       13 UNK         0.5000 
     78 O          -2.9357  -28.2978  -45.9502 O.2       13 UNK        -0.5000 
     79 N          -2.3676  -26.3161  -46.8939 N.am      14 UNK        -0.5000 
     80 CA         -2.8860  -26.5504  -48.2428 C.3       14 UNK         0.1400 
     81 CB         -2.1384  -25.6320  -49.2256 C.3       14 UNK        -0.1800 
     82 C          -4.4109  -26.3433  -48.3676 C.2       14 UNK         0.5000 
     83 O          -4.9394  -26.4952  -49.4687 O.2       14 UNK        -0.5000 
     84 N          -5.0917  -25.9663  -47.2734 N.am      15 UNK        -0.5000 
     85 CA         -6.5265  -25.6684  -47.1824 C.3       15 UNK         0.1400 
     86 CB         -7.3603  -26.9533  -47.3660 C.3       15 UNK        -0.1800 
     87 C          -6.9615  -24.5241  -48.1242 C.2       15 UNK         0.5000 
     88 O          -8.0399  -24.5813  -48.7169 O.2       15 UNK        -0.5000 
     89 N          -6.0853  -23.5179  -48.2567 N.am      16 UNK        -0.5000 
     90 CA         -6.1833  -22.3285  -49.1057 C.3       16 UNK         0.1400 
     91 CB         -7.4142  -21.4740  -48.7398 C.3       16 UNK        -0.1800 
     92 C          -6.0905  -22.6041  -50.6209 C.2       16 UNK         0.5000 
     93 O          -6.2569  -21.6689  -51.4029 O.2       16 UNK        -0.5000 
     94 N          -5.7748  -23.8413  -51.0371 N.am      17 UNK        -0.5000 
     95 CA         -5.5979  -24.2048  -52.4495 C.3       17 UNK         0.1400 
     96 CB         -5.5021  -25.7313  -52.5816 C.3       17 UNK        -0.1800 
     97 C          -4.3690  -23.5319  -53.0928 C.2       17 UNK         0.5000 
     98 O          -4.3734  -23.2623  -54.2942 O.2       17 UNK        -0.5000 
     99 N          -3.3538  -23.2413  -52.2686 N.am      18 UNK        -0.5000 
    100 CA        -2.1257  -22.5484  -52.6529 C.3       18 UNK         0.1400 
    101 CB        -1.0446  -22.8456  -51.6018 C.3       18 UNK        -0.1800 
    102 C         -2.3019  -21.0285  -52.8510 C.2       18 UNK         0.5000 
    103 O         -1.3721  -20.3872  -53.3435 O.2       18 UNK        -0.5000 
    104 N         -3.4667  -20.4662  -52.4869 N.am      19 UNK        -0.5000 
    105 CA        -3.7696  -19.0337  -52.5919 C.3       19 UNK         0.1400 
    106 CB        -5.1320  -18.7404  -51.9503 C.3       19 UNK        -0.1800 
    107 C         -3.7361  -18.5083  -54.0384 C.2       19 UNK         0.5000 
    108 O         -3.3279  -17.3696  -54.2664 O.2       19 UNK        -0.5000 
    109 N         -4.1413  -19.3638  -54.9868 N.am      20 UNK        -0.5000 
    110 CA        -4.1038  -19.0931  -56.4229 C.3       20 UNK         0.1400 
    111 CB        -5.0448  -20.0771  -57.1349 C.3       20 UNK        -0.1800 
    112 C         -2.6840  -19.1826  -57.0157 C.2       20 UNK         0.5000 
    113 O         -2.4279  -18.5686  -58.0523 O.2       20 UNK        -0.5000 
    114 N         -1.7953  -19.9476  -56.3661 N.am      21 UNK        -0.5000 
    115 CA        -0.4022  -20.1184  -56.7707 C.3       21 UNK         0.1400 
    116 CB         0.1156  -21.4863  -56.2946 C.3       21 UNK        -0.1800 
    117 C          0.4665  -18.9703  -56.2351 C.2       21 UNK         0.5000 
    118 O          1.1474  -18.3108  -57.0213 O.2       21 UNK        -0.5000 
    119 N          0.4075  -18.7424  -54.9141 N.am      22 UNK        -0.5000 
    120 CA         1.1424  -17.6845  -54.1964 C.3       22 UNK         0.1400 
    121 C          2.6987  -17.8146  -54.2673 C.2       22 UNK         0.5000 
    122 N          3.2400  -19.0188  -54.4117 N.am      22 UNK        -0.7600 
    123 O          3.4314  -16.8333  -54.1801 O.2       22 UNK        -0.5000 
    124 C124        0.5914  -16.2733  -54.5526 C.3       23 UNK        -0.0398 
    125 S125        0.8303  -15.0101  -53.2517 S.3       23 UNK        -0.2404 
    126 C126       -0.6718  -15.1797  -52.2346 C.3       23 UNK        -0.0205 
    127 H127       -5.3354  -18.9914  -46.8642 H         1 UNK         0.0600 
    128 H128       -5.1581  -19.2209  -48.6036 H         1 UNK         0.0600 
    129 H129       -6.5907  -18.4114  -47.9599 H         1 UNK         0.0600 
    130 H130       -3.7359  -17.5490  -46.2898 H         1 UNK         0.3000 
    131 H131       -2.9622  -15.2767  -47.9676 H         1 UNK         0.0600 
    132 H132       -1.3688  -16.7729  -46.5392 H         1 UNK         0.0800 
    133 H133       -1.9615  -15.9311  -45.1474 H         1 UNK         0.0800 
    134 H134        1.2131  -16.0593  -46.6804 H         1 UNK         0.0800 
    135 H135        1.5352  -14.6290  -47.6261 H         1 UNK         0.0800 
    136 H136        0.1908  -14.2597  -49.8135 H         1 UNK         0.1150 
    137 H137       -0.9376  -17.8627  -51.8412 H         1 UNK         0.1150 
    138 H138        0.3316  -18.0156  -47.7584 H         1 UNK         0.1150 
    139 H139       -0.4485  -19.9939  -50.7932 H         1 UNK         0.0800 
    140 H140        0.2100  -20.0977  -49.1868 H         1 UNK         0.0800 
    141 H141       -2.6956  -19.9937  -46.8138 H         1 UNK         0.0800 
    142 H142       -1.0099  -19.7552  -47.0960 H         1 UNK         0.0800 
    143 H143       -1.5487  -22.3857  -48.1308 H         1 UNK         0.0600 
    144 H144        0.2462  -21.3117  -46.2348 H         1 UNK         0.3000 
    145 H145        1.7393  -24.4232  -45.2910 H         1 UNK         0.0600 
    146 H146        3.7474  -23.1379  -46.0081 H         1 UNK         0.0600 
    147 H147        2.8582  -23.7483  -47.3945 H         1 UNK         0.0600 
    148 H148        2.7371  -22.0510  -46.9596 H         1 UNK         0.0600 
    149 H149        2.1295  -21.6571  -44.5539 H         1 UNK         0.3000 
    150 H150       -0.0169  -21.7135  -41.7037 H         1 UNK         0.0600 
    151 H151        2.1247  -22.7483  -40.9444 H         1 UNK         0.0600 
    152 H152        2.0996  -21.0236  -40.6092 H         1 UNK         0.0600 
    153 H153        3.0378  -21.6436  -41.9662 H         1 UNK         0.0600 
    154 H154        1.7335  -19.7337  -42.8397 H         1 UNK         0.3000 
    155 H155       -0.6587  -18.2960  -45.0614 H         1 UNK         0.0600 
    156 H156        0.3668  -17.2918  -42.3481 H         1 UNK         0.0600 
    157 H157       -1.3164  -17.3267  -42.8634 H         1 UNK         0.0600 
    158 H158       -0.1700  -16.2603  -43.6655 H         1 UNK         0.0600 
    159 H159        1.8960  -17.3684  -44.3553 H         1 UNK         0.3000 
    160 H160        4.0161  -19.6782  -45.8265 H         1 UNK         0.0600 
    161 H161        3.3162  -17.1084  -47.3511 H         1 UNK         0.0600 
    162 H162        3.2731  -18.7276  -48.0356 H         1 UNK         0.0600 
    163 H163        4.8012  -18.0444  -47.5063 H         1 UNK         0.0600 
    164 H164        4.5233  -16.9623  -45.2209 H         1 UNK         0.3000 
    165 H165        4.0778  -16.8103  -41.8124 H         1 UNK         0.0600 
    166 H166        6.5041  -16.3803  -41.5182 H         1 UNK         0.0600 
    167 H167        6.2151  -18.1048  -41.6738 H         1 UNK         0.0600 
    168 H168        6.8624  -17.2017  -43.0381 H         1 UNK         0.0600 
    169 H169        5.5937  -15.1164  -43.4806 H         1 UNK         0.3000 
    170 H170        4.5354  -13.0238  -43.9558 H         1 UNK         0.0600 
    171 H171        5.4193  -14.4018  -45.8670 H         1 UNK         0.0600 
    172 H172        3.8088  -14.4889  -46.5699 H         1 UNK         0.0600 
    173 H173        4.6556  -12.9475  -46.4775 H         1 UNK         0.0600 
    174 H174        1.7583  -13.4715  -44.6198 H         1 UNK         0.3000 
    175 H175        1.0280  -10.0372  -44.5874 H         1 UNK         0.0600 
    176 H176        0.7935  -11.7134  -47.1456 H         1 UNK         0.0600 
    177 H177       -0.2132  -10.3260  -46.7291 H         1 UNK         0.0600 
    178 H178        1.5038  -10.1086  -47.0285 H         1 UNK         0.0600 
    179 H179       -0.5047  -12.4218  -45.1984 H         1 UNK         0.3000 
    180 H180       -1.1004  -13.8614  -42.8522 H         1 UNK         0.0600 
    181 H181       -2.9827  -13.2227  -41.3235 H         1 UNK         0.0600 
    182 H182       -2.5215  -11.5270  -41.4696 H         1 UNK         0.0600 
    183 H183       -1.4236  -12.6799  -40.7264 H         1 UNK         0.0600 
    184 H184       -2.6186  -13.7637  -44.4491 H         1 UNK         0.3000 
    185 H185       -5.1877  -12.3631  -45.2936 H         1 UNK         0.0600 
    186 H186       -4.8651  -11.1439  -47.4616 H         1 UNK         0.0600 
    187 H187       -4.6836  -10.0756  -46.0824 H         1 UNK         0.0600 
    188 H188       -3.2558  -10.6445  -46.9403 H         1 UNK         0.0600 
    189 H189       -2.9485  -13.1023  -47.0855 H         1 UNK         0.3000 
    190 H190       -1.9577  -21.8990  -44.6093 H         1 UNK         0.3000 
    191 H191       -4.6121  -22.8740  -44.4212 H         1 UNK         0.0600 
    192 H192       -4.0467  -23.1701  -42.0044 H         1 UNK         0.0600 
    193 H193       -3.5129  -21.6077  -42.6052 H         1 UNK         0.0600 
    194 H194       -2.3444  -22.9027  -42.3595 H         1 UNK         0.0600 
    195 H195       -1.4613  -24.6064  -44.1752 H         1 UNK         0.3000 
    196 H196       -2.5147  -27.2001  -43.7226 H         1 UNK         0.0600 
    197 H197        0.1209  -26.3637  -45.0434 H         1 UNK         0.0600 
    198 H198       -0.1426  -26.5881  -43.3156 H         1 UNK         0.0600 
    199 H199       -0.2456  -27.9614  -44.4072 H         1 UNK         0.0600 
    200 H200       -1.8849  -25.4346  -46.7480 H         1 UNK         0.3000 
    201 H201       -2.6776  -27.5854  -48.5205 H         1 UNK         0.0600 
    202 H202       -2.3304  -24.5797  -49.0162 H         1 UNK         0.0600 
    203 H203       -2.4421  -25.8230  -50.2556 H         1 UNK         0.0600 
    204 H204       -1.0612  -25.7913  -49.1731 H         1 UNK         0.0600 
    205 H205       -4.5724  -25.8331  -46.4142 H         1 UNK         0.3000 
    206 H206       -6.6986  -25.3062  -46.1681 H         1 UNK         0.0600 
    207 H207       -7.0356  -27.7342  -46.6783 H         1 UNK         0.0600 
    208 H208       -8.4162  -26.7662  -47.1676 H         1 UNK         0.0600 
    209 H209       -7.2829  -27.3460  -48.3804 H         1 UNK         0.0600 
    210 H210       -5.2135  -23.5793  -47.7317 H         1 UNK         0.3000 
    211 H211       -5.2990  -21.7353  -48.8685 H         1 UNK         0.0600 
    212 H212       -7.4025  -20.5223  -49.2722 H         1 UNK         0.0600 
    213 H213       -7.4336  -21.2470  -47.6740 H         1 UNK         0.0600 
    214 H214       -8.3486  -21.9734  -48.9960 H         1 UNK         0.0600 
    215 H215       -5.6538  -24.5813  -50.3556 H         1 UNK         0.3000 
    216 H216       -6.4826  -23.8715  -52.9961 H         1 UNK         0.0600 
    217 H217       -4.6038  -26.1213  -52.1016 H         1 UNK         0.0600 
    218 H218       -5.4673  -26.0297  -53.6301 H         1 UNK         0.0600 
    219 H219       -6.3644  -26.2232  -52.1310 H         1 UNK         0.0600 
    220 H220       -3.4472  -23.4931  -51.2962 H         1 UNK         0.3000 
    221 H221       -1.7851  -22.9537  -53.6080 H         1 UNK         0.0600 
    222 H222       -0.8345  -23.9138  -51.5459 H         1 UNK         0.0600 
    223 H223       -1.3449  -22.5136  -50.6085 H         1 UNK         0.0600 
    224 H224       -0.1066  -22.3461  -51.8475 H         1 UNK         0.0600 
    225 H225       -4.1990  -21.0517  -52.1069 H         1 UNK         0.3000 
    226 H226       -3.0171  -18.4944  -52.0192 H         1 UNK         0.0600 
    227 H227       -5.9470  -19.2155  -52.4973 H         1 UNK         0.0600 
    228 H228       -5.1665  -19.0948  -50.9214 H         1 UNK         0.0600 
    229 H229       -5.3304  -17.6680  -51.9296 H         1 UNK         0.0600 
    230 H230       -4.4595  -20.2799  -54.7035 H         1 UNK         0.3000 
    231 H231       -4.4727  -18.0800  -56.5969 H         1 UNK         0.0600 
    232 H232       -4.7358  -21.1120  -56.9815 H         1 UNK         0.0600 
    233 H233       -5.0611  -19.8945  -58.2103 H         1 UNK         0.0600 
    234 H234       -6.0684  -19.9753  -56.7738 H         1 UNK         0.0600 
    235 H235       -2.0638  -20.3581  -55.4832 H         1 UNK         0.3000 
    236 H236       -0.3419  -20.1066  -57.8613 H         1 UNK         0.0600 
    237 H237       -0.4796  -22.2978  -56.7134 H         1 UNK         0.0600 
    238 H238        1.1466  -21.6424  -56.6143 H         1 UNK         0.0600 
    239 H239        0.0927  -21.5829  -55.2093 H         1 UNK         0.0600 
    240 H240       -0.1883  -19.3370  -54.3423 H         1 UNK         0.3000 
    241 H241        0.9203  -17.8654  -53.1477 H         1 UNK         0.0600 
    242 H242        4.2429  -19.1088  -54.4563 H         1 UNK         0.3800 
    243 H243        2.6589  -19.8385  -54.4818 H         1 UNK         0.3800 
    244 H244       -0.4764  -16.3315  -54.7688 H         1 UNK         0.0800 
    245 H245        1.0509  -15.9117  -55.4737 H         1 UNK         0.0800 
    246 H246       -1.0245  -14.1829  -51.9661 H         1 UNK         0.0800 
    247 H247       -1.4798  -15.6385  -52.8066 H         1 UNK         0.0800 
@<TRIPOS>BOND
     1    1    2 1    
     2    1  127 1    
     3    1  128 1    
     4    1  129 1    
     5    2    3 2    
     6    2    4 am   BACKBONE|DICT|INTERRES
     7    4    5 1    
     8    4  130 1    
     9    5    6 1    
    10    5   65 1    
    11    5  131 1    
    12    6    7 1    
    13    6  132 1    
    14    6  133 1    
    15    7    8 1    
    16    8    9 1    
    17    8  134 1    
    18    8  135 1    
    19    9   10 ar   
    20    9   14 ar   
    21   10   11 ar   
    22   10  136 1    
    23   11   12 ar   
    24   11  126 1    
    25   12   13 ar   
    26   12  137 1    
    27   13   14 ar   
    28   13   15 1    
    29   14  138 1    
    30   15   16 1    
    31   15  139 1    
    32   15  140 1    
    33   16   17 1    
    34   17   18 1    
    35   17  141 1    
    36   17  142 1    
    37   18   19 1    
    38   18   67 1    
    39   18  143 1    
    40   19   20 am   BACKBONE|DICT|INTERRES
    41   19  144 1    
    42   20   21 2    
    43   20   22 1    
    44   22   23 1    
    45   22   24 1    
    46   22  145 1    
    47   23  146 1    
    48   23  147 1    
    49   23  148 1    
    50   24   25 am   BACKBONE|DICT|INTERRES
    51   24  149 1    
    52   25   26 2    
    53   25   27 1    
    54   27   28 1    
    55   27   29 1    
    56   27  150 1    
    57   28  151 1    
    58   28  152 1    
    59   28  153 1    
    60   29   30 am   BACKBONE|DICT|INTERRES
    61   29  154 1    
    62   30   31 2    
    63   30   32 1    
    64   32   33 1    
    65   32   34 1    
    66   32  155 1    
    67   33  156 1    
    68   33  157 1    
    69   33  158 1    
    70   34   35 am   BACKBONE|DICT|INTERRES
    71   34  159 1    
    72   35   36 2    
    73   35   37 1    
    74   37   38 1    
    75   37   39 1    
    76   37  160 1    
    77   38  161 1    
    78   38  162 1    
    79   38  163 1    
    80   39   40 am   BACKBONE|DICT|INTERRES
    81   39  164 1    
    82   40   41 2    
    83   40   42 1    
    84   42   43 1    
    85   42   44 1    
    86   42  165 1    
    87   43  166 1    
    88   43  167 1    
    89   43  168 1    
    90   44   45 am   BACKBONE|DICT|INTERRES
    91   44  169 1    
    92   45   46 2    
    93   45   47 1    
    94   47   48 1    
    95   47   49 1    
    96   47  170 1    
    97   48  171 1    
    98   48  172 1    
    99   48  173 1    
   100   49   50 am   BACKBONE|DICT|INTERRES
   101   49  174 1    
   102   50   51 2    
   103   50   52 1    
   104   52   53 1    
   105   52   54 1    
   106   52  175 1    
   107   53  176 1    
   108   53  177 1    
   109   53  178 1    
   110   54   55 am   BACKBONE|DICT|INTERRES
   111   54  179 1    
   112   55   56 2    
   113   55   57 1    
   114   57   58 1    
   115   57   59 1    
   116   57  180 1    
   117   58  181 1    
   118   58  182 1    
   119   58  183 1    
   120   59   60 am   BACKBONE|DICT|INTERRES
   121   59  184 1    
   122   60   61 2    
   123   60   62 1    
   124   62   63 1    
   125   62   64 1    
   126   62  185 1    
   127   63  186 1    
   128   63  187 1    
   129   63  188 1    
   130   64   65 am   BACKBONE|DICT|INTERRES
   131   64  189 1    
   132   65   66 2    
   133   67   68 2    
   134   67   69 am   BACKBONE|DICT|INTERRES
   135   69   70 1    
   136   69  190 1    
   137   70   71 1    
   138   70   72 1    
   139   70  191 1    
   140   71  192 1    
   141   71  193 1    
   142   71  194 1    
   143   72   73 2    
   144   72   74 am   BACKBONE|DICT|INTERRES
   145   74   75 1    
   146   74  195 1    
   147   75   76 1    
   148   75   77 1    
   149   75  196 1    
   150   76  197 1    
   151   76  198 1    
   152   76  199 1    
   153   77   78 2    
   154   77   79 am   BACKBONE|DICT|INTERRES
   155   79   80 1    
   156   79  200 1    
   157   80   81 1    
   158   80   82 1    
   159   80  201 1    
   160   81  202 1    
   161   81  203 1    
   162   81  204 1    
   163   82   83 2    
   164   82   84 am   BACKBONE|DICT|INTERRES
   165   84   85 1    
   166   84  205 1    
   167   85   86 1    
   168   85   87 1    
   169   85  206 1    
   170   86  207 1    
   171   86  208 1    
   172   86  209 1    
   173   87   88 2    
   174   87   89 am   BACKBONE|DICT|INTERRES
   175   89   90 1    
   176   89  210 1    
   177   90   91 1    
   178   90   92 1    
   179   90  211 1    
   180   91  212 1    
   181   91  213 1    
   182   91  214 1    
   183   92   93 2    
   184   92   94 am   BACKBONE|DICT|INTERRES
   185   94   95 1    
   186   94  215 1    
   187   95   96 1    
   188   95   97 1    
   189   95  216 1    
   190   96  217 1    
   191   96  218 1    
   192   96  219 1    
   193   97   98 2    
   194   97   99 am   BACKBONE|DICT|INTERRES
   195   99  100 1    
   196   99  220 1    
   197  100  101 1    
   198  100  102 1    
   199  100  221 1    
   200  101  222 1    
   201  101  223 1    
   202  101  224 1    
   203  102  103 2    
   204  102  104 am   BACKBONE|DICT|INTERRES
   205  104  105 1    
   206  104  225 1    
   207  105  106 1    
   208  105  107 1    
   209  105  226 1    
   210  106  227 1    
   211  106  228 1    
   212  106  229 1    
   213  107  108 2    
   214  107  109 am   BACKBONE|DICT|INTERRES
   215  109  110 1    
   216  109  230 1    
   217  110  111 1    
   218  110  112 1    
   219  110  231 1    
   220  111  232 1    
   221  111  233 1    
   222  111  234 1    
   223  112  113 2    
   224  112  114 am   BACKBONE|DICT|INTERRES
   225  114  115 1    
   226  114  235 1    
   227  115  116 1    
   228  115  117 1    
   229  115  236 1    
   230  116  237 1    
   231  116  238 1    
   232  116  239 1    
   233  117  118 2    
   234  117  119 am   BACKBONE|DICT|INTERRES
   235  119  120 1    
   236  119  240 1    
   237  120  121 1    
   238  120  124 1    
   239  120  241 1    
   240  121  122 am   BACKBONE|DICT|INTERRES
   241  121  123 2    
   242  122  242 1    
   243  122  243 1    
   244  124  125 1    
   245  124  244 1    
   246  124  245 1    
   247  125  126 1    
   248  126  246 1    
   249  126  247 1    
@<TRIPOS>SUBSTRUCTURE
     1 UNK         1 GROUP             0       ****    0 ROOT    
