@<TRIPOS>MOLECULE
3R540
247   249    1
SMALL
USER_CHARGES


@<TRIPOS>ATOM
      1 CA          7.1227  -13.3632  -50.2560 C.3       0 UNK        -0.1800 
      2 C           6.0699  -12.8860  -49.2655 C.2       0 UNK         0.5000 
      3 O           5.8536  -11.6806  -49.1412 O.2       0 UNK        -0.5000 
      4 N           5.4235  -13.8294  -48.5656 N.am      1 UNK        -0.5000 
      5 CA          4.3701  -13.6119  -47.5624 C.3       1 UNK         0.1400 
      6 C6          3.0547  -13.0181  -48.1381 C.3       23 UNK        -0.0398 
      7 S7          2.3541  -14.0245  -49.4858 S.3       23 UNK        -0.2404 
      8 C8          1.1088  -14.9980  -48.5883 C.3       23 UNK        -0.0205 
      9 C9          0.3721  -15.9205  -49.5424 C.ar      23 UNK        -0.0193 
     10 C10        -0.8024  -15.4938  -50.1661 C.ar      23 UNK        -0.1150 
     11 C11        -1.4626  -16.3211  -51.0783 C.ar      23 UNK        -0.0193 
     12 C12        -0.9362  -17.5852  -51.3662 C.ar      23 UNK        -0.1150 
     13 C13         0.2345  -18.0271  -50.7405 C.ar      23 UNK        -0.0193 
     14 C14         0.8794  -17.1915  -49.8238 C.ar      23 UNK        -0.1150 
     15 C15         0.8292  -19.3897  -51.0769 C.3       23 UNK        -0.0205 
     16 S16        -0.1923  -20.7796  -50.4926 S.3       23 UNK        -0.2404 
     17 C17        -0.3757  -20.3887  -48.7217 C.3       23 UNK        -0.0398 
     18 CA         -0.5701  -21.6344  -47.8246 C.3       11 UNK         0.1400 
     19 N          -0.3591  -21.2983  -46.4139 N.am      11 UNK        -0.5000 
     20 C          -0.3011  -22.1790  -45.4059 C.2       10 UNK         0.5000 
     21 O          -0.3523  -23.3979  -45.5588 O.2       10 UNK        -0.5000 
     22 CA         -0.2379  -21.5966  -43.9819 C.3       10 UNK         0.1400 
     23 CB          1.1990  -21.1996  -43.6134 C.3       10 UNK        -0.1800 
     24 N          -1.1343  -20.4512  -43.8078 N.am      10 UNK        -0.5000 
     25 C          -2.4702  -20.5204  -43.9053 C.2       9 UNK         0.5000 
     26 O          -3.0830  -21.5716  -44.0865 O.2       9 UNK        -0.5000 
     27 CA         -3.2527  -19.1961  -43.8418 C.3       9 UNK         0.1400 
     28 CB         -3.4624  -18.7582  -42.3856 C.3       9 UNK        -0.1800 
     29 N          -2.6118  -18.1211  -44.6022 N.am      9 UNK        -0.5000 
     30 C          -2.4356  -18.1332  -45.9320 C.2       8 UNK         0.5000 
     31 O          -2.8416  -19.0369  -46.6608 O.2       8 UNK        -0.5000 
     32 CA         -1.6164  -16.9794  -46.5430 C.3       8 UNK         0.1400 
     33 CB         -2.4829  -15.7291  -46.7498 C.3       8 UNK        -0.1800 
     34 N          -0.4421  -16.6442  -45.7344 N.am      8 UNK        -0.5000 
     35 C           0.5827  -17.4823  -45.5198 C.2       7 UNK         0.5000 
     36 O           0.6801  -18.5899  -46.0467 O.2       7 UNK        -0.5000 
     37 CA          1.6433  -17.0355  -44.4992 C.3       7 UNK         0.1400 
     38 CB          2.6990  -16.1273  -45.1488 C.3       7 UNK        -0.1800 
     39 N           1.0310  -16.3690  -43.3483 N.am      7 UNK        -0.5000 
     40 C           0.3260  -17.0148  -42.4066 C.2       6 UNK         0.5000 
     41 O           0.1923  -18.2376  -42.3800 O.2       6 UNK        -0.5000 
     42 CA         -0.3973  -16.1592  -41.3505 C.3       6 UNK         0.1400 
     43 CB          0.4697  -15.9661  -40.0999 C.3       6 UNK        -0.1800 
     44 N          -0.8137  -14.8593  -41.8775 N.am      6 UNK        -0.5000 
     45 C          -1.8347  -14.7067  -42.7337 C.2       5 UNK         0.5000 
     46 O          -2.5310  -15.6408  -43.1281 O.2       5 UNK        -0.5000 
     47 CA         -2.1023  -13.2927  -43.2805 C.3       5 UNK         0.1400 
     48 CB         -3.1159  -12.5562  -42.3928 C.3       5 UNK        -0.1800 
     49 N          -0.8960  -12.4764  -43.4133 N.am      5 UNK        -0.5000 
     50 C           0.1536  -12.7688  -44.1922 C.2       4 UNK         0.5000 
     51 O           0.2176  -13.7798  -44.8949 O.2       4 UNK        -0.5000 
     52 CA          1.3454  -11.7904  -44.1643 C.3       4 UNK         0.1400 
     53 CB          1.0550  -10.4588  -43.4364 C.3       4 UNK        -0.1800 
     54 N           2.5583  -12.4048  -43.6165 N.am      4 UNK        -0.5000 
     55 C           2.7101  -12.9992  -42.4215 C.2       3 UNK         0.5000 
     56 O           1.7846  -13.1595  -41.6245 O.2       3 UNK        -0.5000 
     57 CA          4.1219  -13.5049  -42.0473 C.3       3 UNK         0.1400 
     58 CB          4.0887  -14.9398  -41.4945 C.3       3 UNK        -0.1800 
     59 N           5.0539  -13.4561  -43.1771 N.am      3 UNK        -0.5000 
     60 C           5.9418  -12.4776  -43.4000 C.2       2 UNK         0.5000 
     61 O           6.1152  -11.5215  -42.6436 O.2       2 UNK        -0.5000 
     62 CA          6.7552  -12.5656  -44.7083 C.3       2 UNK         0.1400 
     63 CB          8.0899  -13.2857  -44.4635 C.3       2 UNK        -0.1800 
     64 N           6.0529  -13.2238  -45.8173 N.am      2 UNK        -0.5000 
     65 C           4.8945  -12.8092  -46.3517 C.2       1 UNK         0.5000 
     66 O           4.2583  -11.8466  -45.9207 O.2       1 UNK        -0.5000 
     67 C          -1.9391  -22.3152  -48.0585 C.2       11 UNK         0.5000 
     68 O          -2.0198  -23.2758  -48.8234 O.2       11 UNK        -0.5000 
     69 N          -2.9851  -21.8384  -47.3695 N.am      12 UNK        -0.5000 
     70 CA         -4.3299  -22.4095  -47.4230 C.3       12 UNK         0.1400 
     71 CB         -5.3427  -21.4208  -46.8282 C.3       12 UNK        -0.1800 
     72 C          -4.4254  -23.7847  -46.7407 C.2       12 UNK         0.5000 
     73 O          -5.1479  -24.6517  -47.2305 O.2       12 UNK        -0.5000 
     74 N          -3.6871  -23.9641  -45.6387 N.am      13 UNK        -0.5000 
     75 CA         -3.6074  -25.2122  -44.8798 C.3       13 UNK         0.1400 
     76 CB         -3.0738  -24.9006  -43.4730 C.3       13 UNK        -0.1800 
     77 C          -2.7380  -26.2926  -45.5537 C.2       13 UNK         0.5000 
     78 O          -2.9245  -27.4733  -45.2580 O.2       13 UNK        -0.5000 
     79 N          -1.7983  -25.8740  -46.4146 N.am      14 UNK        -0.5000 
     80 CA         -0.8050  -26.7089  -47.0951 C.3       14 UNK         0.1400 
     81 CB          0.0928  -25.8504  -48.0014 C.3       14 UNK        -0.1800 
     82 C          -1.3391  -27.9544  -47.8421 C.2       14 UNK         0.5000 
     83 O          -0.8028  -29.0359  -47.6069 O.2       14 UNK        -0.5000 
     84 N          -2.3548  -27.8859  -48.7186 N.am      15 UNK        -0.5000 
     85 CA         -3.0771  -26.7268  -49.2575 C.3       15 UNK         0.1400 
     86 CB         -4.5681  -27.0991  -49.3234 C.3       15 UNK        -0.1800 
     87 C          -2.5580  -26.3110  -50.6498 C.2       15 UNK         0.5000 
     88 O          -3.2256  -25.5404  -51.3442 O.2       15 UNK        -0.5000 
     89 N          -1.4075  -26.8666  -51.0647 N.am      16 UNK        -0.5000 
     90 CA         -0.6892  -26.6032  -52.3217 C.3       16 UNK         0.1400 
     91 CB         -0.1722  -25.1488  -52.3407 C.3       16 UNK        -0.1800 
     92 C          -1.4915  -26.9530  -53.5965 C.2       16 UNK         0.5000 
     93 O          -1.1636  -26.4634  -54.6781 O.2       16 UNK        -0.5000 
     94 N          -2.5415  -27.7749  -53.4360 N.am      17 UNK        -0.5000 
     95 CA         -3.5592  -28.1418  -54.4282 C.3       17 UNK         0.1400 
     96 CB         -2.9406  -28.9940  -55.5563 C.3       17 UNK        -0.1800 
     97 C          -4.3664  -26.9352  -54.9634 C.2       17 UNK         0.5000 
     98 O          -4.9145  -27.0133  -56.0647 O.2       17 UNK        -0.5000 
     99 N          -4.4263  -25.8449  -54.1847 N.am      18 UNK        -0.5000 
    100 CA        -5.0510  -24.5800  -54.5763 C.3       18 UNK         0.1400 
    101 CB        -3.9539  -23.6014  -55.0299 C.3       18 UNK        -0.1800 
    102 C         -5.8911  -23.9486  -53.4557 C.2       18 UNK         0.5000 
    103 O         -6.8104  -23.1913  -53.7666 O.2       18 UNK        -0.5000 
    104 N         -5.5564  -24.2361  -52.1866 N.am      19 UNK        -0.5000 
    105 CA        -6.0793  -23.5873  -50.9778 C.3       19 UNK         0.1400 
    106 CB        -7.5735  -23.9029  -50.7630 C.3       19 UNK        -0.1800 
    107 C         -5.7563  -22.0793  -50.9755 C.2       19 UNK         0.5000 
    108 O         -6.6357  -21.2448  -50.7555 O.2       19 UNK        -0.5000 
    109 N         -4.4849  -21.7737  -51.2728 N.am      20 UNK        -0.5000 
    110 CA        -3.8619  -20.4569  -51.4514 C.3       20 UNK         0.1400 
    111 CB        -3.9843  -19.5908  -50.1856 C.3       20 UNK        -0.1800 
    112 C         -4.3355  -19.6975  -52.7056 C.2       20 UNK         0.5000 
    113 O         -3.4948  -19.1870  -53.4456 O.2       20 UNK        -0.5000 
    114 N         -5.6559  -19.6620  -52.9353 N.am      21 UNK        -0.5000 
    115 CA        -6.3496  -19.0536  -54.0762 C.3       21 UNK         0.1400 
    116 CB        -6.0624  -19.8484  -55.3674 C.3       21 UNK        -0.1800 
    117 C         -6.0658  -17.5423  -54.2202 C.2       21 UNK         0.5000 
    118 O         -5.8400  -17.0534  -55.3291 O.2       21 UNK        -0.5000 
    119 N         -6.0704  -16.8316  -53.0846 N.am      22 UNK        -0.5000 
    120 CA        -5.7579  -15.3946  -52.9909 C.3       22 UNK         0.1400 
    121 C         -6.8324  -14.4396  -53.5926 C.2       22 UNK         0.5000 
    122 N         -8.0376  -14.9002  -53.9047 N.am      22 UNK        -0.7600 
    123 O         -6.5643  -13.2563  -53.7823 O.2       22 UNK        -0.5000 
    124 C124       -5.4112  -14.9627  -51.5405 C.3       23 UNK        -0.0398 
    125 S125       -4.1795  -16.0071  -50.6882 S.3       23 UNK        -0.2404 
    126 C126       -2.7258  -15.8270  -51.7661 C.3       23 UNK        -0.0205 
    127 H127        7.2089  -14.4500  -50.2656 H         1 UNK         0.0600 
    128 H128        8.0966  -12.9472  -49.9980 H         1 UNK         0.0600 
    129 H129        6.8660  -13.0343  -51.2630 H         1 UNK         0.0600 
    130 H130        5.6556  -14.7977  -48.7370 H         1 UNK         0.3000 
    131 H131        4.1296  -14.6010  -47.1726 H         1 UNK         0.0600 
    132 H132        3.2245  -12.0111  -48.5220 H         1 UNK         0.0800 
    133 H133        2.3027  -12.9163  -47.3534 H         1 UNK         0.0800 
    134 H134        1.5962  -15.5837  -47.8096 H         1 UNK         0.0800 
    135 H135        0.4060  -14.3318  -48.0853 H         1 UNK         0.0800 
    136 H136       -1.1978  -14.5109  -49.9514 H         1 UNK         0.1150 
    137 H137       -1.4336  -18.2263  -52.0798 H         1 UNK         0.1150 
    138 H138        1.7909  -17.5192  -49.3438 H         1 UNK         0.1150 
    139 H139        0.9452  -19.4699  -52.1585 H         1 UNK         0.0800 
    140 H140        1.8311  -19.4885  -50.6562 H         1 UNK         0.0800 
    141 H141        0.5249  -19.8596  -48.4080 H         1 UNK         0.0800 
    142 H142       -1.1967  -19.6810  -48.6031 H         1 UNK         0.0800 
    143 H143        0.2000  -22.3623  -48.0890 H         1 UNK         0.0600 
    144 H144       -0.2530  -20.3115  -46.1978 H         1 UNK         0.3000 
    145 H145       -0.5591  -22.3780  -43.2902 H         1 UNK         0.0600 
    146 H146        1.2591  -20.8521  -42.5819 H         1 UNK         0.0600 
    147 H147        1.8750  -22.0500  -43.7100 H         1 UNK         0.0600 
    148 H148        1.5774  -20.4053  -44.2564 H         1 UNK         0.0600 
    149 H149       -0.7001  -19.5602  -43.5902 H         1 UNK         0.3000 
    150 H150       -4.2353  -19.3708  -44.2846 H         1 UNK         0.0600 
    151 H151       -3.9894  -19.5279  -41.8204 H         1 UNK         0.0600 
    152 H152       -4.0586  -17.8474  -42.3281 H         1 UNK         0.0600 
    153 H153       -2.5151  -18.5734  -41.8804 H         1 UNK         0.0600 
    154 H154       -2.3200  -17.3028  -44.0761 H         1 UNK         0.3000 
    155 H155       -1.2640  -17.3089  -47.5225 H         1 UNK         0.0600 
    156 H156       -3.3198  -15.9455  -47.4152 H         1 UNK         0.0600 
    157 H157       -1.9094  -14.9210  -47.2034 H         1 UNK         0.0600 
    158 H158       -2.8960  -15.3617  -45.8109 H         1 UNK         0.0600 
    159 H159       -0.4262  -15.7314  -45.2936 H         1 UNK         0.3000 
    160 H160        2.1552  -17.9325  -44.1442 H         1 UNK         0.0600 
    161 H161        2.2806  -15.1759  -45.4734 H         1 UNK         0.0600 
    162 H162        3.1353  -16.6107  -46.0239 H         1 UNK         0.0600 
    163 H163        3.5165  -15.9168  -44.4617 H         1 UNK         0.0600 
    164 H164        1.0322  -15.3586  -43.3473 H         1 UNK         0.3000 
    165 H165       -1.2917  -16.7045  -41.0436 H         1 UNK         0.0600 
    166 H166       -0.0747  -15.4298  -39.3227 H         1 UNK         0.0600 
    167 H167        0.7723  -16.9271  -39.6821 H         1 UNK         0.0600 
    168 H168        1.3748  -15.4052  -40.3203 H         1 UNK         0.0600 
    169 H169       -0.2411  -14.0590  -41.6345 H         1 UNK         0.3000 
    170 H170       -2.5369  -13.4032  -44.2759 H         1 UNK         0.0600 
    171 H171       -4.0380  -13.1307  -42.2938 H         1 UNK         0.0600 
    172 H172       -2.7242  -12.3882  -41.3888 H         1 UNK         0.0600 
    173 H173       -3.3822  -11.5879  -42.8169 H         1 UNK         0.0600 
    174 H174       -0.8528  -11.6407  -42.8485 H         1 UNK         0.3000 
    175 H175        1.5617  -11.5535  -45.2068 H         1 UNK         0.0600 
    176 H176        0.8665  -10.6013  -42.3717 H         1 UNK         0.0600 
    177 H177        1.9008   -9.7774  -43.5291 H         1 UNK         0.0600 
    178 H178        0.1907   -9.9517  -43.8673 H         1 UNK         0.0600 
    179 H179        3.3725  -12.3173  -44.2150 H         1 UNK         0.3000 
    180 H180        4.4831  -12.8571  -41.2462 H         1 UNK         0.0600 
    181 H181        3.5575  -15.6246  -42.1541 H         1 UNK         0.0600 
    182 H182        3.5953  -14.9663  -40.5235 H         1 UNK         0.0600 
    183 H183        5.0956  -15.3303  -41.3458 H         1 UNK         0.0600 
    184 H184        4.9890  -14.2033  -43.8520 H         1 UNK         0.3000 
    185 H185        6.9732  -11.5427  -45.0221 H         1 UNK         0.0600 
    186 H186        8.6519  -12.8058  -43.6610 H         1 UNK         0.0600 
    187 H187        7.9387  -14.3281  -44.1804 H         1 UNK         0.0600 
    188 H188        8.7185  -13.2663  -45.3540 H         1 UNK         0.0600 
    189 H189        6.5221  -14.0120  -46.2397 H         1 UNK         0.3000 
    190 H190       -2.8648  -20.9971  -46.8133 H         1 UNK         0.3000 
    191 H191       -4.5826  -22.5532  -48.4715 H         1 UNK         0.0600 
    192 H192       -5.3160  -20.4653  -47.3525 H         1 UNK         0.0600 
    193 H193       -6.3588  -21.8083  -46.9113 H         1 UNK         0.0600 
    194 H194       -5.1496  -21.2293  -45.7730 H         1 UNK         0.0600 
    195 H195       -3.1847  -23.1675  -45.2588 H         1 UNK         0.3000 
    196 H196       -4.6160  -25.6182  -44.7779 H         1 UNK         0.0600 
    197 H197       -3.0306  -25.8021  -42.8607 H         1 UNK         0.0600 
    198 H198       -3.7163  -24.1871  -42.9566 H         1 UNK         0.0600 
    199 H199       -2.0686  -24.4791  -43.5103 H         1 UNK         0.0600 
    200 H200       -1.6817  -24.8742  -46.5227 H         1 UNK         0.3000 
    201 H201       -0.1624  -27.0910  -46.2994 H         1 UNK         0.0600 
    202 H202        0.6252  -25.0936  -47.4259 H         1 UNK         0.0600 
    203 H203       -0.4741  -25.3382  -48.7759 H         1 UNK         0.0600 
    204 H204        0.8458  -26.4618  -48.4999 H         1 UNK         0.0600 
    205 H205       -2.6496  -28.7644  -49.1188 H         1 UNK         0.3000 
    206 H206       -2.9767  -25.8529  -48.6199 H         1 UNK         0.0600 
    207 H207       -4.9453  -27.3716  -48.3374 H         1 UNK         0.0600 
    208 H208       -5.1740  -26.2642  -49.6734 H         1 UNK         0.0600 
    209 H209       -4.7476  -27.9387  -49.9958 H         1 UNK         0.0600 
    210 H210       -0.9645  -27.5299  -50.4450 H         1 UNK         0.3000 
    211 H211        0.1791  -27.2635  -52.3220 H         1 UNK         0.0600 
    212 H212       -0.9881  -24.4292  -52.4169 H         1 UNK         0.0600 
    213 H213        0.4932  -24.9781  -53.1877 H         1 UNK         0.0600 
    214 H214        0.3913  -24.9182  -51.4365 H         1 UNK         0.0600 
    215 H215       -2.7068  -28.1208  -52.5020 H         1 UNK         0.3000 
    216 H216       -4.2795  -28.7697  -53.9022 H         1 UNK         0.0600 
    217 H217       -3.7137  -29.4041  -56.2071 H         1 UNK         0.0600 
    218 H218       -2.3802  -29.8368  -55.1518 H         1 UNK         0.0600 
    219 H219       -2.2646  -28.4102  -56.1815 H         1 UNK         0.0600 
    220 H220       -3.9436  -25.8621  -53.2945 H         1 UNK         0.3000 
    221 H221       -5.7332  -24.7410  -55.4136 H         1 UNK         0.0600 
    222 H222       -3.2319  -23.4120  -54.2343 H         1 UNK         0.0600 
    223 H223       -3.4084  -23.9933  -55.8885 H         1 UNK         0.0600 
    224 H224       -4.3786  -22.6409  -55.3248 H         1 UNK         0.0600 
    225 H225       -4.7553  -24.8387  -52.0169 H         1 UNK         0.3000 
    226 H226       -5.5320  -24.0150  -50.1377 H         1 UNK         0.0600 
    227 H227       -7.7516  -24.9782  -50.7648 H         1 UNK         0.0600 
    228 H228       -7.9146  -23.5188  -49.8010 H         1 UNK         0.0600 
    229 H229       -8.2027  -23.4562  -51.5329 H         1 UNK         0.0600 
    230 H230       -3.8648  -22.5517  -51.4520 H         1 UNK         0.3000 
    231 H231       -2.8041  -20.6657  -51.6032 H         1 UNK         0.0600 
    232 H232       -5.0002  -19.2284  -50.0280 H         1 UNK         0.0600 
    233 H233       -3.3305  -18.7230  -50.2509 H         1 UNK         0.0600 
    234 H234       -3.6840  -20.1394  -49.2974 H         1 UNK         0.0600 
    235 H235       -6.2466  -20.1228  -52.2477 H         1 UNK         0.3000 
    236 H236       -7.4164  -19.1433  -53.8676 H         1 UNK         0.0600 
    237 H237       -6.3118  -20.9019  -55.2438 H         1 UNK         0.0600 
    238 H238       -6.6580  -19.4724  -56.2000 H         1 UNK         0.0600 
    239 H239       -5.0137  -19.7842  -55.6591 H         1 UNK         0.0600 
    240 H240       -6.2431  -17.3084  -52.2120 H         1 UNK         0.3000 
    241 H241       -4.8648  -15.2315  -53.5964 H         1 UNK         0.0600 
    242 H242       -8.7230  -14.2735  -54.2970 H         1 UNK         0.3800 
    243 H243       -8.2714  -15.8686  -53.7558 H         1 UNK         0.3800 
    244 H244       -5.0419  -13.9356  -51.5290 H         1 UNK         0.0800 
    245 H245       -6.3135  -14.9628  -50.9266 H         1 UNK         0.0800 
    246 H246       -2.8932  -16.3799  -52.6920 H         1 UNK         0.0800 
    247 H247       -2.6019  -14.7795  -52.0449 H         1 UNK         0.0800 
@<TRIPOS>BOND
     1    1    2 1    
     2    1  127 1    
     3    1  128 1    
     4    1  129 1    
     5    2    3 2    
     6    2    4 am   BACKBONE|DICT|INTERRES
     7    4    5 1    
     8    4  130 1    
     9    5    6 1    
    10    5   65 1    
    11    5  131 1    
    12    6    7 1    
    13    6  132 1    
    14    6  133 1    
    15    7    8 1    
    16    8    9 1    
    17    8  134 1    
    18    8  135 1    
    19    9   10 ar   
    20    9   14 ar   
    21   10   11 ar   
    22   10  136 1    
    23   11   12 ar   
    24   11  126 1    
    25   12   13 ar   
    26   12  137 1    
    27   13   14 ar   
    28   13   15 1    
    29   14  138 1    
    30   15   16 1    
    31   15  139 1    
    32   15  140 1    
    33   16   17 1    
    34   17   18 1    
    35   17  141 1    
    36   17  142 1    
    37   18   19 1    
    38   18   67 1    
    39   18  143 1    
    40   19   20 am   BACKBONE|DICT|INTERRES
    41   19  144 1    
    42   20   21 2    
    43   20   22 1    
    44   22   23 1    
    45   22   24 1    
    46   22  145 1    
    47   23  146 1    
    48   23  147 1    
    49   23  148 1    
    50   24   25 am   BACKBONE|DICT|INTERRES
    51   24  149 1    
    52   25   26 2    
    53   25   27 1    
    54   27   28 1    
    55   27   29 1    
    56   27  150 1    
    57   28  151 1    
    58   28  152 1    
    59   28  153 1    
    60   29   30 am   BACKBONE|DICT|INTERRES
    61   29  154 1    
    62   30   31 2    
    63   30   32 1    
    64   32   33 1    
    65   32   34 1    
    66   32  155 1    
    67   33  156 1    
    68   33  157 1    
    69   33  158 1    
    70   34   35 am   BACKBONE|DICT|INTERRES
    71   34  159 1    
    72   35   36 2    
    73   35   37 1    
    74   37   38 1    
    75   37   39 1    
    76   37  160 1    
    77   38  161 1    
    78   38  162 1    
    79   38  163 1    
    80   39   40 am   BACKBONE|DICT|INTERRES
    81   39  164 1    
    82   40   41 2    
    83   40   42 1    
    84   42   43 1    
    85   42   44 1    
    86   42  165 1    
    87   43  166 1    
    88   43  167 1    
    89   43  168 1    
    90   44   45 am   BACKBONE|DICT|INTERRES
    91   44  169 1    
    92   45   46 2    
    93   45   47 1    
    94   47   48 1    
    95   47   49 1    
    96   47  170 1    
    97   48  171 1    
    98   48  172 1    
    99   48  173 1    
   100   49   50 am   BACKBONE|DICT|INTERRES
   101   49  174 1    
   102   50   51 2    
   103   50   52 1    
   104   52   53 1    
   105   52   54 1    
   106   52  175 1    
   107   53  176 1    
   108   53  177 1    
   109   53  178 1    
   110   54   55 am   BACKBONE|DICT|INTERRES
   111   54  179 1    
   112   55   56 2    
   113   55   57 1    
   114   57   58 1    
   115   57   59 1    
   116   57  180 1    
   117   58  181 1    
   118   58  182 1    
   119   58  183 1    
   120   59   60 am   BACKBONE|DICT|INTERRES
   121   59  184 1    
   122   60   61 2    
   123   60   62 1    
   124   62   63 1    
   125   62   64 1    
   126   62  185 1    
   127   63  186 1    
   128   63  187 1    
   129   63  188 1    
   130   64   65 am   BACKBONE|DICT|INTERRES
   131   64  189 1    
   132   65   66 2    
   133   67   68 2    
   134   67   69 am   BACKBONE|DICT|INTERRES
   135   69   70 1    
   136   69  190 1    
   137   70   71 1    
   138   70   72 1    
   139   70  191 1    
   140   71  192 1    
   141   71  193 1    
   142   71  194 1    
   143   72   73 2    
   144   72   74 am   BACKBONE|DICT|INTERRES
   145   74   75 1    
   146   74  195 1    
   147   75   76 1    
   148   75   77 1    
   149   75  196 1    
   150   76  197 1    
   151   76  198 1    
   152   76  199 1    
   153   77   78 2    
   154   77   79 am   BACKBONE|DICT|INTERRES
   155   79   80 1    
   156   79  200 1    
   157   80   81 1    
   158   80   82 1    
   159   80  201 1    
   160   81  202 1    
   161   81  203 1    
   162   81  204 1    
   163   82   83 2    
   164   82   84 am   BACKBONE|DICT|INTERRES
   165   84   85 1    
   166   84  205 1    
   167   85   86 1    
   168   85   87 1    
   169   85  206 1    
   170   86  207 1    
   171   86  208 1    
   172   86  209 1    
   173   87   88 2    
   174   87   89 am   BACKBONE|DICT|INTERRES
   175   89   90 1    
   176   89  210 1    
   177   90   91 1    
   178   90   92 1    
   179   90  211 1    
   180   91  212 1    
   181   91  213 1    
   182   91  214 1    
   183   92   93 2    
   184   92   94 am   BACKBONE|DICT|INTERRES
   185   94   95 1    
   186   94  215 1    
   187   95   96 1    
   188   95   97 1    
   189   95  216 1    
   190   96  217 1    
   191   96  218 1    
   192   96  219 1    
   193   97   98 2    
   194   97   99 am   BACKBONE|DICT|INTERRES
   195   99  100 1    
   196   99  220 1    
   197  100  101 1    
   198  100  102 1    
   199  100  221 1    
   200  101  222 1    
   201  101  223 1    
   202  101  224 1    
   203  102  103 2    
   204  102  104 am   BACKBONE|DICT|INTERRES
   205  104  105 1    
   206  104  225 1    
   207  105  106 1    
   208  105  107 1    
   209  105  226 1    
   210  106  227 1    
   211  106  228 1    
   212  106  229 1    
   213  107  108 2    
   214  107  109 am   BACKBONE|DICT|INTERRES
   215  109  110 1    
   216  109  230 1    
   217  110  111 1    
   218  110  112 1    
   219  110  231 1    
   220  111  232 1    
   221  111  233 1    
   222  111  234 1    
   223  112  113 2    
   224  112  114 am   BACKBONE|DICT|INTERRES
   225  114  115 1    
   226  114  235 1    
   227  115  116 1    
   228  115  117 1    
   229  115  236 1    
   230  116  237 1    
   231  116  238 1    
   232  116  239 1    
   233  117  118 2    
   234  117  119 am   BACKBONE|DICT|INTERRES
   235  119  120 1    
   236  119  240 1    
   237  120  121 1    
   238  120  124 1    
   239  120  241 1    
   240  121  122 am   BACKBONE|DICT|INTERRES
   241  121  123 2    
   242  122  242 1    
   243  122  243 1    
   244  124  125 1    
   245  124  244 1    
   246  124  245 1    
   247  125  126 1    
   248  126  246 1    
   249  126  247 1    
@<TRIPOS>SUBSTRUCTURE
     1 UNK         1 GROUP             0       ****    0 ROOT    
