@<TRIPOS>MOLECULE
3R540
247   249    1
SMALL
USER_CHARGES


@<TRIPOS>ATOM
      1 CA          3.5425  -16.4727  -46.3923 C.3       0 UNK        -0.1800 
      2 C           3.0361  -15.1536  -46.9528 C.2       0 UNK         0.5000 
      3 O           3.5646  -14.6752  -47.9560 O.2       0 UNK        -0.5000 
      4 N           2.0271  -14.5580  -46.3023 N.am      1 UNK        -0.5000 
      5 CA          1.3227  -13.3169  -46.6672 C.3       1 UNK         0.1400 
      6 C6          0.7010  -13.3083  -48.0910 C.3       23 UNK        -0.0398 
      7 S7         -0.5049  -14.6565  -48.3215 S.3       23 UNK        -0.2404 
      8 C8          0.3216  -15.7044  -49.5652 C.3       23 UNK        -0.0205 
      9 C9         -0.2809  -17.1035  -49.6628 C.ar      23 UNK        -0.0193 
     10 C10        -1.6670  -17.2913  -49.7059 C.ar      23 UNK        -0.1150 
     11 C11        -2.2125  -18.5735  -49.8104 C.ar      23 UNK        -0.0193 
     12 C12        -1.3611  -19.6780  -49.8759 C.ar      23 UNK        -0.1150 
     13 C13         0.0258  -19.5103  -49.8406 C.ar      23 UNK        -0.0193 
     14 C14         0.5589  -18.2200  -49.7403 C.ar      23 UNK        -0.1150 
     15 C15         0.9281  -20.7351  -49.9376 C.3       23 UNK        -0.0205 
     16 S16         2.2699  -20.7950  -48.7007 S.3       23 UNK        -0.2404 
     17 C17         1.3794  -20.5911  -47.1224 C.3       23 UNK        -0.0398 
     18 CA          0.9855  -21.9248  -46.4394 C.3       11 UNK         0.1400 
     19 N           0.8040  -21.7589  -44.9966 N.am      11 UNK        -0.5000 
     20 C           0.6123  -22.7484  -44.1136 C.2       10 UNK         0.5000 
     21 O           0.6588  -23.9439  -44.4027 O.2       10 UNK        -0.5000 
     22 CA          0.2726  -22.3295  -42.6693 C.3       10 UNK         0.1400 
     23 CB          1.5500  -22.0432  -41.8662 C.3       10 UNK        -0.1800 
     24 N          -0.6169  -21.1666  -42.6085 N.am      10 UNK        -0.5000 
     25 C          -1.8761  -21.1534  -43.0706 C.2       9 UNK         0.5000 
     26 O          -2.4369  -22.1375  -43.5518 O.2       9 UNK        -0.5000 
     27 CA         -2.6156  -19.8033  -43.0412 C.3       9 UNK         0.1400 
     28 CB         -3.1630  -19.5008  -41.6386 C.3       9 UNK        -0.1800 
     29 N          -1.7761  -18.6941  -43.4935 N.am      9 UNK        -0.5000 
     30 C          -1.2631  -18.5854  -44.7273 C.2       8 UNK         0.5000 
     31 O          -1.4778  -19.3892  -45.6322 O.2       8 UNK        -0.5000 
     32 CA         -0.3094  -17.4054  -44.9758 C.3       8 UNK         0.1400 
     33 CB         -1.1189  -16.1192  -45.1886 C.3       8 UNK        -0.1800 
     34 N           0.6539  -17.2276  -43.8841 N.am      8 UNK        -0.5000 
     35 C           1.5564  -18.1499  -43.5120 C.2       7 UNK         0.5000 
     36 O           1.7208  -19.2151  -44.1005 O.2       7 UNK        -0.5000 
     37 CA          2.3804  -17.8653  -42.2447 C.3       7 UNK         0.1400 
     38 CB          3.6185  -17.0132  -42.5589 C.3       7 UNK        -0.1800 
     39 N           1.5779  -17.2157  -41.2119 N.am      7 UNK        -0.5000 
     40 C           0.5835  -17.8159  -40.5421 C.2       6 UNK         0.5000 
     41 O           0.2831  -19.0021  -40.6795 O.2       6 UNK        -0.5000 
     42 CA         -0.2456  -16.9153  -39.6082 C.3       6 UNK         0.1400 
     43 CB          0.4389  -16.7747  -38.2406 C.3       6 UNK        -0.1800 
     44 N          -0.4625  -15.5853  -40.1836 N.am      6 UNK        -0.5000 
     45 C          -1.2018  -15.3501  -41.2777 C.2       5 UNK         0.5000 
     46 O          -1.8455  -16.2237  -41.8573 O.2       5 UNK        -0.5000 
     47 CA         -1.1709  -13.9178  -41.8476 C.3       5 UNK         0.1400 
     48 CB         -2.2890  -13.0666  -41.2286 C.3       5 UNK        -0.1800 
     49 N           0.1206  -13.2595  -41.6294 N.am      5 UNK        -0.5000 
     50 C           1.2553  -13.5905  -42.2589 C.2       4 UNK         0.5000 
     51 O           1.3205  -14.4256  -43.1676 O.2       4 UNK        -0.5000 
     52 CA          2.5375  -12.9377  -41.7227 C.3       4 UNK         0.1400 
     53 CB          2.9360  -13.6086  -40.3891 C.3       4 UNK        -0.1800 
     54 N           3.5999  -13.0844  -42.7145 N.am      4 UNK        -0.5000 
     55 C           4.8373  -12.5776  -42.6342 C.2       3 UNK         0.5000 
     56 O           5.2377  -11.8743  -41.7060 O.2       3 UNK        -0.5000 
     57 CA          5.7839  -12.8970  -43.8045 C.3       3 UNK         0.1400 
     58 CB          6.1170  -14.3971  -43.8630 C.3       3 UNK        -0.1800 
     59 N           5.2185  -12.4763  -45.0833 N.am      3 UNK        -0.5000 
     60 C           5.1063  -11.2042  -45.4926 C.2       2 UNK         0.5000 
     61 O           5.5382  -10.2373  -44.8643 O.2       2 UNK        -0.5000 
     62 CA          4.3749  -10.9783  -46.8293 C.3       2 UNK         0.1400 
     63 CB          5.3693  -10.9845  -48.0001 C.3       2 UNK        -0.1800 
     64 N           3.3493  -11.9944  -47.0659 N.am      2 UNK        -0.5000 
     65 C           2.1835  -12.0661  -46.4128 C.2       1 UNK         0.5000 
     66 O           1.7992  -11.2173  -45.6077 O.2       1 UNK        -0.5000 
     67 C          -0.2674  -22.5537  -47.0812 C.2       11 UNK         0.5000 
     68 O          -0.1563  -23.5966  -47.7224 O.2       11 UNK        -0.5000 
     69 N          -1.4379  -21.9419  -46.8441 N.am      12 UNK        -0.5000 
     70 CA         -2.7418  -22.3734  -47.3528 C.3       12 UNK         0.1400 
     71 CB         -3.8086  -21.3456  -46.9486 C.3       12 UNK        -0.1800 
     72 C          -3.1494  -23.7850  -46.8930 C.2       12 UNK         0.5000 
     73 O          -3.7493  -24.5262  -47.6718 O.2       12 UNK        -0.5000 
     74 N          -2.7748  -24.1595  -45.6614 N.am      13 UNK        -0.5000 
     75 CA         -2.9526  -25.5036  -45.1039 C.3       13 UNK         0.1400 
     76 CB         -2.5937  -25.4842  -43.6104 C.3       13 UNK        -0.1800 
     77 C          -2.1488  -26.5960  -45.8422 C.2       13 UNK         0.5000 
     78 O          -2.5237  -27.7669  -45.7736 O.2       13 UNK        -0.5000 
     79 N          -1.0858  -26.1982  -46.5531 N.am      14 UNK        -0.5000 
     80 CA         -0.2707  -27.0469  -47.4215 C.3       14 UNK         0.1400 
     81 CB          1.2127  -26.7559  -47.1324 C.3       14 UNK        -0.1800 
     82 C          -0.6114  -26.8325  -48.9131 C.2       14 UNK         0.5000 
     83 O           0.1652  -27.2552  -49.7710 O.2       14 UNK        -0.5000 
     84 N          -1.7536  -26.1856  -49.1989 N.am      15 UNK        -0.5000 
     85 CA         -2.2293  -25.7325  -50.5073 C.3       15 UNK         0.1400 
     86 CB         -2.4950  -26.9168  -51.4644 C.3       15 UNK        -0.1800 
     87 C          -1.2976  -24.6464  -51.0762 C.2       15 UNK         0.5000 
     88 O          -1.3809  -23.5035  -50.6283 O.2       15 UNK        -0.5000 
     89 N          -0.4441  -25.0169  -52.0437 N.am      16 UNK        -0.5000 
     90 CA          0.6122  -24.2013  -52.6606 C.3       16 UNK         0.1400 
     91 CB          1.7689  -23.9937  -51.6607 C.3       16 UNK        -0.1800 
     92 C           0.1198  -22.8842  -53.3066 C.2       16 UNK         0.5000 
     93 O           0.8795  -21.9195  -53.4078 O.2       16 UNK        -0.5000 
     94 N          -1.1385  -22.8796  -53.7549 N.am      17 UNK        -0.5000 
     95 CA         -1.8298  -21.7741  -54.4039 C.3       17 UNK         0.1400 
     96 CB         -2.3502  -20.7844  -53.3447 C.3       17 UNK        -0.1800 
     97 C          -2.9844  -22.3581  -55.2283 C.2       17 UNK         0.5000 
     98 O          -3.4145  -23.4864  -54.9670 O.2       17 UNK        -0.5000 
     99 N          -3.4705  -21.5833  -56.2049 N.am      18 UNK        -0.5000 
    100 CA        -4.6291  -21.9291  -57.0280 C.3       18 UNK         0.1400 
    101 CB        -4.7318  -20.9335  -58.1936 C.3       18 UNK        -0.1800 
    102 C         -5.9230  -21.9052  -56.1985 C.2       18 UNK         0.5000 
    103 O         -6.0778  -21.0302  -55.3413 O.2       18 UNK        -0.5000 
    104 N         -6.8479  -22.8283  -56.4885 N.am      19 UNK        -0.5000 
    105 CA        -8.1423  -22.9536  -55.8067 C.3       19 UNK         0.1400 
    106 CB        -8.8417  -24.2350  -56.2849 C.3       19 UNK        -0.1800 
    107 C         -9.0617  -21.7315  -56.0006 C.2       19 UNK         0.5000 
    108 O         -9.8617  -21.4229  -55.1172 O.2       19 UNK        -0.5000 
    109 N         -8.9077  -21.0456  -57.1413 N.am      20 UNK        -0.5000 
    110 CA        -9.5915  -19.7933  -57.4621 C.3       20 UNK         0.1400 
    111 CB        -9.5012  -19.5559  -58.9776 C.3       20 UNK        -0.1800 
    112 C         -9.0261  -18.5812  -56.6942 C.2       20 UNK         0.5000 
    113 O         -9.7367  -17.5866  -56.5427 O.2       20 UNK        -0.5000 
    114 N         -7.7688  -18.6735  -56.2377 N.am      21 UNK        -0.5000 
    115 CA        -7.0961  -17.6421  -55.4538 C.3       21 UNK         0.1400 
    116 CB        -5.5899  -17.6384  -55.7731 C.3       21 UNK        -0.1800 
    117 C         -7.3638  -17.8565  -53.9571 C.2       21 UNK         0.5000 
    118 O         -8.0068  -17.0130  -53.3306 O.2       21 UNK        -0.5000 
    119 N         -6.8820  -18.9835  -53.4199 N.am      22 UNK        -0.5000 
    120 CA        -6.9790  -19.3478  -51.9962 C.3       22 UNK         0.1400 
    121 C         -6.6533  -20.8369  -51.6784 C.2       22 UNK         0.5000 
    122 N         -6.3022  -21.6809  -52.6404 N.am      22 UNK        -0.7600 
    123 O         -6.7446  -21.2490  -50.5253 O.2       22 UNK        -0.5000 
    124 C124       -6.2158  -18.3667  -51.0590 C.3       23 UNK        -0.0398 
    125 S125       -4.4306  -18.2199  -51.4239 S.3       23 UNK        -0.2404 
    126 C126       -3.7206  -18.7598  -49.8396 C.3       23 UNK        -0.0205 
    127 H127        3.1090  -16.6839  -45.4180 H         1 UNK         0.0600 
    128 H128        4.6267  -16.4472  -46.2830 H         1 UNK         0.0600 
    129 H129        3.2833  -17.2901  -47.0654 H         1 UNK         0.0600 
    130 H130        1.6830  -14.9827  -45.4511 H         1 UNK         0.3000 
    131 H131        0.4937  -13.2443  -45.9615 H         1 UNK         0.0600 
    132 H132        0.1702  -12.3701  -48.2621 H         1 UNK         0.0800 
    133 H133        1.4691  -13.3597  -48.8635 H         1 UNK         0.0800 
    134 H134        1.3821  -15.7741  -49.3224 H         1 UNK         0.0800 
    135 H135        0.2564  -15.2207  -50.5404 H         1 UNK         0.0800 
    136 H136       -2.3280  -16.4373  -49.6619 H         1 UNK         0.1150 
    137 H137       -1.7787  -20.6715  -49.9639 H         1 UNK         0.1150 
    138 H138        1.6315  -18.0880  -49.7228 H         1 UNK         0.1150 
    139 H139        0.3356  -21.6447  -49.8420 H         1 UNK         0.0800 
    140 H140        1.3696  -20.7623  -50.9342 H         1 UNK         0.0800 
    141 H141        0.5239  -19.9268  -47.2425 H         1 UNK         0.0800 
    142 H142        2.0730  -20.0486  -46.4808 H         1 UNK         0.0800 
    143 H143        1.8108  -22.6287  -46.5674 H         1 UNK         0.0600 
    144 H144        0.8263  -20.8040  -44.6499 H         1 UNK         0.3000 
    145 H145       -0.2442  -23.1667  -42.1956 H         1 UNK         0.0600 
    146 H146        1.3176  -21.7941  -40.8306 H         1 UNK         0.0600 
    147 H147        2.2052  -22.9149  -41.8532 H         1 UNK         0.0600 
    148 H148        2.1162  -21.2142  -42.2904 H         1 UNK         0.0600 
    149 H149       -0.2420  -20.3236  -42.1871 H         1 UNK         0.3000 
    150 H150       -3.4632  -19.8759  -43.7257 H         1 UNK         0.0600 
    151 H151       -3.8241  -20.2986  -41.2981 H         1 UNK         0.0600 
    152 H152       -3.7388  -18.5750  -41.6323 H         1 UNK         0.0600 
    153 H153       -2.3640  -19.4008  -40.9041 H         1 UNK         0.0600 
    154 H154       -1.5941  -17.9534  -42.8237 H         1 UNK         0.3000 
    155 H155        0.2563  -17.6084  -45.8879 H         1 UNK         0.0600 
    156 H156       -1.8164  -15.9289  -44.3755 H         1 UNK         0.0600 
    157 H157       -1.7123  -16.1912  -46.1004 H         1 UNK         0.0600 
    158 H158       -0.4753  -15.2485  -45.2813 H         1 UNK         0.0600 
    159 H159        0.6123  -16.3542  -43.3730 H         1 UNK         0.3000 
    160 H160        2.7259  -18.8235  -41.8513 H         1 UNK         0.0600 
    161 H161        3.3495  -16.0379  -42.9601 H         1 UNK         0.0600 
    162 H162        4.2535  -17.5072  -43.2953 H         1 UNK         0.0600 
    163 H163        4.2240  -16.8523  -41.6670 H         1 UNK         0.0600 
    164 H164        1.7409  -16.2338  -41.0574 H         1 UNK         0.3000 
    165 H165       -1.2180  -17.3901  -39.4601 H         1 UNK         0.0600 
    166 H166       -0.1736  -16.1927  -37.5517 H         1 UNK         0.0600 
    167 H167        0.6005  -17.7521  -37.7838 H         1 UNK         0.0600 
    168 H168        1.4104  -16.2855  -38.3220 H         1 UNK         0.0600 
    169 H169        0.0162  -14.8129  -39.7460 H         1 UNK         0.3000 
    170 H170       -1.3468  -13.9813  -42.9233 H         1 UNK         0.0600 
    171 H171       -3.2651  -13.5238  -41.3969 H         1 UNK         0.0600 
    172 H172       -2.1613  -12.9520  -40.1515 H         1 UNK         0.0600 
    173 H173       -2.3172  -12.0710  -41.6718 H         1 UNK         0.0600 
    174 H174        0.1487  -12.5568  -40.9044 H         1 UNK         0.3000 
    175 H175        2.3479  -11.8743  -41.5651 H         1 UNK         0.0600 
    176 H176        3.2222  -14.6507  -40.5329 H         1 UNK         0.0600 
    177 H177        3.7749  -13.0992  -39.9161 H         1 UNK         0.0600 
    178 H178        2.1176  -13.5876  -39.6688 H         1 UNK         0.0600 
    179 H179        3.3277  -13.6273  -43.5225 H         1 UNK         0.3000 
    180 H180        6.7160  -12.3518  -43.6402 H         1 UNK         0.0600 
    181 H181        6.4956  -14.7522  -42.9035 H         1 UNK         0.0600 
    182 H182        6.8861  -14.5981  -44.6090 H         1 UNK         0.0600 
    183 H183        5.2450  -14.9996  -44.1160 H         1 UNK         0.0600 
    184 H184        4.8440  -13.1988  -45.6783 H         1 UNK         0.3000 
    185 H185        3.8952   -9.9980  -46.7898 H         1 UNK         0.0600 
    186 H186        4.8676  -10.7687  -48.9436 H         1 UNK         0.0600 
    187 H187        6.1407  -10.2259  -47.8613 H         1 UNK         0.0600 
    188 H188        5.8695  -11.9488  -48.0991 H         1 UNK         0.0600 
    189 H189        3.5957  -12.7730  -47.6714 H         1 UNK         0.3000 
    190 H190       -1.4355  -21.0767  -46.3062 H         1 UNK         0.3000 
    191 H191       -2.6769  -22.3888  -48.4421 H         1 UNK         0.0600 
    192 H192       -3.9293  -21.2984  -45.8658 H         1 UNK         0.0600 
    193 H193       -4.7782  -21.5982  -47.3797 H         1 UNK         0.0600 
    194 H194       -3.5465  -20.3466  -47.2961 H         1 UNK         0.0600 
    195 H195       -2.3481  -23.4680  -45.0522 H         1 UNK         0.3000 
    196 H196       -4.0093  -25.7623  -45.1950 H         1 UNK         0.0600 
    197 H197       -2.7405  -26.4663  -43.1591 H         1 UNK         0.0600 
    198 H198       -3.2200  -24.7795  -43.0632 H         1 UNK         0.0600 
    199 H199       -1.5531  -25.2019  -43.4509 H         1 UNK         0.0600 
    200 H200       -0.8604  -25.2090  -46.5855 H         1 UNK         0.3000 
    201 H201       -0.4551  -28.1000  -47.2012 H         1 UNK         0.0600 
    202 H202        1.4428  -26.8962  -46.0760 H         1 UNK         0.0600 
    203 H203        1.4816  -25.7332  -47.3989 H         1 UNK         0.0600 
    204 H204        1.8634  -27.4247  -47.6969 H         1 UNK         0.0600 
    205 H205       -2.3006  -25.8387  -48.4196 H         1 UNK         0.3000 
    206 H206       -3.1886  -25.2444  -50.3285 H         1 UNK         0.0600 
    207 H207       -3.2351  -27.5960  -51.0412 H         1 UNK         0.0600 
    208 H208       -2.8920  -26.5638  -52.4170 H         1 UNK         0.0600 
    209 H209       -1.5999  -27.5007  -51.6774 H         1 UNK         0.0600 
    210 H210       -0.4638  -25.9860  -52.3286 H         1 UNK         0.3000 
    211 H211        1.0052  -24.7953  -53.4866 H         1 UNK         0.0600 
    212 H212        1.4453  -23.4519  -50.7735 H         1 UNK         0.0600 
    213 H213        2.5915  -23.4353  -52.1086 H         1 UNK         0.0600 
    214 H214        2.1724  -24.9505  -51.3294 H         1 UNK         0.0600 
    215 H215       -1.6956  -23.7213  -53.6783 H         1 UNK         0.3000 
    216 H216       -1.1420  -21.2642  -55.0816 H         1 UNK         0.0600 
    217 H217       -2.9035  -19.9651  -53.8053 H         1 UNK         0.0600 
    218 H218       -1.5298  -20.3420  -52.7795 H         1 UNK         0.0600 
    219 H219       -3.0191  -21.2712  -52.6334 H         1 UNK         0.0600 
    220 H220       -3.0852  -20.6600  -56.3377 H         1 UNK         0.3000 
    221 H221       -4.4812  -22.9326  -57.4326 H         1 UNK         0.0600 
    222 H222       -4.8751  -19.9111  -57.8414 H         1 UNK         0.0600 
    223 H223       -3.8318  -20.9526  -58.8084 H         1 UNK         0.0600 
    224 H224       -5.5726  -21.1767  -58.8445 H         1 UNK         0.0600 
    225 H225       -6.6524  -23.5107  -57.2071 H         1 UNK         0.3000 
    226 H226       -7.9494  -23.0501  -54.7362 H         1 UNK         0.0600 
    227 H227       -8.2367  -25.1170  -56.0740 H         1 UNK         0.0600 
    228 H228       -9.7982  -24.3704  -55.7781 H         1 UNK         0.0600 
    229 H229       -9.0389  -24.2101  -57.3574 H         1 UNK         0.0600 
    230 H230       -8.2389  -21.3845  -57.8167 H         1 UNK         0.3000 
    231 H231      -10.6454  -19.8931  -57.1936 H         1 UNK         0.0600 
    232 H232       -9.9552  -20.3765  -59.5335 H         1 UNK         0.0600 
    233 H233       -8.4667  -19.4562  -59.3088 H         1 UNK         0.0600 
    234 H234      -10.0263  -18.6430  -59.2622 H         1 UNK         0.0600 
    235 H235       -7.2799  -19.5534  -56.3314 H         1 UNK         0.3000 
    236 H236       -7.4877  -16.6597  -55.7272 H         1 UNK         0.0600 
    237 H237       -5.0738  -16.8727  -55.1926 H         1 UNK         0.0600 
    238 H238       -5.1125  -18.5917  -55.5482 H         1 UNK         0.0600 
    239 H239       -5.4145  -17.4200  -56.8264 H         1 UNK         0.0600 
    240 H240       -6.3989  -19.6420  -54.0200 H         1 UNK         0.3000 
    241 H241       -8.0375  -19.2606  -51.7450 H         1 UNK         0.0600 
    242 H242       -6.1046  -22.6350  -52.3876 H         1 UNK         0.3800 
    243 H243       -6.2218  -21.3997  -53.6129 H         1 UNK         0.3800 
    244 H244       -6.6460  -17.3682  -51.1331 H         1 UNK         0.0800 
    245 H245       -6.3613  -18.6510  -50.0156 H         1 UNK         0.0800 
    246 H246       -3.9854  -19.8050  -49.6718 H         1 UNK         0.0800 
    247 H247       -4.1648  -18.1884  -49.0231 H         1 UNK         0.0800 
@<TRIPOS>BOND
     1    1    2 1    
     2    1  127 1    
     3    1  128 1    
     4    1  129 1    
     5    2    3 2    
     6    2    4 am   BACKBONE|DICT|INTERRES
     7    4    5 1    
     8    4  130 1    
     9    5    6 1    
    10    5   65 1    
    11    5  131 1    
    12    6    7 1    
    13    6  132 1    
    14    6  133 1    
    15    7    8 1    
    16    8    9 1    
    17    8  134 1    
    18    8  135 1    
    19    9   10 ar   
    20    9   14 ar   
    21   10   11 ar   
    22   10  136 1    
    23   11   12 ar   
    24   11  126 1    
    25   12   13 ar   
    26   12  137 1    
    27   13   14 ar   
    28   13   15 1    
    29   14  138 1    
    30   15   16 1    
    31   15  139 1    
    32   15  140 1    
    33   16   17 1    
    34   17   18 1    
    35   17  141 1    
    36   17  142 1    
    37   18   19 1    
    38   18   67 1    
    39   18  143 1    
    40   19   20 am   BACKBONE|DICT|INTERRES
    41   19  144 1    
    42   20   21 2    
    43   20   22 1    
    44   22   23 1    
    45   22   24 1    
    46   22  145 1    
    47   23  146 1    
    48   23  147 1    
    49   23  148 1    
    50   24   25 am   BACKBONE|DICT|INTERRES
    51   24  149 1    
    52   25   26 2    
    53   25   27 1    
    54   27   28 1    
    55   27   29 1    
    56   27  150 1    
    57   28  151 1    
    58   28  152 1    
    59   28  153 1    
    60   29   30 am   BACKBONE|DICT|INTERRES
    61   29  154 1    
    62   30   31 2    
    63   30   32 1    
    64   32   33 1    
    65   32   34 1    
    66   32  155 1    
    67   33  156 1    
    68   33  157 1    
    69   33  158 1    
    70   34   35 am   BACKBONE|DICT|INTERRES
    71   34  159 1    
    72   35   36 2    
    73   35   37 1    
    74   37   38 1    
    75   37   39 1    
    76   37  160 1    
    77   38  161 1    
    78   38  162 1    
    79   38  163 1    
    80   39   40 am   BACKBONE|DICT|INTERRES
    81   39  164 1    
    82   40   41 2    
    83   40   42 1    
    84   42   43 1    
    85   42   44 1    
    86   42  165 1    
    87   43  166 1    
    88   43  167 1    
    89   43  168 1    
    90   44   45 am   BACKBONE|DICT|INTERRES
    91   44  169 1    
    92   45   46 2    
    93   45   47 1    
    94   47   48 1    
    95   47   49 1    
    96   47  170 1    
    97   48  171 1    
    98   48  172 1    
    99   48  173 1    
   100   49   50 am   BACKBONE|DICT|INTERRES
   101   49  174 1    
   102   50   51 2    
   103   50   52 1    
   104   52   53 1    
   105   52   54 1    
   106   52  175 1    
   107   53  176 1    
   108   53  177 1    
   109   53  178 1    
   110   54   55 am   BACKBONE|DICT|INTERRES
   111   54  179 1    
   112   55   56 2    
   113   55   57 1    
   114   57   58 1    
   115   57   59 1    
   116   57  180 1    
   117   58  181 1    
   118   58  182 1    
   119   58  183 1    
   120   59   60 am   BACKBONE|DICT|INTERRES
   121   59  184 1    
   122   60   61 2    
   123   60   62 1    
   124   62   63 1    
   125   62   64 1    
   126   62  185 1    
   127   63  186 1    
   128   63  187 1    
   129   63  188 1    
   130   64   65 am   BACKBONE|DICT|INTERRES
   131   64  189 1    
   132   65   66 2    
   133   67   68 2    
   134   67   69 am   BACKBONE|DICT|INTERRES
   135   69   70 1    
   136   69  190 1    
   137   70   71 1    
   138   70   72 1    
   139   70  191 1    
   140   71  192 1    
   141   71  193 1    
   142   71  194 1    
   143   72   73 2    
   144   72   74 am   BACKBONE|DICT|INTERRES
   145   74   75 1    
   146   74  195 1    
   147   75   76 1    
   148   75   77 1    
   149   75  196 1    
   150   76  197 1    
   151   76  198 1    
   152   76  199 1    
   153   77   78 2    
   154   77   79 am   BACKBONE|DICT|INTERRES
   155   79   80 1    
   156   79  200 1    
   157   80   81 1    
   158   80   82 1    
   159   80  201 1    
   160   81  202 1    
   161   81  203 1    
   162   81  204 1    
   163   82   83 2    
   164   82   84 am   BACKBONE|DICT|INTERRES
   165   84   85 1    
   166   84  205 1    
   167   85   86 1    
   168   85   87 1    
   169   85  206 1    
   170   86  207 1    
   171   86  208 1    
   172   86  209 1    
   173   87   88 2    
   174   87   89 am   BACKBONE|DICT|INTERRES
   175   89   90 1    
   176   89  210 1    
   177   90   91 1    
   178   90   92 1    
   179   90  211 1    
   180   91  212 1    
   181   91  213 1    
   182   91  214 1    
   183   92   93 2    
   184   92   94 am   BACKBONE|DICT|INTERRES
   185   94   95 1    
   186   94  215 1    
   187   95   96 1    
   188   95   97 1    
   189   95  216 1    
   190   96  217 1    
   191   96  218 1    
   192   96  219 1    
   193   97   98 2    
   194   97   99 am   BACKBONE|DICT|INTERRES
   195   99  100 1    
   196   99  220 1    
   197  100  101 1    
   198  100  102 1    
   199  100  221 1    
   200  101  222 1    
   201  101  223 1    
   202  101  224 1    
   203  102  103 2    
   204  102  104 am   BACKBONE|DICT|INTERRES
   205  104  105 1    
   206  104  225 1    
   207  105  106 1    
   208  105  107 1    
   209  105  226 1    
   210  106  227 1    
   211  106  228 1    
   212  106  229 1    
   213  107  108 2    
   214  107  109 am   BACKBONE|DICT|INTERRES
   215  109  110 1    
   216  109  230 1    
   217  110  111 1    
   218  110  112 1    
   219  110  231 1    
   220  111  232 1    
   221  111  233 1    
   222  111  234 1    
   223  112  113 2    
   224  112  114 am   BACKBONE|DICT|INTERRES
   225  114  115 1    
   226  114  235 1    
   227  115  116 1    
   228  115  117 1    
   229  115  236 1    
   230  116  237 1    
   231  116  238 1    
   232  116  239 1    
   233  117  118 2    
   234  117  119 am   BACKBONE|DICT|INTERRES
   235  119  120 1    
   236  119  240 1    
   237  120  121 1    
   238  120  124 1    
   239  120  241 1    
   240  121  122 am   BACKBONE|DICT|INTERRES
   241  121  123 2    
   242  122  242 1    
   243  122  243 1    
   244  124  125 1    
   245  124  244 1    
   246  124  245 1    
   247  125  126 1    
   248  126  246 1    
   249  126  247 1    
@<TRIPOS>SUBSTRUCTURE
     1 UNK         1 GROUP             0       ****    0 ROOT    
