@<TRIPOS>MOLECULE
3R540
247   249    1
SMALL
USER_CHARGES


@<TRIPOS>ATOM
      1 CA         -0.4276  -15.2626  -48.4412 C.3       0 UNK        -0.1800 
      2 C          -1.2946  -14.0242  -48.2690 C.2       0 UNK         0.5000 
      3 O          -0.8930  -12.9434  -48.6991 O.2       0 UNK        -0.5000 
      4 N          -2.4708  -14.1775  -47.6415 N.am      1 UNK        -0.5000 
      5 CA         -3.4487  -13.1148  -47.3586 C.3       1 UNK         0.1400 
      6 C6         -4.1298  -12.5530  -48.6412 C.3       23 UNK        -0.0398 
      7 S7         -5.4382  -13.6523  -49.2804 S.3       23 UNK        -0.2404 
      8 C8         -4.6709  -14.4264  -50.7449 C.3       23 UNK        -0.0205 
      9 C9         -3.9570  -15.7398  -50.4410 C.ar      23 UNK        -0.0193 
     10 C10        -2.7216  -16.0172  -51.0355 C.ar      23 UNK        -0.1150 
     11 C11        -2.0755  -17.2344  -50.7982 C.ar      23 UNK        -0.0193 
     12 C12        -2.6731  -18.1789  -49.9618 C.ar      23 UNK        -0.1150 
     13 C13        -3.9125  -17.9215  -49.3699 C.ar      23 UNK        -0.0193 
     14 C14        -4.5492  -16.7037  -49.6165 C.ar      23 UNK        -0.1150 
     15 C15        -4.5932  -18.9772  -48.5128 C.3       23 UNK        -0.0205 
     16 S16        -4.3918  -18.6931  -46.7249 S.3       23 UNK        -0.2404 
     17 C17        -2.5806  -18.7247  -46.4739 C.3       23 UNK        -0.0398 
     18 CA         -1.8569  -20.0203  -46.9277 C.3       11 UNK         0.1400 
     19 N          -0.4197  -19.7841  -47.0599 N.am      11 UNK        -0.5000 
     20 C           0.3938  -20.3601  -47.9517 C.2       10 UNK         0.5000 
     21 O           0.0084  -21.1605  -48.8024 O.2       10 UNK        -0.5000 
     22 CA          1.8900  -20.0138  -47.8462 C.3       10 UNK         0.1400 
     23 CB          2.1814  -18.6445  -48.4792 C.3       10 UNK        -0.1800 
     24 N           2.3629  -20.0238  -46.4606 N.am      10 UNK        -0.5000 
     25 C           2.4574  -21.1240  -45.6989 C.2       9 UNK         0.5000 
     26 O           2.2238  -22.2605  -46.1095 O.2       9 UNK        -0.5000 
     27 CA          2.8651  -20.9244  -44.2270 C.3       9 UNK         0.1400 
     28 CB          4.3923  -20.8349  -44.0886 C.3       9 UNK        -0.1800 
     29 N           2.2445  -19.7425  -43.6274 N.am      9 UNK        -0.5000 
     30 C           0.9346  -19.6275  -43.3638 C.2       8 UNK         0.5000 
     31 O           0.1250  -20.5398  -43.5232 O.2       8 UNK        -0.5000 
     32 CA          0.4377  -18.2554  -42.8695 C.3       8 UNK         0.1400 
     33 CB          0.5954  -18.1296  -41.3470 C.3       8 UNK        -0.1800 
     34 N           1.1231  -17.1405  -43.5216 N.am      8 UNK        -0.5000 
     35 C           1.0467  -16.8566  -44.8280 C.2       7 UNK         0.5000 
     36 O           0.3333  -17.4698  -45.6200 O.2       7 UNK        -0.5000 
     37 CA          1.9671  -15.7420  -45.3495 C.3       7 UNK         0.1400 
     38 CB          1.3427  -14.3573  -45.1368 C.3       7 UNK        -0.1800 
     39 N           3.2906  -15.7878  -44.7316 N.am      7 UNK        -0.5000 
     40 C           4.2074  -16.7303  -44.9889 C.2       6 UNK         0.5000 
     41 O           4.0383  -17.6431  -45.7966 O.2       6 UNK        -0.5000 
     42 CA          5.5153  -16.6603  -44.1798 C.3       6 UNK         0.1400 
     43 CB          6.5101  -15.6956  -44.8420 C.3       6 UNK        -0.1800 
     44 N           5.2938  -16.2515  -42.7917 N.am      6 UNK        -0.5000 
     45 C           4.6516  -16.9959  -41.8807 C.2       5 UNK         0.5000 
     46 O           4.2122  -18.1228  -42.1068 O.2       5 UNK        -0.5000 
     47 CA          4.4153  -16.3493  -40.5027 C.3       5 UNK         0.1400 
     48 CB          5.6410  -16.5419  -39.5974 C.3       5 UNK        -0.1800 
     49 N           4.0798  -14.9226  -40.5742 N.am      5 UNK        -0.5000 
     50 C           3.0068  -14.4269  -41.2045 C.2       4 UNK         0.5000 
     51 O           2.2171  -15.1195  -41.8482 O.2       4 UNK        -0.5000 
     52 CA          2.8168  -12.8993  -41.1536 C.3       4 UNK         0.1400 
     53 CB          3.5805  -12.2345  -42.3098 C.3       4 UNK        -0.1800 
     54 N           1.4090  -12.5046  -41.2363 N.am      4 UNK        -0.5000 
     55 C           0.4616  -12.8120  -40.3387 C.2       3 UNK         0.5000 
     56 O           0.6886  -13.4269  -39.2952 O.2       3 UNK        -0.5000 
     57 CA         -0.9766  -12.3306  -40.6261 C.3       3 UNK         0.1400 
     58 CB         -1.4219  -11.3034  -39.5716 C.3       3 UNK        -0.1800 
     59 N          -1.1514  -11.7338  -41.9543 N.am      3 UNK        -0.5000 
     60 C          -1.3614  -12.4230  -43.0819 C.2       2 UNK         0.5000 
     61 O          -1.3935  -13.6547  -43.1420 O.2       2 UNK        -0.5000 
     62 CA         -1.5698  -11.5874  -44.3535 C.3       2 UNK         0.1400 
     63 CB         -0.2535  -10.9529  -44.8407 C.3       2 UNK        -0.1800 
     64 N          -2.1390  -12.4383  -45.3939 N.am      2 UNK        -0.5000 
     65 C          -2.8618  -12.0145  -46.4375 C.2       1 UNK         0.5000 
     66 O          -3.0754  -10.8221  -46.6670 O.2       1 UNK        -0.5000 
     67 C          -2.1288  -21.2527  -46.0379 C.2       11 UNK         0.5000 
     68 O          -2.8337  -21.1604  -45.0319 O.2       11 UNK        -0.5000 
     69 N          -1.5586  -22.4000  -46.4337 N.am      12 UNK        -0.5000 
     70 CA         -1.7134  -23.6896  -45.7541 C.3       12 UNK         0.1400 
     71 CB         -0.6356  -24.6590  -46.2630 C.3       12 UNK        -0.1800 
     72 C          -3.1161  -24.3090  -45.9249 C.2       12 UNK         0.5000 
     73 O          -3.4988  -25.1678  -45.1293 O.2       12 UNK        -0.5000 
     74 N          -3.8525  -23.8668  -46.9497 N.am      13 UNK        -0.5000 
     75 CA         -5.2266  -24.2437  -47.2467 C.3       13 UNK         0.1400 
     76 CB         -5.2377  -25.3803  -48.2820 C.3       13 UNK        -0.1800 
     77 C          -5.9374  -23.0007  -47.7914 C.2       13 UNK         0.5000 
     78 O          -5.3243  -22.2313  -48.5356 O.2       13 UNK        -0.5000 
     79 N          -7.2202  -22.8398  -47.4427 N.am      14 UNK        -0.5000 
     80 CA         -8.0542  -21.6810  -47.7878 C.3       14 UNK         0.1400 
     81 CB         -9.3877  -21.7874  -47.0321 C.3       14 UNK        -0.1800 
     82 C          -8.3047  -21.4929  -49.2983 C.2       14 UNK         0.5000 
     83 O          -8.6421  -20.3874  -49.7221 O.2       14 UNK        -0.5000 
     84 N          -8.1132  -22.5619  -50.0835 N.am      15 UNK        -0.5000 
     85 CA         -8.1685  -22.5577  -51.5467 C.3       15 UNK         0.1400 
     86 CB         -8.3271  -24.0047  -52.0367 C.3       15 UNK        -0.1800 
     87 C          -6.9539  -21.8743  -52.2144 C.2       15 UNK         0.5000 
     88 O          -6.9771  -21.6800  -53.4309 O.2       15 UNK        -0.5000 
     89 N          -5.9269  -21.5165  -51.4258 N.am      16 UNK        -0.5000 
     90 CA         -4.7193  -20.7959  -51.8314 C.3       16 UNK         0.1400 
     91 CB         -5.0721  -19.3599  -52.2858 C.3       16 UNK        -0.1800 
     92 C          -3.8992  -21.6011  -52.8545 C.2       16 UNK         0.5000 
     93 O          -3.6443  -22.7851  -52.6218 O.2       16 UNK        -0.5000 
     94 N          -3.5142  -20.9685  -53.9699 N.am      17 UNK        -0.5000 
     95 CA         -2.6832  -21.5289  -55.0370 C.3       17 UNK         0.1400 
     96 CB         -2.4373  -20.4457  -56.0970 C.3       17 UNK        -0.1800 
     97 C          -3.2332  -22.8139  -55.6909 C.2       17 UNK         0.5000 
     98 O          -2.4557  -23.5684  -56.2744 O.2       17 UNK        -0.5000 
     99 N          -4.5443  -23.0577  -55.5648 N.am      18 UNK        -0.5000 
    100 CA        -5.2160  -24.2593  -56.0557 C.3       18 UNK         0.1400 
    101 CB        -6.7259  -23.9864  -56.1309 C.3       18 UNK        -0.1800 
    102 C         -4.9374  -25.5240  -55.2157 C.2       18 UNK         0.5000 
    103 O         -5.1816  -26.6219  -55.7187 O.2       18 UNK        -0.5000 
    104 N         -4.4572  -25.3716  -53.9711 N.am      19 UNK        -0.5000 
    105 CA        -4.2146  -26.4879  -53.0507 C.3       19 UNK         0.1400 
    106 CB        -5.3626  -26.5745  -52.0330 C.3       19 UNK        -0.1800 
    107 C         -2.8636  -26.3785  -52.3297 C.2       19 UNK         0.5000 
    108 O         -2.1283  -27.3645  -52.2717 O.2       19 UNK        -0.5000 
    109 N         -2.5585  -25.1948  -51.7849 N.am      20 UNK        -0.5000 
    110 CA        -1.3453  -24.9284  -51.0100 C.3       20 UNK         0.1400 
    111 CB        -1.6566  -23.8298  -49.9825 C.3       20 UNK        -0.1800 
    112 C         -0.1556  -24.5058  -51.8895 C.2       20 UNK         0.5000 
    113 O          0.9778  -24.5019  -51.4085 O.2       20 UNK        -0.5000 
    114 N         -0.4380  -24.1116  -53.1411 N.am      21 UNK        -0.5000 
    115 CA         0.4916  -23.6101  -54.1652 C.3       21 UNK         0.1400 
    116 CB         1.5486  -24.6763  -54.5192 C.3       21 UNK        -0.1800 
    117 C          1.1411  -22.2462  -53.8352 C.2       21 UNK         0.5000 
    118 O          1.9480  -21.7626  -54.6300 O.2       21 UNK        -0.5000 
    119 N          0.7802  -21.6471  -52.6906 N.am      22 UNK        -0.5000 
    120 CA         1.3576  -20.4146  -52.1278 C.3       22 UNK         0.1400 
    121 C          2.8796  -20.5187  -51.7972 C.2       22 UNK         0.5000 
    122 N          3.3995  -21.7052  -51.5033 N.am      22 UNK        -0.7600 
    123 O          3.5943  -19.5209  -51.7731 O.2       22 UNK        -0.5000 
    124 C124        0.9665  -19.1416  -52.9313 C.3       23 UNK        -0.0398 
    125 S125       -0.8100  -18.7596  -52.7478 S.3       23 UNK        -0.2404 
    126 C126       -0.7162  -17.5265  -51.4116 C.3       23 UNK        -0.0205 
    127 H127       -0.2074  -15.4168  -49.4961 H         1 UNK         0.0600 
    128 H128       -0.9088  -16.1604  -48.0548 H         1 UNK         0.0600 
    129 H129        0.5196  -15.1293  -47.9236 H         1 UNK         0.0600 
    130 H130       -2.7449  -15.1008  -47.3380 H         1 UNK         0.3000 
    131 H131       -4.2273  -13.5822  -46.7536 H         1 UNK         0.0600 
    132 H132       -4.6360  -11.6086  -48.4369 H         1 UNK         0.0800 
    133 H133       -3.3986  -12.3291  -49.4180 H         1 UNK         0.0800 
    134 H134       -3.9970  -13.7156  -51.2250 H         1 UNK         0.0800 
    135 H135       -5.4576  -14.6358  -51.4705 H         1 UNK         0.0800 
    136 H136       -2.2609  -15.2850  -51.6835 H         1 UNK         0.1150 
    137 H137       -2.1733  -19.1217  -49.7965 H         1 UNK         0.1150 
    138 H138       -5.5164  -16.5134  -49.1732 H         1 UNK         0.1150 
    139 H139       -5.6597  -18.9955  -48.7427 H         1 UNK         0.0800 
    140 H140       -4.2265  -19.9679  -48.7689 H         1 UNK         0.0800 
    141 H141       -2.3710  -18.5197  -45.4226 H         1 UNK         0.0800 
    142 H142       -2.1758  -17.8714  -47.0177 H         1 UNK         0.0800 
    143 H143       -2.2319  -20.2904  -47.9121 H         1 UNK         0.0600 
    144 H144       -0.0244  -19.1086  -46.4094 H         1 UNK         0.3000 
    145 H145        2.4491  -20.7701  -48.4012 H         1 UNK         0.0600 
    146 H146        1.6375  -17.8415  -47.9819 H         1 UNK         0.0600 
    147 H147        3.2444  -18.4076  -48.4320 H         1 UNK         0.0600 
    148 H148        1.8970  -18.6309  -49.5304 H         1 UNK         0.0600 
    149 H149        2.6463  -19.1325  -46.0685 H         1 UNK         0.3000 
    150 H150        2.5287  -21.8007  -43.6690 H         1 UNK         0.0600 
    151 H151        4.8743  -21.7190  -44.5077 H         1 UNK         0.0600 
    152 H152        4.6895  -20.7679  -43.0420 H         1 UNK         0.0600 
    153 H153        4.7954  -19.9649  -44.6068 H         1 UNK         0.0600 
    154 H154        2.8611  -18.9732  -43.3893 H         1 UNK         0.3000 
    155 H155       -0.6248  -18.1799  -43.1102 H         1 UNK         0.0600 
    156 H156        0.0537  -18.9236  -40.8316 H         1 UNK         0.0600 
    157 H157        1.6406  -18.1941  -41.0442 H         1 UNK         0.0600 
    158 H158        0.2019  -17.1784  -40.9874 H         1 UNK         0.0600 
    159 H159        1.6791  -16.5320  -42.9250 H         1 UNK         0.3000 
    160 H160        2.0948  -15.8951  -46.4224 H         1 UNK         0.0600 
    161 H161        1.9498  -13.5803  -45.6009 H         1 UNK         0.0600 
    162 H162        0.3479  -14.3036  -45.5795 H         1 UNK         0.0600 
    163 H163        1.2376  -14.1169  -44.0793 H         1 UNK         0.0600 
    164 H164        3.4784  -15.1116  -44.0072 H         1 UNK         0.3000 
    165 H165        5.9585  -17.6584  -44.1757 H         1 UNK         0.0600 
    166 H166        7.4663  -15.6948  -44.3185 H         1 UNK         0.0600 
    167 H167        6.7065  -15.9868  -45.8748 H         1 UNK         0.0600 
    168 H168        6.1332  -14.6721  -44.8554 H         1 UNK         0.0600 
    169 H169        5.6237  -15.3364  -42.5229 H         1 UNK         0.3000 
    170 H170        3.5694  -16.8634  -40.0417 H         1 UNK         0.0600 
    171 H171        5.9015  -17.5979  -39.5128 H         1 UNK         0.0600 
    172 H172        6.5157  -16.0180  -39.9849 H         1 UNK         0.0600 
    173 H173        5.4484  -16.1749  -38.5891 H         1 UNK         0.0600 
    174 H174        4.6935  -14.2915  -40.0791 H         1 UNK         0.3000 
    175 H175        3.2153  -12.5298  -40.2066 H         1 UNK         0.0600 
    176 H176        3.2017  -12.5552  -43.2811 H         1 UNK         0.0600 
    177 H177        3.5005  -11.1483  -42.2620 H         1 UNK         0.0600 
    178 H178        4.6425  -12.4809  -42.2740 H         1 UNK         0.0600 
    179 H179        1.1257  -12.0128  -42.0691 H         1 UNK         0.3000 
    180 H180       -1.6284  -13.2029  -40.5428 H         1 UNK         0.0600 
    181 H181       -0.8018  -10.4065  -39.5966 H         1 UNK         0.0600 
    182 H182       -1.3568  -11.7191  -38.5652 H         1 UNK         0.0600 
    183 H183       -2.4576  -11.0011  -39.7279 H         1 UNK         0.0600 
    184 H184       -1.1353  -10.7244  -41.9926 H         1 UNK         0.3000 
    185 H185       -2.2836  -10.7963  -44.1140 H         1 UNK         0.0600 
    186 H186       -0.4178  -10.3283  -45.7188 H         1 UNK         0.0600 
    187 H187        0.1884  -10.3162  -44.0736 H         1 UNK         0.0600 
    188 H188        0.4848  -11.7073  -45.1069 H         1 UNK         0.0600 
    189 H189       -2.0284  -13.4303  -45.2239 H         1 UNK         0.3000 
    190 H190       -0.9670  -22.3803  -47.2558 H         1 UNK         0.3000 
    191 H191       -1.5509  -23.5307  -44.6859 H         1 UNK         0.0600 
    192 H192       -0.7582  -24.8826  -47.3225 H         1 UNK         0.0600 
    193 H193       -0.6787  -25.6061  -45.7237 H         1 UNK         0.0600 
    194 H194        0.3645  -24.2511  -46.1180 H         1 UNK         0.0600 
    195 H195       -3.4930  -23.1177  -47.5256 H         1 UNK         0.3000 
    196 H196       -5.7318  -24.5705  -46.3353 H         1 UNK         0.0600 
    197 H197       -6.2574  -25.6744  -48.5329 H         1 UNK         0.0600 
    198 H198       -4.7279  -26.2651  -47.9005 H         1 UNK         0.0600 
    199 H199       -4.7422  -25.0842  -49.2070 H         1 UNK         0.0600 
    200 H200       -7.6520  -23.5316  -46.8466 H         1 UNK         0.3000 
    201 H201       -7.5340  -20.7866  -47.4378 H         1 UNK         0.0600 
    202 H202       -9.2296  -21.8215  -45.9540 H         1 UNK         0.0600 
    203 H203       -9.9425  -22.6812  -47.3202 H         1 UNK         0.0600 
    204 H204      -10.0244  -20.9256  -47.2372 H         1 UNK         0.0600 
    205 H205       -7.8438  -23.4291  -49.6438 H         1 UNK         0.3000 
    206 H206       -9.0553  -21.9994  -51.8536 H         1 UNK         0.0600 
    207 H207       -9.2259  -24.4641  -51.6251 H         1 UNK         0.0600 
    208 H208       -8.4133  -24.0471  -53.1226 H         1 UNK         0.0600 
    209 H209       -7.4759  -24.6185  -51.7489 H         1 UNK         0.0600 
    210 H210       -5.9613  -21.7748  -50.4458 H         1 UNK         0.3000 
    211 H211       -4.0903  -20.7241  -50.9451 H         1 UNK         0.0600 
    212 H212       -5.6516  -19.3468  -53.2093 H         1 UNK         0.0600 
    213 H213       -4.1742  -18.7622  -52.4473 H         1 UNK         0.0600 
    214 H214       -5.6624  -18.8470  -51.5268 H         1 UNK         0.0600 
    215 H215       -3.7826  -20.0015  -54.0797 H         1 UNK         0.3000 
    216 H216       -1.7243  -21.7791  -54.5853 H         1 UNK         0.0600 
    217 H217       -1.7891  -20.8155  -56.8927 H         1 UNK         0.0600 
    218 H218       -3.3694  -20.1163  -56.5578 H         1 UNK         0.0600 
    219 H219       -1.9485  -19.5729  -55.6635 H         1 UNK         0.0600 
    220 H220       -5.1133  -22.3980  -55.0507 H         1 UNK         0.3000 
    221 H221       -4.8606  -24.4591  -57.0689 H         1 UNK         0.0600 
    222 H222       -7.1457  -23.7854  -55.1458 H         1 UNK         0.0600 
    223 H223       -6.9421  -23.1294  -56.7690 H         1 UNK         0.0600 
    224 H224       -7.2593  -24.8426  -56.5458 H         1 UNK         0.0600 
    225 H225       -4.2631  -24.4367  -53.6294 H         1 UNK         0.3000 
    226 H226       -4.1877  -27.4307  -53.6011 H         1 UNK         0.0600 
    227 H227       -6.3182  -26.7407  -52.5304 H         1 UNK         0.0600 
    228 H228       -5.2095  -27.4004  -51.3372 H         1 UNK         0.0600 
    229 H229       -5.4414  -25.6606  -51.4450 H         1 UNK         0.0600 
    230 H230       -3.1786  -24.3997  -51.9177 H         1 UNK         0.3000 
    231 H231       -1.0529  -25.8289  -50.4658 H         1 UNK         0.0600 
    232 H232       -0.7878  -23.6311  -49.3554 H         1 UNK         0.0600 
    233 H233       -2.4711  -24.1295  -49.3261 H         1 UNK         0.0600 
    234 H234       -1.9373  -22.8900  -50.4592 H         1 UNK         0.0600 
    235 H235       -1.4093  -24.1456  -53.4155 H         1 UNK         0.3000 
    236 H236       -0.1037  -23.4474  -55.0627 H         1 UNK         0.0600 
    237 H237        2.1315  -24.3740  -55.3899 H         1 UNK         0.0600 
    238 H238        1.0804  -25.6307  -54.7605 H         1 UNK         0.0600 
    239 H239        2.2512  -24.8428  -53.7025 H         1 UNK         0.0600 
    240 H240        0.1211  -22.1270  -52.0969 H         1 UNK         0.3000 
    241 H241        0.9010  -20.3132  -51.1442 H         1 UNK         0.0600 
    242 H242        2.8232  -22.5340  -51.5021 H         1 UNK         0.3800 
    243 H243        4.3806  -21.7758  -51.2846 H         1 UNK         0.3800 
    244 H244        1.1969  -19.2627  -53.9901 H         1 UNK         0.0800 
    245 H245        1.5364  -18.2709  -52.6037 H         1 UNK         0.0800 
    246 H246       -0.2630  -16.6128  -51.7991 H         1 UNK         0.0800 
    247 H247       -0.0547  -17.8909  -50.6257 H         1 UNK         0.0800 
@<TRIPOS>BOND
     1    1    2 1    
     2    1  127 1    
     3    1  128 1    
     4    1  129 1    
     5    2    3 2    
     6    2    4 am   BACKBONE|DICT|INTERRES
     7    4    5 1    
     8    4  130 1    
     9    5    6 1    
    10    5   65 1    
    11    5  131 1    
    12    6    7 1    
    13    6  132 1    
    14    6  133 1    
    15    7    8 1    
    16    8    9 1    
    17    8  134 1    
    18    8  135 1    
    19    9   10 ar   
    20    9   14 ar   
    21   10   11 ar   
    22   10  136 1    
    23   11   12 ar   
    24   11  126 1    
    25   12   13 ar   
    26   12  137 1    
    27   13   14 ar   
    28   13   15 1    
    29   14  138 1    
    30   15   16 1    
    31   15  139 1    
    32   15  140 1    
    33   16   17 1    
    34   17   18 1    
    35   17  141 1    
    36   17  142 1    
    37   18   19 1    
    38   18   67 1    
    39   18  143 1    
    40   19   20 am   BACKBONE|DICT|INTERRES
    41   19  144 1    
    42   20   21 2    
    43   20   22 1    
    44   22   23 1    
    45   22   24 1    
    46   22  145 1    
    47   23  146 1    
    48   23  147 1    
    49   23  148 1    
    50   24   25 am   BACKBONE|DICT|INTERRES
    51   24  149 1    
    52   25   26 2    
    53   25   27 1    
    54   27   28 1    
    55   27   29 1    
    56   27  150 1    
    57   28  151 1    
    58   28  152 1    
    59   28  153 1    
    60   29   30 am   BACKBONE|DICT|INTERRES
    61   29  154 1    
    62   30   31 2    
    63   30   32 1    
    64   32   33 1    
    65   32   34 1    
    66   32  155 1    
    67   33  156 1    
    68   33  157 1    
    69   33  158 1    
    70   34   35 am   BACKBONE|DICT|INTERRES
    71   34  159 1    
    72   35   36 2    
    73   35   37 1    
    74   37   38 1    
    75   37   39 1    
    76   37  160 1    
    77   38  161 1    
    78   38  162 1    
    79   38  163 1    
    80   39   40 am   BACKBONE|DICT|INTERRES
    81   39  164 1    
    82   40   41 2    
    83   40   42 1    
    84   42   43 1    
    85   42   44 1    
    86   42  165 1    
    87   43  166 1    
    88   43  167 1    
    89   43  168 1    
    90   44   45 am   BACKBONE|DICT|INTERRES
    91   44  169 1    
    92   45   46 2    
    93   45   47 1    
    94   47   48 1    
    95   47   49 1    
    96   47  170 1    
    97   48  171 1    
    98   48  172 1    
    99   48  173 1    
   100   49   50 am   BACKBONE|DICT|INTERRES
   101   49  174 1    
   102   50   51 2    
   103   50   52 1    
   104   52   53 1    
   105   52   54 1    
   106   52  175 1    
   107   53  176 1    
   108   53  177 1    
   109   53  178 1    
   110   54   55 am   BACKBONE|DICT|INTERRES
   111   54  179 1    
   112   55   56 2    
   113   55   57 1    
   114   57   58 1    
   115   57   59 1    
   116   57  180 1    
   117   58  181 1    
   118   58  182 1    
   119   58  183 1    
   120   59   60 am   BACKBONE|DICT|INTERRES
   121   59  184 1    
   122   60   61 2    
   123   60   62 1    
   124   62   63 1    
   125   62   64 1    
   126   62  185 1    
   127   63  186 1    
   128   63  187 1    
   129   63  188 1    
   130   64   65 am   BACKBONE|DICT|INTERRES
   131   64  189 1    
   132   65   66 2    
   133   67   68 2    
   134   67   69 am   BACKBONE|DICT|INTERRES
   135   69   70 1    
   136   69  190 1    
   137   70   71 1    
   138   70   72 1    
   139   70  191 1    
   140   71  192 1    
   141   71  193 1    
   142   71  194 1    
   143   72   73 2    
   144   72   74 am   BACKBONE|DICT|INTERRES
   145   74   75 1    
   146   74  195 1    
   147   75   76 1    
   148   75   77 1    
   149   75  196 1    
   150   76  197 1    
   151   76  198 1    
   152   76  199 1    
   153   77   78 2    
   154   77   79 am   BACKBONE|DICT|INTERRES
   155   79   80 1    
   156   79  200 1    
   157   80   81 1    
   158   80   82 1    
   159   80  201 1    
   160   81  202 1    
   161   81  203 1    
   162   81  204 1    
   163   82   83 2    
   164   82   84 am   BACKBONE|DICT|INTERRES
   165   84   85 1    
   166   84  205 1    
   167   85   86 1    
   168   85   87 1    
   169   85  206 1    
   170   86  207 1    
   171   86  208 1    
   172   86  209 1    
   173   87   88 2    
   174   87   89 am   BACKBONE|DICT|INTERRES
   175   89   90 1    
   176   89  210 1    
   177   90   91 1    
   178   90   92 1    
   179   90  211 1    
   180   91  212 1    
   181   91  213 1    
   182   91  214 1    
   183   92   93 2    
   184   92   94 am   BACKBONE|DICT|INTERRES
   185   94   95 1    
   186   94  215 1    
   187   95   96 1    
   188   95   97 1    
   189   95  216 1    
   190   96  217 1    
   191   96  218 1    
   192   96  219 1    
   193   97   98 2    
   194   97   99 am   BACKBONE|DICT|INTERRES
   195   99  100 1    
   196   99  220 1    
   197  100  101 1    
   198  100  102 1    
   199  100  221 1    
   200  101  222 1    
   201  101  223 1    
   202  101  224 1    
   203  102  103 2    
   204  102  104 am   BACKBONE|DICT|INTERRES
   205  104  105 1    
   206  104  225 1    
   207  105  106 1    
   208  105  107 1    
   209  105  226 1    
   210  106  227 1    
   211  106  228 1    
   212  106  229 1    
   213  107  108 2    
   214  107  109 am   BACKBONE|DICT|INTERRES
   215  109  110 1    
   216  109  230 1    
   217  110  111 1    
   218  110  112 1    
   219  110  231 1    
   220  111  232 1    
   221  111  233 1    
   222  111  234 1    
   223  112  113 2    
   224  112  114 am   BACKBONE|DICT|INTERRES
   225  114  115 1    
   226  114  235 1    
   227  115  116 1    
   228  115  117 1    
   229  115  236 1    
   230  116  237 1    
   231  116  238 1    
   232  116  239 1    
   233  117  118 2    
   234  117  119 am   BACKBONE|DICT|INTERRES
   235  119  120 1    
   236  119  240 1    
   237  120  121 1    
   238  120  124 1    
   239  120  241 1    
   240  121  122 am   BACKBONE|DICT|INTERRES
   241  121  123 2    
   242  122  242 1    
   243  122  243 1    
   244  124  125 1    
   245  124  244 1    
   246  124  245 1    
   247  125  126 1    
   248  126  246 1    
   249  126  247 1    
@<TRIPOS>SUBSTRUCTURE
     1 UNK         1 GROUP             0       ****    0 ROOT    
