@<TRIPOS>MOLECULE
3R540
247   249    1
SMALL
USER_CHARGES


@<TRIPOS>ATOM
      1 CA          1.4956  -13.0365  -46.5738 C.3       0 UNK        -0.1800 
      2 C           2.9801  -13.3042  -46.3880 C.2       0 UNK         0.5000 
      3 O           3.7050  -12.4564  -45.8674 O.2       0 UNK        -0.5000 
      4 N           3.4360  -14.4884  -46.8100 N.am      1 UNK        -0.5000 
      5 CA          4.8470  -14.8916  -46.9075 C.3       1 UNK         0.1400 
      6 C6          5.0439  -15.9691  -48.0081 C.3       23 UNK        -0.0398 
      7 S7          4.5863  -15.3196  -49.6520 S.3       23 UNK        -0.2404 
      8 C8          4.8514  -16.7670  -50.7256 C.3       23 UNK        -0.0205 
      9 C9          3.6782  -17.7385  -50.7116 C.ar      23 UNK        -0.0193 
     10 C10         2.3991  -17.3046  -51.0766 C.ar      23 UNK        -0.1150 
     11 C11         1.3257  -18.1984  -51.1038 C.ar      23 UNK        -0.0193 
     12 C12         1.5371  -19.5376  -50.7671 C.ar      23 UNK        -0.1150 
     13 C13         2.8125  -19.9889  -50.4156 C.ar      23 UNK        -0.0193 
     14 C14         3.8784  -19.0838  -50.3857 C.ar      23 UNK        -0.1150 
     15 C15         3.0367  -21.4598  -50.0901 C.3       23 UNK        -0.0205 
     16 S16         3.4984  -21.7422  -48.3499 S.3       23 UNK        -0.2404 
     17 C17         2.0961  -21.0009  -47.4486 C.3       23 UNK        -0.0398 
     18 CA          1.0451  -22.0217  -46.9569 C.3       11 UNK         0.1400 
     19 N           0.1827  -21.4314  -45.9318 N.am      11 UNK        -0.5000 
     20 C          -0.7009  -22.1085  -45.1873 C.2       10 UNK         0.5000 
     21 O          -0.8587  -23.3278  -45.2531 O.2       10 UNK        -0.5000 
     22 CA         -1.5832  -21.2770  -44.2392 C.3       10 UNK         0.1400 
     23 CB         -0.8049  -20.8897  -42.9732 C.3       10 UNK        -0.1800 
     24 N          -2.1220  -20.0736  -44.8776 N.am      10 UNK        -0.5000 
     25 C          -2.9807  -20.0867  -45.9079 C.2       9 UNK         0.5000 
     26 O          -3.4310  -21.1180  -46.4048 O.2       9 UNK        -0.5000 
     27 CA         -3.3777  -18.7277  -46.5134 C.3       9 UNK         0.1400 
     28 CB         -4.4528  -18.0404  -45.6587 C.3       9 UNK        -0.1800 
     29 N          -2.2425  -17.8240  -46.6894 N.am      9 UNK        -0.5000 
     30 C          -1.1781  -18.0772  -47.4645 C.2       8 UNK         0.5000 
     31 O          -1.0261  -19.1076  -48.1167 O.2       8 UNK        -0.5000 
     32 CA         -0.0479  -17.0376  -47.4355 C.3       8 UNK         0.1400 
     33 CB         -0.4236  -15.7738  -48.2244 C.3       8 UNK        -0.1800 
     34 N           0.3193  -16.6852  -46.0645 N.am      8 UNK        -0.5000 
     35 C           0.8359  -17.5497  -45.1796 C.2       7 UNK         0.5000 
     36 O           1.1190  -18.7168  -45.4419 O.2       7 UNK        -0.5000 
     37 CA          1.0326  -17.0360  -43.7477 C.3       7 UNK         0.1400 
     38 CB          2.3901  -16.3457  -43.6148 C.3       7 UNK        -0.1800 
     39 N          -0.0355  -16.1303  -43.3239 N.am      7 UNK        -0.5000 
     40 C          -1.2810  -16.5509  -43.0598 C.2       6 UNK         0.5000 
     41 O          -1.6458  -17.7210  -43.1763 O.2       6 UNK        -0.5000 
     42 CA         -2.2992  -15.4881  -42.6212 C.3       6 UNK         0.1400 
     43 CB         -2.0733  -15.0973  -41.1527 C.3       6 UNK        -0.1800 
     44 N          -2.2824  -14.2819  -43.4442 N.am      6 UNK        -0.5000 
     45 C          -2.4800  -14.2143  -44.7651 C.2       5 UNK         0.5000 
     46 O          -2.6251  -15.2024  -45.4849 O.2       5 UNK        -0.5000 
     47 CA         -2.5136  -12.8086  -45.3983 C.3       5 UNK         0.1400 
     48 CB         -3.9028  -12.1646  -45.2356 C.3       5 UNK        -0.1800 
     49 N          -1.4465  -11.9028  -44.9487 N.am      5 UNK        -0.5000 
     50 C          -1.2138  -11.3971  -43.7287 C.2       4 UNK         0.5000 
     51 O          -1.9249  -11.5948  -42.7410 O.2       4 UNK        -0.5000 
     52 CA          0.0655  -10.5526  -43.5856 C.3       4 UNK         0.1400 
     53 CB         -0.2712   -9.1309  -43.1084 C.3       4 UNK        -0.1800 
     54 N           1.0569  -11.1386  -42.6784 N.am      4 UNK        -0.5000 
     55 C           1.5213  -12.3960  -42.6942 C.2       3 UNK         0.5000 
     56 O           1.1006  -13.2979  -43.4254 O.2       3 UNK        -0.5000 
     57 CA          2.6705  -12.7051  -41.7293 C.3       3 UNK         0.1400 
     58 CB          2.1630  -13.4750  -40.4987 C.3       3 UNK        -0.1800 
     59 N           3.6464  -13.5109  -42.4525 N.am      3 UNK        -0.5000 
     60 C           4.9681  -13.5289  -42.2460 C.2       2 UNK         0.5000 
     61 O           5.5352  -12.8568  -41.3840 O.2       2 UNK        -0.5000 
     62 CA          5.7986  -14.4434  -43.1638 C.3       2 UNK         0.1400 
     63 CB          5.9263  -15.8379  -42.5121 C.3       2 UNK        -0.1800 
     64 N           5.2168  -14.4654  -44.5145 N.am      2 UNK        -0.5000 
     65 C           5.4798  -15.2801  -45.5459 C.2       1 UNK         0.5000 
     66 O           6.2015  -16.2748  -45.4716 O.2       1 UNK        -0.5000 
     67 C           0.2171  -22.6159  -48.1157 C.2       11 UNK         0.5000 
     68 O           0.4817  -23.7408  -48.5380 O.2       11 UNK        -0.5000 
     69 N          -0.8024  -21.8777  -48.5741 N.am      12 UNK        -0.5000 
     70 CA         -1.7550  -22.3110  -49.5932 C.3       12 UNK         0.1400 
     71 CB         -2.6669  -21.1374  -49.9607 C.3       12 UNK        -0.1800 
     72 C          -2.5816  -23.5319  -49.1576 C.2       12 UNK         0.5000 
     73 O          -2.7611  -24.4511  -49.9545 O.2       12 UNK        -0.5000 
     74 N          -3.0345  -23.5488  -47.8966 N.am      13 UNK        -0.5000 
     75 CA         -3.7297  -24.6821  -47.2869 C.3       13 UNK         0.1400 
     76 CB         -4.2949  -24.2777  -45.9180 C.3       13 UNK        -0.1800 
     77 C          -2.8411  -25.9334  -47.1769 C.2       13 UNK         0.5000 
     78 O          -3.3003  -27.0260  -47.5095 O.2       13 UNK        -0.5000 
     79 N          -1.5754  -25.7510  -46.7731 N.am      14 UNK        -0.5000 
     80 CA         -0.5595  -26.8071  -46.7235 C.3       14 UNK         0.1400 
     81 CB          0.6990  -26.2774  -46.0196 C.3       14 UNK        -0.1800 
     82 C          -0.2141  -27.3761  -48.1149 C.2       14 UNK         0.5000 
     83 O          -0.0005  -28.5818  -48.2441 O.2       14 UNK        -0.5000 
     84 N          -0.2075  -26.5065  -49.1337 N.am      15 UNK        -0.5000 
     85 CA         -0.0260  -26.8525  -50.5452 C.3       15 UNK         0.1400 
     86 CB          0.4094  -25.5898  -51.3074 C.3       15 UNK        -0.1800 
     87 C          -1.2784  -27.4742  -51.2022 C.2       15 UNK         0.5000 
     88 O          -1.1844  -27.9316  -52.3420 O.2       15 UNK        -0.5000 
     89 N          -2.4179  -27.4705  -50.4925 N.am      16 UNK        -0.5000 
     90 CA         -3.7469  -27.9167  -50.9254 C.3       16 UNK         0.1400 
     91 CB         -3.7632  -29.4357  -51.1959 C.3       16 UNK        -0.1800 
     92 C          -4.3071  -27.0787  -52.0958 C.2       16 UNK         0.5000 
     93 O          -4.9449  -27.6183  -53.0018 O.2       16 UNK        -0.5000 
     94 N          -4.0616  -25.7654  -52.0435 N.am      17 UNK        -0.5000 
     95 CA         -4.4745  -24.7651  -53.0236 C.3       17 UNK         0.1400 
     96 CB         -3.2620  -24.3910  -53.8964 C.3       17 UNK        -0.1800 
     97 C          -5.0783  -23.5545  -52.2895 C.2       17 UNK         0.5000 
     98 O          -4.7478  -22.4118  -52.6002 O.2       17 UNK        -0.5000 
     99 N          -5.9392  -23.8300  -51.2986 N.am      18 UNK        -0.5000 
    100 CA        -6.5298  -22.8463  -50.3840 C.3       18 UNK         0.1400 
    101 CB        -7.2719  -23.5958  -49.2667 C.3       18 UNK        -0.1800 
    102 C         -7.4725  -21.8191  -51.0448 C.2       18 UNK         0.5000 
    103 O         -7.7336  -20.7755  -50.4435 O.2       18 UNK        -0.5000 
    104 N         -7.9740  -22.1243  -52.2510 N.am      19 UNK        -0.5000 
    105 CA        -8.8315  -21.2587  -53.0638 C.3       19 UNK         0.1400 
    106 CB        -9.1636  -21.9739  -54.3818 C.3       19 UNK        -0.1800 
    107 C         -8.1701  -19.8953  -53.3367 C.2       19 UNK         0.5000 
    108 O         -7.0251  -19.8552  -53.7905 O.2       19 UNK        -0.5000 
    109 N         -8.8731  -18.8072  -52.9932 N.am      20 UNK        -0.5000 
    110 CA        -8.4149  -17.4100  -53.0583 C.3       20 UNK         0.1400 
    111 CB        -8.2478  -16.9673  -54.5271 C.3       20 UNK        -0.1800 
    112 C         -7.1515  -17.1140  -52.2123 C.2       20 UNK         0.5000 
    113 O         -6.4893  -16.1013  -52.4426 O.2       20 UNK        -0.5000 
    114 N         -6.8379  -18.0058  -51.2592 N.am      21 UNK        -0.5000 
    115 CA        -5.6727  -18.0117  -50.3726 C.3       21 UNK         0.1400 
    116 CB        -5.7068  -16.8047  -49.4105 C.3       21 UNK        -0.1800 
    117 C         -4.3125  -18.1598  -51.0900 C.2       21 UNK         0.5000 
    118 O         -3.2937  -17.8691  -50.4653 O.2       21 UNK        -0.5000 
    119 N         -4.2954  -18.6196  -52.3524 N.am      22 UNK        -0.5000 
    120 CA        -3.0707  -18.8998  -53.1286 C.3       22 UNK         0.1400 
    121 C         -3.2896  -19.6968  -54.4520 C.2       22 UNK         0.5000 
    122 N         -4.4969  -20.0735  -54.8499 N.am      22 UNK        -0.7600 
    123 O         -2.3283  -19.9972  -55.1541 O.2       22 UNK        -0.5000 
    124 C124       -2.1744  -17.6397  -53.3549 C.3       23 UNK        -0.0398 
    125 S125       -0.3901  -18.0249  -53.2612 S.3       23 UNK        -0.2404 
    126 C126       -0.0626  -17.7251  -51.4983 C.3       23 UNK        -0.0205 
    127 H127        1.2414  -13.0220  -47.6333 H         1 UNK         0.0600 
    128 H128        1.2331  -12.0683  -46.1520 H         1 UNK         0.0600 
    129 H129        0.8978  -13.8001  -46.0779 H         1 UNK         0.0600 
    130 H130        2.7827  -15.1440  -47.2123 H         1 UNK         0.3000 
    131 H131        5.4117  -14.0139  -47.2303 H         1 UNK         0.0600 
    132 H132        6.0865  -16.2874  -48.0612 H         1 UNK         0.0800 
    133 H133        4.4538  -16.8612  -47.7906 H         1 UNK         0.0800 
    134 H134        4.9935  -16.4170  -51.7488 H         1 UNK         0.0800 
    135 H135        5.7804  -17.2642  -50.4422 H         1 UNK         0.0800 
    136 H136        2.2416  -16.2694  -51.3454 H         1 UNK         0.1150 
    137 H137        0.7059  -20.2288  -50.7894 H         1 UNK         0.1150 
    138 H138        4.8654  -19.4339  -50.1174 H         1 UNK         0.1150 
    139 H139        2.1494  -22.0494  -50.3252 H         1 UNK         0.0800 
    140 H140        3.8319  -21.8456  -50.7294 H         1 UNK         0.0800 
    141 H141        1.6280  -20.2010  -48.0224 H         1 UNK         0.0800 
    142 H142        2.5447  -20.5099  -46.5849 H         1 UNK         0.0800 
    143 H143        1.5770  -22.8483  -46.4809 H         1 UNK         0.0600 
    144 H144        0.2720  -20.4279  -45.7984 H         1 UNK         0.3000 
    145 H145       -2.4271  -21.9018  -43.9395 H         1 UNK         0.0600 
    146 H146       -1.4486  -20.3799  -42.2563 H         1 UNK         0.0600 
    147 H147       -0.4009  -21.7729  -42.4768 H         1 UNK         0.0600 
    148 H148        0.0313  -20.2282  -43.2012 H         1 UNK         0.0600 
    149 H149       -1.8338  -19.1817  -44.4862 H         1 UNK         0.3000 
    150 H150       -3.7994  -18.9175  -47.5025 H         1 UNK         0.0600 
    151 H151       -5.3236  -18.6850  -45.5330 H         1 UNK         0.0600 
    152 H152       -4.7956  -17.1162  -46.1241 H         1 UNK         0.0600 
    153 H153       -4.0786  -17.7926  -44.6647 H         1 UNK         0.0600 
    154 H154       -2.2864  -16.9397  -46.1894 H         1 UNK         0.3000 
    155 H155        0.8220  -17.4894  -47.9183 H         1 UNK         0.0600 
    156 H156        0.4587  -15.1743  -48.4448 H         1 UNK         0.0600 
    157 H157       -0.8867  -16.0292  -49.1772 H         1 UNK         0.0600 
    158 H158       -1.1326  -15.1481  -47.6836 H         1 UNK         0.0600 
    159 H159        0.0415  -15.7741  -45.7333 H         1 UNK         0.3000 
    160 H160        1.0329  -17.9019  -43.0820 H         1 UNK         0.0600 
    161 H161        2.4442  -15.4508  -44.2323 H         1 UNK         0.0600 
    162 H162        3.1941  -17.0110  -43.9320 H         1 UNK         0.0600 
    163 H163        2.5814  -16.0683  -42.5788 H         1 UNK         0.0600 
    164 H164        0.1905  -15.1438  -43.2449 H         1 UNK         0.3000 
    165 H165       -3.2939  -15.9294  -42.7094 H         1 UNK         0.0600 
    166 H166       -2.8545  -14.4235  -40.8004 H         1 UNK         0.0600 
    167 H167       -2.0859  -15.9759  -40.5065 H         1 UNK         0.0600 
    168 H168       -1.1136  -14.5976  -41.0125 H         1 UNK         0.0600 
    169 H169       -2.1566  -13.3974  -42.9577 H         1 UNK         0.3000 
    170 H170       -2.3454  -12.9502  -46.4672 H         1 UNK         0.0600 
    171 H171       -4.6784  -12.8028  -45.6612 H         1 UNK         0.0600 
    172 H172       -4.1576  -11.9991  -44.1885 H         1 UNK         0.0600 
    173 H173       -3.9544  -11.2045  -45.7490 H         1 UNK         0.0600 
    174 H174       -0.7721  -11.6822  -45.6666 H         1 UNK         0.3000 
    175 H175        0.5403  -10.4661  -44.5640 H         1 UNK         0.0600 
    176 H176       -0.6917   -9.1334  -42.1018 H         1 UNK         0.0600 
    177 H177        0.6146   -8.4954  -43.1007 H         1 UNK         0.0600 
    178 H178       -1.0015   -8.6598  -43.7677 H         1 UNK         0.0600 
    179 H179        1.4568  -10.4970  -42.0097 H         1 UNK         0.3000 
    180 H180        3.1321  -11.7684  -41.4093 H         1 UNK         0.0600 
    181 H181        1.6933  -14.4186  -40.7797 H         1 UNK         0.0600 
    182 H182        1.4236  -12.8902  -39.9503 H         1 UNK         0.0600 
    183 H183        2.9776  -13.6991  -39.8099 H         1 UNK         0.0600 
    184 H184        3.2504  -14.0708  -43.1948 H         1 UNK         0.3000 
    185 H185        6.7950  -14.0059  -43.2449 H         1 UNK         0.0600 
    186 H186        6.2059  -15.7537  -41.4610 H         1 UNK         0.0600 
    187 H187        4.9951  -16.3986  -42.5537 H         1 UNK         0.0600 
    188 H188        6.7028  -16.4362  -42.9871 H         1 UNK         0.0600 
    189 H189        4.6520  -13.6493  -44.7419 H         1 UNK         0.3000 
    190 H190       -0.9346  -20.9350  -48.2115 H         1 UNK         0.3000 
    191 H191       -1.1866  -22.5908  -50.4822 H         1 UNK         0.0600 
    192 H192       -3.2646  -20.8032  -49.1131 H         1 UNK         0.0600 
    193 H193       -3.3527  -21.4040  -50.7611 H         1 UNK         0.0600 
    194 H194       -2.0787  -20.2894  -50.3074 H         1 UNK         0.0600 
    195 H195       -2.9057  -22.7255  -47.3144 H         1 UNK         0.3000 
    196 H196       -4.5684  -24.9409  -47.9342 H         1 UNK         0.0600 
    197 H197       -4.8274  -25.1086  -45.4538 H         1 UNK         0.0600 
    198 H198       -5.0003  -23.4520  -46.0134 H         1 UNK         0.0600 
    199 H199       -3.5075  -23.9664  -45.2315 H         1 UNK         0.0600 
    200 H200       -1.2854  -24.8241  -46.4744 H         1 UNK         0.3000 
    201 H201       -0.9623  -27.6259  -46.1239 H         1 UNK         0.0600 
    202 H202        0.4710  -25.9348  -45.0101 H         1 UNK         0.0600 
    203 H203        1.1448  -25.4437  -46.5619 H         1 UNK         0.0600 
    204 H204        1.4568  -27.0573  -45.9359 H         1 UNK         0.0600 
    205 H205       -0.3120  -25.5182  -48.9238 H         1 UNK         0.3000 
    206 H206        0.7779  -27.5876  -50.6194 H         1 UNK         0.0600 
    207 H207        1.3181  -25.1641  -50.8811 H         1 UNK         0.0600 
    208 H208        0.6164  -25.8138  -52.3545 H         1 UNK         0.0600 
    209 H209       -0.3632  -24.8212  -51.2839 H         1 UNK         0.0600 
    210 H210       -2.3866  -27.0572  -49.5692 H         1 UNK         0.3000 
    211 H211       -4.4124  -27.7310  -50.0812 H         1 UNK         0.0600 
    212 H212       -3.1719  -29.7002  -52.0729 H         1 UNK         0.0600 
    213 H213       -4.7799  -29.7897  -51.3702 H         1 UNK         0.0600 
    214 H214       -3.3689  -29.9909  -50.3448 H         1 UNK         0.0600 
    215 H215       -3.5434  -25.3946  -51.2459 H         1 UNK         0.3000 
    216 H216       -5.2586  -25.1641  -53.6699 H         1 UNK         0.0600 
    217 H217       -2.4586  -23.9588  -53.2982 H         1 UNK         0.0600 
    218 H218       -3.5358  -23.6611  -54.6594 H         1 UNK         0.0600 
    219 H219       -2.8626  -25.2655  -54.4102 H         1 UNK         0.0600 
    220 H220       -6.1529  -24.7990  -51.1139 H         1 UNK         0.3000 
    221 H221       -5.7099  -22.2848  -49.9312 H         1 UNK         0.0600 
    222 H222       -6.6117  -24.2811  -48.7381 H         1 UNK         0.0600 
    223 H223       -8.1090  -24.1742  -49.6595 H         1 UNK         0.0600 
    224 H224       -7.6719  -22.9002  -48.5275 H         1 UNK         0.0600 
    225 H225       -7.6802  -22.9910  -52.6744 H         1 UNK         0.3000 
    226 H226       -9.7605  -21.1013  -52.5123 H         1 UNK         0.0600 
    227 H227       -9.6806  -22.9165  -54.2013 H         1 UNK         0.0600 
    228 H228       -9.8152  -21.3603  -55.0053 H         1 UNK         0.0600 
    229 H229       -8.2637  -22.1889  -54.9599 H         1 UNK         0.0600 
    230 H230       -9.7943  -18.9386  -52.5982 H         1 UNK         0.3000 
    231 H231       -9.2133  -16.8085  -52.6217 H         1 UNK         0.0600 
    232 H232       -7.4120  -17.4738  -55.0109 H         1 UNK         0.0600 
    233 H233       -8.0622  -15.8949  -54.5957 H         1 UNK         0.0600 
    234 H234       -9.1470  -17.1757  -55.1067 H         1 UNK         0.0600 
    235 H235       -7.4352  -18.8201  -51.1620 H         1 UNK         0.3000 
    236 H236       -5.7730  -18.9102  -49.7624 H         1 UNK         0.0600 
    237 H237       -4.9250  -16.8809  -48.6542 H         1 UNK         0.0600 
    238 H238       -5.5550  -15.8624  -49.9370 H         1 UNK         0.0600 
    239 H239       -6.6590  -16.7469  -48.8835 H         1 UNK         0.0600 
    240 H240       -5.1715  -18.8541  -52.7986 H         1 UNK         0.3000 
    241 H241       -2.5130  -19.5977  -52.5037 H         1 UNK         0.0600 
    242 H242       -4.5622  -20.5911  -55.7104 H         1 UNK         0.3800 
    243 H243       -5.3505  -19.9360  -54.3128 H         1 UNK         0.3800 
    244 H244       -2.3831  -16.8525  -52.6311 H         1 UNK         0.0800 
    245 H245       -2.3832  -17.1824  -54.3235 H         1 UNK         0.0800 
    246 H246       -0.8023  -18.2458  -50.8904 H         1 UNK         0.0800 
    247 H247       -0.1772  -16.6609  -51.2915 H         1 UNK         0.0800 
@<TRIPOS>BOND
     1    1    2 1    
     2    1  127 1    
     3    1  128 1    
     4    1  129 1    
     5    2    3 2    
     6    2    4 am   BACKBONE|DICT|INTERRES
     7    4    5 1    
     8    4  130 1    
     9    5    6 1    
    10    5   65 1    
    11    5  131 1    
    12    6    7 1    
    13    6  132 1    
    14    6  133 1    
    15    7    8 1    
    16    8    9 1    
    17    8  134 1    
    18    8  135 1    
    19    9   10 ar   
    20    9   14 ar   
    21   10   11 ar   
    22   10  136 1    
    23   11   12 ar   
    24   11  126 1    
    25   12   13 ar   
    26   12  137 1    
    27   13   14 ar   
    28   13   15 1    
    29   14  138 1    
    30   15   16 1    
    31   15  139 1    
    32   15  140 1    
    33   16   17 1    
    34   17   18 1    
    35   17  141 1    
    36   17  142 1    
    37   18   19 1    
    38   18   67 1    
    39   18  143 1    
    40   19   20 am   BACKBONE|DICT|INTERRES
    41   19  144 1    
    42   20   21 2    
    43   20   22 1    
    44   22   23 1    
    45   22   24 1    
    46   22  145 1    
    47   23  146 1    
    48   23  147 1    
    49   23  148 1    
    50   24   25 am   BACKBONE|DICT|INTERRES
    51   24  149 1    
    52   25   26 2    
    53   25   27 1    
    54   27   28 1    
    55   27   29 1    
    56   27  150 1    
    57   28  151 1    
    58   28  152 1    
    59   28  153 1    
    60   29   30 am   BACKBONE|DICT|INTERRES
    61   29  154 1    
    62   30   31 2    
    63   30   32 1    
    64   32   33 1    
    65   32   34 1    
    66   32  155 1    
    67   33  156 1    
    68   33  157 1    
    69   33  158 1    
    70   34   35 am   BACKBONE|DICT|INTERRES
    71   34  159 1    
    72   35   36 2    
    73   35   37 1    
    74   37   38 1    
    75   37   39 1    
    76   37  160 1    
    77   38  161 1    
    78   38  162 1    
    79   38  163 1    
    80   39   40 am   BACKBONE|DICT|INTERRES
    81   39  164 1    
    82   40   41 2    
    83   40   42 1    
    84   42   43 1    
    85   42   44 1    
    86   42  165 1    
    87   43  166 1    
    88   43  167 1    
    89   43  168 1    
    90   44   45 am   BACKBONE|DICT|INTERRES
    91   44  169 1    
    92   45   46 2    
    93   45   47 1    
    94   47   48 1    
    95   47   49 1    
    96   47  170 1    
    97   48  171 1    
    98   48  172 1    
    99   48  173 1    
   100   49   50 am   BACKBONE|DICT|INTERRES
   101   49  174 1    
   102   50   51 2    
   103   50   52 1    
   104   52   53 1    
   105   52   54 1    
   106   52  175 1    
   107   53  176 1    
   108   53  177 1    
   109   53  178 1    
   110   54   55 am   BACKBONE|DICT|INTERRES
   111   54  179 1    
   112   55   56 2    
   113   55   57 1    
   114   57   58 1    
   115   57   59 1    
   116   57  180 1    
   117   58  181 1    
   118   58  182 1    
   119   58  183 1    
   120   59   60 am   BACKBONE|DICT|INTERRES
   121   59  184 1    
   122   60   61 2    
   123   60   62 1    
   124   62   63 1    
   125   62   64 1    
   126   62  185 1    
   127   63  186 1    
   128   63  187 1    
   129   63  188 1    
   130   64   65 am   BACKBONE|DICT|INTERRES
   131   64  189 1    
   132   65   66 2    
   133   67   68 2    
   134   67   69 am   BACKBONE|DICT|INTERRES
   135   69   70 1    
   136   69  190 1    
   137   70   71 1    
   138   70   72 1    
   139   70  191 1    
   140   71  192 1    
   141   71  193 1    
   142   71  194 1    
   143   72   73 2    
   144   72   74 am   BACKBONE|DICT|INTERRES
   145   74   75 1    
   146   74  195 1    
   147   75   76 1    
   148   75   77 1    
   149   75  196 1    
   150   76  197 1    
   151   76  198 1    
   152   76  199 1    
   153   77   78 2    
   154   77   79 am   BACKBONE|DICT|INTERRES
   155   79   80 1    
   156   79  200 1    
   157   80   81 1    
   158   80   82 1    
   159   80  201 1    
   160   81  202 1    
   161   81  203 1    
   162   81  204 1    
   163   82   83 2    
   164   82   84 am   BACKBONE|DICT|INTERRES
   165   84   85 1    
   166   84  205 1    
   167   85   86 1    
   168   85   87 1    
   169   85  206 1    
   170   86  207 1    
   171   86  208 1    
   172   86  209 1    
   173   87   88 2    
   174   87   89 am   BACKBONE|DICT|INTERRES
   175   89   90 1    
   176   89  210 1    
   177   90   91 1    
   178   90   92 1    
   179   90  211 1    
   180   91  212 1    
   181   91  213 1    
   182   91  214 1    
   183   92   93 2    
   184   92   94 am   BACKBONE|DICT|INTERRES
   185   94   95 1    
   186   94  215 1    
   187   95   96 1    
   188   95   97 1    
   189   95  216 1    
   190   96  217 1    
   191   96  218 1    
   192   96  219 1    
   193   97   98 2    
   194   97   99 am   BACKBONE|DICT|INTERRES
   195   99  100 1    
   196   99  220 1    
   197  100  101 1    
   198  100  102 1    
   199  100  221 1    
   200  101  222 1    
   201  101  223 1    
   202  101  224 1    
   203  102  103 2    
   204  102  104 am   BACKBONE|DICT|INTERRES
   205  104  105 1    
   206  104  225 1    
   207  105  106 1    
   208  105  107 1    
   209  105  226 1    
   210  106  227 1    
   211  106  228 1    
   212  106  229 1    
   213  107  108 2    
   214  107  109 am   BACKBONE|DICT|INTERRES
   215  109  110 1    
   216  109  230 1    
   217  110  111 1    
   218  110  112 1    
   219  110  231 1    
   220  111  232 1    
   221  111  233 1    
   222  111  234 1    
   223  112  113 2    
   224  112  114 am   BACKBONE|DICT|INTERRES
   225  114  115 1    
   226  114  235 1    
   227  115  116 1    
   228  115  117 1    
   229  115  236 1    
   230  116  237 1    
   231  116  238 1    
   232  116  239 1    
   233  117  118 2    
   234  117  119 am   BACKBONE|DICT|INTERRES
   235  119  120 1    
   236  119  240 1    
   237  120  121 1    
   238  120  124 1    
   239  120  241 1    
   240  121  122 am   BACKBONE|DICT|INTERRES
   241  121  123 2    
   242  122  242 1    
   243  122  243 1    
   244  124  125 1    
   245  124  244 1    
   246  124  245 1    
   247  125  126 1    
   248  126  246 1    
   249  126  247 1    
@<TRIPOS>SUBSTRUCTURE
     1 UNK         1 GROUP             0       ****    0 ROOT    
