@<TRIPOS>MOLECULE
3R540
247   249    1
SMALL
USER_CHARGES


@<TRIPOS>ATOM
      1 CA         -6.9703  -14.2186  -51.0948 C.3       0 UNK        -0.1800 
      2 C          -5.7184  -14.8521  -50.5055 C.2       0 UNK         0.5000 
      3 O          -4.8851  -15.3732  -51.2444 O.2       0 UNK        -0.5000 
      4 N          -5.5867  -14.8165  -49.1764 N.am      1 UNK        -0.5000 
      5 CA         -4.4235  -15.3323  -48.4507 C.3       1 UNK         0.1400 
      6 C6         -4.7673  -15.6956  -46.9853 C.3       23 UNK        -0.0398 
      7 S7         -6.1454  -16.8816  -46.8225 S.3       23 UNK        -0.2404 
      8 C8         -5.2762  -18.4795  -46.7267 C.3       23 UNK        -0.0205 
      9 C9         -4.8599  -18.9821  -48.1010 C.ar      23 UNK        -0.0193 
     10 C10        -5.8084  -19.5652  -48.9452 C.ar      23 UNK        -0.1150 
     11 C11        -5.4499  -20.0493  -50.2067 C.ar      23 UNK        -0.0193 
     12 C12        -4.1117  -19.9500  -50.6127 C.ar      23 UNK        -0.1150 
     13 C13        -3.1534  -19.3581  -49.7835 C.ar      23 UNK        -0.0193 
     14 C14        -3.5334  -18.8798  -48.5262 C.ar      23 UNK        -0.1150 
     15 C15        -1.7164  -19.2127  -50.2635 C.3       23 UNK        -0.0205 
     16 S16        -0.7294  -20.7139  -49.9794 S.3       23 UNK        -0.2404 
     17 C17        -0.3356  -20.5671  -48.2056 C.3       23 UNK        -0.0398 
     18 CA         -0.2171  -21.9305  -47.4882 C.3       11 UNK         0.1400 
     19 N           0.3935  -21.7810  -46.1659 N.am      11 UNK        -0.5000 
     20 C           0.7890  -22.7935  -45.3831 C.2       10 UNK         0.5000 
     21 O           0.6950  -23.9780  -45.6976 O.2       10 UNK        -0.5000 
     22 CA          1.3419  -22.4256  -43.9964 C.3       10 UNK         0.1400 
     23 CB          2.7842  -21.9089  -44.1035 C.3       10 UNK        -0.1800 
     24 N           0.5094  -21.4439  -43.3010 N.am      10 UNK        -0.5000 
     25 C          -0.7642  -21.6561  -42.9374 C.2       9 UNK         0.5000 
     26 O          -1.3649  -22.7130  -43.1288 O.2       9 UNK        -0.5000 
     27 CA         -1.5092  -20.4780  -42.2885 C.3       9 UNK         0.1400 
     28 CB         -1.1013  -20.3188  -40.8163 C.3       9 UNK        -0.1800 
     29 N          -1.2996  -19.2170  -42.9978 N.am      9 UNK        -0.5000 
     30 C          -1.6602  -18.9870  -44.2685 C.2       8 UNK         0.5000 
     31 O          -2.2296  -19.8084  -44.9869 O.2       8 UNK        -0.5000 
     32 CA         -1.2682  -17.6211  -44.8537 C.3       8 UNK         0.1400 
     33 CB         -2.1591  -16.5070  -44.2861 C.3       8 UNK        -0.1800 
     34 N           0.1372  -17.2964  -44.6170 N.am      8 UNK        -0.5000 
     35 C           1.1754  -18.0284  -45.0460 C.2       7 UNK         0.5000 
     36 O           1.0654  -19.0373  -45.7406 O.2       7 UNK        -0.5000 
     37 CA          2.5696  -17.5852  -44.5787 C.3       7 UNK         0.1400 
     38 CB          3.0951  -16.4337  -45.4483 C.3       7 UNK        -0.1800 
     39 N           2.5697  -17.1919  -43.1694 N.am      7 UNK        -0.5000 
     40 C           2.3845  -18.0434  -42.1496 C.2       6 UNK         0.5000 
     41 O           2.2225  -19.2554  -42.2883 O.2       6 UNK        -0.5000 
     42 CA          2.3269  -17.4284  -40.7403 C.3       6 UNK         0.1400 
     43 CB          3.7412  -17.1619  -40.2038 C.3       6 UNK        -0.1800 
     44 N           1.5503  -16.1892  -40.7056 N.am      6 UNK        -0.5000 
     45 C           0.2305  -16.1187  -40.9286 C.2       5 UNK         0.5000 
     46 O          -0.4794  -17.0988  -41.1517 O.2       5 UNK        -0.5000 
     47 CA         -0.3912  -14.7105  -40.9491 C.3       5 UNK         0.1400 
     48 CB         -0.7854  -14.2744  -39.5303 C.3       5 UNK        -0.1800 
     49 N           0.4818  -13.6951  -41.5457 N.am      5 UNK        -0.5000 
     50 C           0.9102  -13.7096  -42.8145 C.2       4 UNK         0.5000 
     51 O           0.6659  -14.6172  -43.6130 O.2       4 UNK        -0.5000 
     52 CA          1.7895  -12.5318  -43.2581 C.3       4 UNK         0.1400 
     53 CB          3.2486  -12.9771  -43.4406 C.3       4 UNK        -0.1800 
     54 N           1.2840  -11.9961  -44.5182 N.am      4 UNK        -0.5000 
     55 C           0.3189  -11.0723  -44.6091 C.2       3 UNK         0.5000 
     56 O          -0.1732  -10.4982  -43.6364 O.2       3 UNK        -0.5000 
     57 CA         -0.1880  -10.7325  -46.0237 C.3       3 UNK         0.1400 
     58 CB          0.6366   -9.5865  -46.6300 C.3       3 UNK        -0.1800 
     59 N          -0.1752  -11.8734  -46.9440 N.am      3 UNK        -0.5000 
     60 C          -0.9789  -12.9400  -46.8386 C.2       2 UNK         0.5000 
     61 O          -1.7867  -13.1013  -45.9208 O.2       2 UNK        -0.5000 
     62 CA         -0.8416  -14.0043  -47.9480 C.3       2 UNK         0.1400 
     63 CB          0.3332  -14.9477  -47.6453 C.3       2 UNK        -0.1800 
     64 N          -2.0544  -14.8089  -48.1129 N.am      2 UNK        -0.5000 
     65 C          -3.2466  -14.3323  -48.4993 C.2       1 UNK         0.5000 
     66 O          -3.4321  -13.1636  -48.8517 O.2       1 UNK        -0.5000 
     67 C          -1.5653  -22.6784  -47.4199 C.2       11 UNK         0.5000 
     68 O          -1.8002  -23.5718  -48.2350 O.2       11 UNK        -0.5000 
     69 N          -2.4015  -22.3420  -46.4271 N.am      12 UNK        -0.5000 
     70 CA         -3.6700  -23.0170  -46.1575 C.3       12 UNK         0.1400 
     71 CB         -4.4534  -22.2418  -45.0881 C.3       12 UNK        -0.1800 
     72 C          -3.4783  -24.4892  -45.7477 C.2       12 UNK         0.5000 
     73 O          -4.1503  -25.3609  -46.2998 O.2       12 UNK        -0.5000 
     74 N          -2.5384  -24.7477  -44.8261 N.am      13 UNK        -0.5000 
     75 CA         -2.1780  -26.0878  -44.3527 C.3       13 UNK         0.1400 
     76 CB         -1.2115  -25.9705  -43.1647 C.3       13 UNK        -0.1800 
     77 C          -1.5745  -26.9797  -45.4541 C.2       13 UNK         0.5000 
     78 O          -1.8668  -28.1750  -45.4982 O.2       13 UNK        -0.5000 
     79 N          -0.7740  -26.3764  -46.3418 N.am      14 UNK        -0.5000 
     80 CA         -0.1717  -27.0175  -47.5117 C.3       14 UNK         0.1400 
     81 CB          1.0863  -26.2314  -47.9081 C.3       14 UNK        -0.1800 
     82 C          -1.1383  -27.1625  -48.7080 C.2       14 UNK         0.5000 
     83 O          -0.7303  -27.7000  -49.7381 O.2       14 UNK        -0.5000 
     84 N          -2.3881  -26.6995  -48.5542 N.am      15 UNK        -0.5000 
     85 CA         -3.4919  -26.7627  -49.5137 C.3       15 UNK         0.1400 
     86 CB         -3.8975  -28.2255  -49.7945 C.3       15 UNK        -0.1800 
     87 C          -3.2201  -25.9441  -50.7911 C.2       15 UNK         0.5000 
     88 O          -3.3051  -26.4752  -51.9001 O.2       15 UNK        -0.5000 
     89 N          -2.9195  -24.6528  -50.5939 N.am      16 UNK        -0.5000 
     90 CA         -2.6961  -23.6233  -51.6129 C.3       16 UNK         0.1400 
     91 CB         -3.9399  -23.4348  -52.5034 C.3       16 UNK        -0.1800 
     92 C          -1.4064  -23.8650  -52.4171 C.2       16 UNK         0.5000 
     93 O          -1.4195  -23.8400  -53.6505 O.2       16 UNK        -0.5000 
     94 N          -0.3045  -24.1023  -51.6954 N.am      17 UNK        -0.5000 
     95 CA          1.0332  -24.3256  -52.2432 C.3       17 UNK         0.1400 
     96 CB          1.8913  -25.0310  -51.1814 C.3       17 UNK        -0.1800 
     97 C           1.6756  -23.0184  -52.7539 C.2       17 UNK         0.5000 
     98 O           2.6181  -22.5109  -52.1429 O.2       17 UNK        -0.5000 
     99 N           1.1413  -22.5067  -53.8708 N.am      18 UNK        -0.5000 
    100 CA         1.5287  -21.2770  -54.5650 C.3       18 UNK         0.1400 
    101 CB         2.9464  -21.4078  -55.1676 C.3       18 UNK        -0.1800 
    102 C          1.3180  -20.0348  -53.6751 C.2       18 UNK         0.5000 
    103 O          0.1996  -19.8327  -53.1988 O.2       18 UNK        -0.5000 
    104 N          2.3669  -19.2189  -53.4885 N.am      19 UNK        -0.5000 
    105 CA         2.3867  -17.9640  -52.7308 C.3       19 UNK         0.1400 
    106 CB         2.2563  -18.2438  -51.2153 C.3       19 UNK        -0.1800 
    107 C          1.3490  -16.9647  -53.2838 C.2       19 UNK         0.5000 
    108 O          1.5051  -16.5026  -54.4151 O.2       19 UNK        -0.5000 
    109 N          0.3041  -16.6720  -52.4994 N.am      20 UNK        -0.5000 
    110 CA        -0.8229  -15.8217  -52.8867 C.3       20 UNK         0.1400 
    111 CB        -1.5637  -15.3873  -51.6143 C.3       20 UNK        -0.1800 
    112 C         -1.7943  -16.4938  -53.8812 C.2       20 UNK         0.5000 
    113 O         -2.5975  -15.7922  -54.4985 O.2       20 UNK        -0.5000 
    114 N         -1.7204  -17.8298  -54.0103 N.am      21 UNK        -0.5000 
    115 CA        -2.4753  -18.6864  -54.9356 C.3       21 UNK         0.1400 
    116 CB        -1.9755  -18.4693  -56.3782 C.3       21 UNK        -0.1800 
    117 C         -4.0105  -18.5646  -54.8107 C.2       21 UNK         0.5000 
    118 O         -4.7276  -18.7773  -55.7902 O.2       21 UNK        -0.5000 
    119 N         -4.4775  -18.2147  -53.6056 N.am      22 UNK        -0.5000 
    120 CA        -5.8788  -17.9307  -53.2530 C.3       22 UNK         0.1400 
    121 C         -6.4511  -16.6314  -53.9053 C.2       22 UNK         0.5000 
    122 N         -5.6328  -15.7396  -54.4540 N.am      22 UNK        -0.7600 
    123 O         -7.6605  -16.4156  -53.9032 O.2       22 UNK        -0.5000 
    124 C124       -6.8427  -19.1399  -53.4356 C.3       23 UNK        -0.0398 
    125 S125       -6.2015  -20.7497  -52.8603 S.3       23 UNK        -0.2404 
    126 C126       -6.5281  -20.7161  -51.0642 C.3       23 UNK        -0.0205 
    127 H127       -6.7092  -13.5943  -51.9493 H         1 UNK         0.0600 
    128 H128       -7.4900  -13.5966  -50.3658 H         1 UNK         0.0600 
    129 H129       -7.6569  -14.9935  -51.4350 H         1 UNK         0.0600 
    130 H130       -6.2922  -14.3642  -48.6139 H         1 UNK         0.3000 
    131 H131       -4.0899  -16.2404  -48.9543 H         1 UNK         0.0600 
    132 H132       -3.8950  -16.1117  -46.4848 H         1 UNK         0.0800 
    133 H133       -5.0343  -14.7979  -46.4245 H         1 UNK         0.0800 
    134 H134       -4.4170  -18.4055  -46.0590 H         1 UNK         0.0800 
    135 H135       -5.9459  -19.2099  -46.2708 H         1 UNK         0.0800 
    136 H136       -6.8335  -19.6468  -48.6116 H         1 UNK         0.1150 
    137 H137       -3.8049  -20.3337  -51.5746 H         1 UNK         0.1150 
    138 H138       -2.8005  -18.4233  -47.8780 H         1 UNK         0.1150 
    139 H139       -1.7151  -19.0008  -51.3327 H         1 UNK         0.0800 
    140 H140       -1.2333  -18.3599  -49.7847 H         1 UNK         0.0800 
    141 H141       -1.0638  -19.9356  -47.6980 H         1 UNK         0.0800 
    142 H142        0.6151  -20.0363  -48.1445 H         1 UNK         0.0800 
    143 H143        0.4634  -22.5531  -48.0733 H         1 UNK         0.0600 
    144 H144        0.5311  -20.8266  -45.8412 H         1 UNK         0.3000 
    145 H145        1.3537  -23.3360  -43.3936 H         1 UNK         0.0600 
    146 H146        3.2161  -21.7415  -43.1167 H         1 UNK         0.0600 
    147 H147        3.4206  -22.6295  -44.6186 H         1 UNK         0.0600 
    148 H148        2.8364  -20.9699  -44.6550 H         1 UNK         0.0600 
    149 H149        0.9470  -20.5554  -43.0767 H         1 UNK         0.3000 
    150 H150       -2.5772  -20.7029  -42.3227 H         1 UNK         0.0600 
    151 H151       -1.2518  -21.2481  -40.2655 H         1 UNK         0.0600 
    152 H152       -1.6965  -19.5492  -40.3246 H         1 UNK         0.0600 
    153 H153       -0.0511  -20.0423  -40.7168 H         1 UNK         0.0600 
    154 H154       -0.8583  -18.4697  -42.4688 H         1 UNK         0.3000 
    155 H155       -1.4220  -17.6666  -45.9332 H         1 UNK         0.0600 
    156 H156       -3.2158  -16.7552  -44.3863 H         1 UNK         0.0600 
    157 H157       -1.9872  -15.5634  -44.8033 H         1 UNK         0.0600 
    158 H158       -1.9712  -16.3417  -43.2268 H         1 UNK         0.0600 
    159 H159        0.3266  -16.4484  -44.0891 H         1 UNK         0.3000 
    160 H160        3.2479  -18.4333  -44.6937 H         1 UNK         0.0600 
    161 H161        2.4412  -15.5632  -45.4057 H         1 UNK         0.0600 
    162 H162        3.1619  -16.7375  -46.4937 H         1 UNK         0.0600 
    163 H163        4.0922  -16.1239  -45.1353 H         1 UNK         0.0600 
    164 H164        2.6359  -16.2049  -42.9723 H         1 UNK         0.3000 
    165 H165        1.8421  -18.1517  -40.0810 H         1 UNK         0.0600 
    166 H166        3.7108  -16.7992  -39.1762 H         1 UNK         0.0600 
    167 H167        4.3376  -18.0753  -40.2073 H         1 UNK         0.0600 
    168 H168        4.2702  -16.4220  -40.8058 H         1 UNK         0.0600 
    169 H169        2.0560  -15.3339  -40.5290 H         1 UNK         0.3000 
    170 H170       -1.2997  -14.7597  -41.5523 H         1 UNK         0.0600 
    171 H171       -1.4527  -15.0040  -39.0692 H         1 UNK         0.0600 
    172 H172        0.0861  -14.1712  -38.8826 H         1 UNK         0.0600 
    173 H173       -1.3105  -13.3191  -39.5426 H         1 UNK         0.0600 
    174 H174        0.7307  -12.9153  -40.9541 H         1 UNK         0.3000 
    175 H175        1.7676  -11.7545  -42.4911 H         1 UNK         0.0600 
    176 H176        3.3513  -13.7253  -44.2258 H         1 UNK         0.0600 
    177 H177        3.8849  -12.1319  -43.7034 H         1 UNK         0.0600 
    178 H178        3.6453  -13.4079  -42.5205 H         1 UNK         0.0600 
    179 H179        1.5893  -12.4584  -45.3613 H         1 UNK         0.3000 
    180 H180       -1.2210  -10.3912  -45.9273 H         1 UNK         0.0600 
    181 H181        1.6784   -9.8735  -46.7778 H         1 UNK         0.0600 
    182 H182        0.6267   -8.7114  -45.9787 H         1 UNK         0.0600 
    183 H183        0.2327   -9.2762  -47.5939 H         1 UNK         0.0600 
    184 H184        0.4643  -11.8135  -47.7233 H         1 UNK         0.3000 
    185 H185       -0.6479  -13.4923  -48.8927 H         1 UNK         0.0600 
    186 H186        1.2729  -14.3983  -47.5792 H         1 UNK         0.0600 
    187 H187        0.1916  -15.4651  -46.6970 H         1 UNK         0.0600 
    188 H188        0.4528  -15.6995  -48.4258 H         1 UNK         0.0600 
    189 H189       -1.9814  -15.7709  -47.8237 H         1 UNK         0.3000 
    190 H190       -2.1608  -21.5681  -45.8139 H         1 UNK         0.3000 
    191 H191       -4.2552  -23.0017  -47.0795 H         1 UNK         0.0600 
    192 H192       -4.6612  -21.2239  -45.4168 H         1 UNK         0.0600 
    193 H193       -5.4115  -22.7198  -44.8812 H         1 UNK         0.0600 
    194 H194       -3.9039  -22.1821  -44.1483 H         1 UNK         0.0600 
    195 H195       -2.0443  -23.9698  -44.3953 H         1 UNK         0.3000 
    196 H196       -3.0912  -26.5717  -44.0006 H         1 UNK         0.0600 
    197 H197       -0.9351  -26.9549  -42.7850 H         1 UNK         0.0600 
    198 H198       -1.6657  -25.4201  -42.3406 H         1 UNK         0.0600 
    199 H199       -0.2922  -25.4547  -43.4446 H         1 UNK         0.0600 
    200 H200       -0.5276  -25.4017  -46.1914 H         1 UNK         0.3000 
    201 H201        0.1406  -28.0252  -47.2304 H         1 UNK         0.0600 
    202 H202        1.7742  -26.1374  -47.0677 H         1 UNK         0.0600 
    203 H203        0.8363  -25.2268  -48.2509 H         1 UNK         0.0600 
    204 H204        1.6282  -26.7369  -48.7070 H         1 UNK         0.0600 
    205 H205       -2.6115  -26.2454  -47.6774 H         1 UNK         0.3000 
    206 H206       -4.3414  -26.2838  -49.0243 H         1 UNK         0.0600 
    207 H207       -4.1164  -28.7574  -48.8686 H         1 UNK         0.0600 
    208 H208       -4.7950  -28.2676  -50.4126 H         1 UNK         0.0600 
    209 H209       -3.1152  -28.7739  -50.3197 H         1 UNK         0.0600 
    210 H210       -2.7606  -24.3415  -49.6375 H         1 UNK         0.3000 
    211 H211       -2.5516  -22.6907  -51.0683 H         1 UNK         0.0600 
    212 H212       -4.1247  -24.2975  -53.1434 H         1 UNK         0.0600 
    213 H213       -3.8172  -22.5698  -53.1557 H         1 UNK         0.0600 
    214 H214       -4.8314  -23.2679  -51.8999 H         1 UNK         0.0600 
    215 H215       -0.3834  -24.0876  -50.6889 H         1 UNK         0.3000 
    216 H216        0.9510  -25.0028  -53.0961 H         1 UNK         0.0600 
    217 H217        2.8992  -25.2187  -51.5533 H         1 UNK         0.0600 
    218 H218        1.4603  -25.9964  -50.9175 H         1 UNK         0.0600 
    219 H219        1.9811  -24.4350  -50.2725 H         1 UNK         0.0600 
    220 H220        0.2995  -22.9578  -54.2152 H         1 UNK         0.3000 
    221 H221        0.8308  -21.1672  -55.3962 H         1 UNK         0.0600 
    222 H222        3.7159  -21.5034  -54.4008 H         1 UNK         0.0600 
    223 H223        3.0142  -22.2854  -55.8106 H         1 UNK         0.0600 
    224 H224        3.1941  -20.5434  -55.7849 H         1 UNK         0.0600 
    225 H225        3.2351  -19.4636  -53.9424 H         1 UNK         0.3000 
    226 H226        3.3655  -17.5124  -52.8985 H         1 UNK         0.0600 
    227 H227        3.0615  -18.8936  -50.8723 H         1 UNK         0.0600 
    228 H228        2.3206  -17.3221  -50.6357 H         1 UNK         0.0600 
    229 H229        1.3166  -18.7339  -50.9624 H         1 UNK         0.0600 
    230 H230        0.2549  -17.1082  -51.5914 H         1 UNK         0.3000 
    231 H231       -0.4271  -14.9268  -53.3713 H         1 UNK         0.0600 
    232 H232       -2.0341  -16.2308  -51.1081 H         1 UNK         0.0600 
    233 H233       -2.3491  -14.6683  -51.8499 H         1 UNK         0.0600 
    234 H234       -0.8873  -14.9040  -50.9103 H         1 UNK         0.0600 
    235 H235       -1.0103  -18.3240  -53.4769 H         1 UNK         0.3000 
    236 H236       -2.2366  -19.7137  -54.6566 H         1 UNK         0.0600 
    237 H237       -0.8937  -18.5885  -56.4408 H         1 UNK         0.0600 
    238 H238       -2.4201  -19.1926  -57.0627 H         1 UNK         0.0600 
    239 H239       -2.2252  -17.4730  -56.7443 H         1 UNK         0.0600 
    240 H240       -3.8064  -18.0319  -52.8753 H         1 UNK         0.3000 
    241 H241       -5.8553  -17.7154  -52.1848 H         1 UNK         0.0600 
    242 H242       -6.0156  -14.9039  -54.8645 H         1 UNK         0.3800 
    243 H243       -4.6272  -15.8731  -54.4337 H         1 UNK         0.3800 
    244 H244       -7.7912  -18.9451  -52.9329 H         1 UNK         0.0800 
    245 H245       -7.0889  -19.2580  -54.4920 H         1 UNK         0.0800 
    246 H246       -7.4951  -20.2424  -50.8891 H         1 UNK         0.0800 
    247 H247       -6.6287  -21.7471  -50.7234 H         1 UNK         0.0800 
@<TRIPOS>BOND
     1    1    2 1    
     2    1  127 1    
     3    1  128 1    
     4    1  129 1    
     5    2    3 2    
     6    2    4 am   BACKBONE|DICT|INTERRES
     7    4    5 1    
     8    4  130 1    
     9    5    6 1    
    10    5   65 1    
    11    5  131 1    
    12    6    7 1    
    13    6  132 1    
    14    6  133 1    
    15    7    8 1    
    16    8    9 1    
    17    8  134 1    
    18    8  135 1    
    19    9   10 ar   
    20    9   14 ar   
    21   10   11 ar   
    22   10  136 1    
    23   11   12 ar   
    24   11  126 1    
    25   12   13 ar   
    26   12  137 1    
    27   13   14 ar   
    28   13   15 1    
    29   14  138 1    
    30   15   16 1    
    31   15  139 1    
    32   15  140 1    
    33   16   17 1    
    34   17   18 1    
    35   17  141 1    
    36   17  142 1    
    37   18   19 1    
    38   18   67 1    
    39   18  143 1    
    40   19   20 am   BACKBONE|DICT|INTERRES
    41   19  144 1    
    42   20   21 2    
    43   20   22 1    
    44   22   23 1    
    45   22   24 1    
    46   22  145 1    
    47   23  146 1    
    48   23  147 1    
    49   23  148 1    
    50   24   25 am   BACKBONE|DICT|INTERRES
    51   24  149 1    
    52   25   26 2    
    53   25   27 1    
    54   27   28 1    
    55   27   29 1    
    56   27  150 1    
    57   28  151 1    
    58   28  152 1    
    59   28  153 1    
    60   29   30 am   BACKBONE|DICT|INTERRES
    61   29  154 1    
    62   30   31 2    
    63   30   32 1    
    64   32   33 1    
    65   32   34 1    
    66   32  155 1    
    67   33  156 1    
    68   33  157 1    
    69   33  158 1    
    70   34   35 am   BACKBONE|DICT|INTERRES
    71   34  159 1    
    72   35   36 2    
    73   35   37 1    
    74   37   38 1    
    75   37   39 1    
    76   37  160 1    
    77   38  161 1    
    78   38  162 1    
    79   38  163 1    
    80   39   40 am   BACKBONE|DICT|INTERRES
    81   39  164 1    
    82   40   41 2    
    83   40   42 1    
    84   42   43 1    
    85   42   44 1    
    86   42  165 1    
    87   43  166 1    
    88   43  167 1    
    89   43  168 1    
    90   44   45 am   BACKBONE|DICT|INTERRES
    91   44  169 1    
    92   45   46 2    
    93   45   47 1    
    94   47   48 1    
    95   47   49 1    
    96   47  170 1    
    97   48  171 1    
    98   48  172 1    
    99   48  173 1    
   100   49   50 am   BACKBONE|DICT|INTERRES
   101   49  174 1    
   102   50   51 2    
   103   50   52 1    
   104   52   53 1    
   105   52   54 1    
   106   52  175 1    
   107   53  176 1    
   108   53  177 1    
   109   53  178 1    
   110   54   55 am   BACKBONE|DICT|INTERRES
   111   54  179 1    
   112   55   56 2    
   113   55   57 1    
   114   57   58 1    
   115   57   59 1    
   116   57  180 1    
   117   58  181 1    
   118   58  182 1    
   119   58  183 1    
   120   59   60 am   BACKBONE|DICT|INTERRES
   121   59  184 1    
   122   60   61 2    
   123   60   62 1    
   124   62   63 1    
   125   62   64 1    
   126   62  185 1    
   127   63  186 1    
   128   63  187 1    
   129   63  188 1    
   130   64   65 am   BACKBONE|DICT|INTERRES
   131   64  189 1    
   132   65   66 2    
   133   67   68 2    
   134   67   69 am   BACKBONE|DICT|INTERRES
   135   69   70 1    
   136   69  190 1    
   137   70   71 1    
   138   70   72 1    
   139   70  191 1    
   140   71  192 1    
   141   71  193 1    
   142   71  194 1    
   143   72   73 2    
   144   72   74 am   BACKBONE|DICT|INTERRES
   145   74   75 1    
   146   74  195 1    
   147   75   76 1    
   148   75   77 1    
   149   75  196 1    
   150   76  197 1    
   151   76  198 1    
   152   76  199 1    
   153   77   78 2    
   154   77   79 am   BACKBONE|DICT|INTERRES
   155   79   80 1    
   156   79  200 1    
   157   80   81 1    
   158   80   82 1    
   159   80  201 1    
   160   81  202 1    
   161   81  203 1    
   162   81  204 1    
   163   82   83 2    
   164   82   84 am   BACKBONE|DICT|INTERRES
   165   84   85 1    
   166   84  205 1    
   167   85   86 1    
   168   85   87 1    
   169   85  206 1    
   170   86  207 1    
   171   86  208 1    
   172   86  209 1    
   173   87   88 2    
   174   87   89 am   BACKBONE|DICT|INTERRES
   175   89   90 1    
   176   89  210 1    
   177   90   91 1    
   178   90   92 1    
   179   90  211 1    
   180   91  212 1    
   181   91  213 1    
   182   91  214 1    
   183   92   93 2    
   184   92   94 am   BACKBONE|DICT|INTERRES
   185   94   95 1    
   186   94  215 1    
   187   95   96 1    
   188   95   97 1    
   189   95  216 1    
   190   96  217 1    
   191   96  218 1    
   192   96  219 1    
   193   97   98 2    
   194   97   99 am   BACKBONE|DICT|INTERRES
   195   99  100 1    
   196   99  220 1    
   197  100  101 1    
   198  100  102 1    
   199  100  221 1    
   200  101  222 1    
   201  101  223 1    
   202  101  224 1    
   203  102  103 2    
   204  102  104 am   BACKBONE|DICT|INTERRES
   205  104  105 1    
   206  104  225 1    
   207  105  106 1    
   208  105  107 1    
   209  105  226 1    
   210  106  227 1    
   211  106  228 1    
   212  106  229 1    
   213  107  108 2    
   214  107  109 am   BACKBONE|DICT|INTERRES
   215  109  110 1    
   216  109  230 1    
   217  110  111 1    
   218  110  112 1    
   219  110  231 1    
   220  111  232 1    
   221  111  233 1    
   222  111  234 1    
   223  112  113 2    
   224  112  114 am   BACKBONE|DICT|INTERRES
   225  114  115 1    
   226  114  235 1    
   227  115  116 1    
   228  115  117 1    
   229  115  236 1    
   230  116  237 1    
   231  116  238 1    
   232  116  239 1    
   233  117  118 2    
   234  117  119 am   BACKBONE|DICT|INTERRES
   235  119  120 1    
   236  119  240 1    
   237  120  121 1    
   238  120  124 1    
   239  120  241 1    
   240  121  122 am   BACKBONE|DICT|INTERRES
   241  121  123 2    
   242  122  242 1    
   243  122  243 1    
   244  124  125 1    
   245  124  244 1    
   246  124  245 1    
   247  125  126 1    
   248  126  246 1    
   249  126  247 1    
@<TRIPOS>SUBSTRUCTURE
     1 UNK         1 GROUP             0       ****    0 ROOT    
