@<TRIPOS>MOLECULE
3R540
247   249    1
SMALL
USER_CHARGES


@<TRIPOS>ATOM
      1 CA          1.7865  -15.4095  -44.7731 C.3       0 UNK        -0.1800 
      2 C           1.2973  -15.2908  -46.2094 C.2       0 UNK         0.5000 
      3 O           0.0952  -15.4211  -46.4524 O.2       0 UNK        -0.5000 
      4 N           2.2294  -15.0456  -47.1407 N.am      1 UNK        -0.5000 
      5 CA          2.0518  -14.9055  -48.5925 C.3       1 UNK         0.1400 
      6 C6          3.3729  -14.4563  -49.2670 C.3       23 UNK        -0.0398 
      7 S7          4.6519  -15.7569  -49.2232 S.3       23 UNK        -0.2404 
      8 C8          4.7527  -16.2420  -50.9770 C.3       23 UNK        -0.0205 
      9 C9          3.5082  -16.9851  -51.4408 C.ar      23 UNK        -0.0193 
     10 C10         2.4559  -16.2928  -52.0479 C.ar      23 UNK        -0.1150 
     11 C11         1.3053  -16.9687  -52.4612 C.ar      23 UNK        -0.0193 
     12 C12         1.2280  -18.3536  -52.3012 C.ar      23 UNK        -0.1150 
     13 C13         2.2752  -19.0597  -51.7018 C.ar      23 UNK        -0.0193 
     14 C14         3.4107  -18.3690  -51.2686 C.ar      23 UNK        -0.1150 
     15 C15         2.1809  -20.5677  -51.5251 C.3       23 UNK        -0.0205 
     16 S16         1.5422  -21.0284  -49.8841 S.3       23 UNK        -0.2404 
     17 C17        -0.1910  -20.4757  -50.0131 C.3       23 UNK        -0.0398 
     18 CA         -0.9632  -20.5860  -48.6821 C.3       11 UNK         0.1400 
     19 N          -0.3098  -19.8537  -47.5925 N.am      11 UNK        -0.5000 
     20 C          -0.7034  -19.8496  -46.3152 C.2       10 UNK         0.5000 
     21 O          -1.6671  -20.5028  -45.9076 O.2       10 UNK        -0.5000 
     22 CA          0.0620  -18.9031  -45.3709 C.3       10 UNK         0.1400 
     23 CB         -0.5680  -18.8369  -43.9754 C.3       10 UNK        -0.1800 
     24 N           1.4844  -19.2202  -45.2392 N.am      10 UNK        -0.5000 
     25 C           2.4230  -19.0156  -46.1760 C.2       9 UNK         0.5000 
     26 O           2.1697  -18.5395  -47.2830 O.2       9 UNK        -0.5000 
     27 CA          3.8877  -19.3593  -45.8289 C.3       9 UNK         0.1400 
     28 CB          4.7645  -18.0984  -45.8945 C.3       9 UNK        -0.1800 
     29 N           4.0593  -19.9665  -44.5082 N.am      9 UNK        -0.5000 
     30 C           3.7885  -21.2394  -44.1900 C.2       8 UNK         0.5000 
     31 O           3.3980  -22.0770  -45.0028 O.2       8 UNK        -0.5000 
     32 CA          3.9639  -21.6377  -42.7080 C.3       8 UNK         0.1400 
     33 CB          5.2881  -22.3910  -42.5083 C.3       8 UNK        -0.1800 
     34 N           3.9147  -20.5059  -41.7722 N.am      8 UNK        -0.5000 
     35 C           2.8387  -19.7358  -41.5616 C.2       7 UNK         0.5000 
     36 O           1.7728  -19.8879  -42.1585 O.2       7 UNK        -0.5000 
     37 CA          3.0202  -18.5583  -40.5846 C.3       7 UNK         0.1400 
     38 CB          3.6813  -17.3746  -41.3108 C.3       7 UNK        -0.1800 
     39 N           1.7588  -18.0929  -40.0067 N.am      7 UNK        -0.5000 
     40 C           0.9746  -18.7833  -39.1664 C.2       6 UNK         0.5000 
     41 O           1.2533  -19.9062  -38.7429 O.2       6 UNK        -0.5000 
     42 CA         -0.3236  -18.0944  -38.6867 C.3       6 UNK         0.1400 
     43 CB         -0.2094  -17.7063  -37.2035 C.3       6 UNK        -0.1800 
     44 N          -0.6609  -16.8931  -39.4590 N.am      6 UNK        -0.5000 
     45 C          -1.2516  -16.9065  -40.6609 C.2       5 UNK         0.5000 
     46 O          -1.6630  -17.9372  -41.1947 O.2       5 UNK        -0.5000 
     47 CA         -1.3624  -15.5417  -41.3789 C.3       5 UNK         0.1400 
     48 CB          0.0108  -14.8506  -41.4788 C.3       5 UNK        -0.1800 
     49 N          -1.9095  -15.6469  -42.7325 N.am      5 UNK        -0.5000 
     50 C          -3.1945  -15.8629  -43.0423 C.2       4 UNK         0.5000 
     51 O          -4.0926  -15.9767  -42.2058 O.2       4 UNK        -0.5000 
     52 CA         -3.5122  -15.9295  -44.5537 C.3       4 UNK         0.1400 
     53 CB         -5.0271  -15.9465  -44.8544 C.3       4 UNK        -0.1800 
     54 N          -2.8322  -14.8709  -45.3148 N.am      4 UNK        -0.5000 
     55 C          -3.0047  -13.5455  -45.1735 C.2       3 UNK         0.5000 
     56 O          -3.8031  -13.0329  -44.3888 O.2       3 UNK        -0.5000 
     57 CA         -2.1350  -12.6274  -46.0476 C.3       3 UNK         0.1400 
     58 CB         -0.9083  -12.1528  -45.2526 C.3       3 UNK        -0.1800 
     59 N          -1.6766  -13.2923  -47.2682 N.am      3 UNK        -0.5000 
     60 C          -2.1751  -13.0824  -48.4939 C.2       2 UNK         0.5000 
     61 O          -3.1352  -12.3420  -48.7124 O.2       2 UNK        -0.5000 
     62 CA         -1.5068  -13.8216  -49.6790 C.3       2 UNK         0.1400 
     63 CB         -1.3374  -12.9066  -50.9098 C.3       2 UNK        -0.1800 
     64 N          -0.2419  -14.4955  -49.3483 N.am      2 UNK        -0.5000 
     65 C           0.9098  -13.9316  -48.9515 C.2       1 UNK         0.5000 
     66 O           1.0846  -12.7183  -48.8271 O.2       1 UNK        -0.5000 
     67 C          -2.4278  -20.1446  -48.8878 C.2       11 UNK         0.5000 
     68 O          -3.2460  -20.9535  -49.3142 O.2       11 UNK        -0.5000 
     69 N          -2.7457  -18.8903  -48.5360 N.am      12 UNK        -0.5000 
     70 CA         -4.1027  -18.3472  -48.5383 C.3       12 UNK         0.1400 
     71 CB         -4.0243  -16.8145  -48.4792 C.3       12 UNK        -0.1800 
     72 C          -4.9980  -18.8987  -47.4109 C.2       12 UNK         0.5000 
     73 O          -6.2182  -18.8983  -47.5719 O.2       12 UNK        -0.5000 
     74 N          -4.3968  -19.3632  -46.3051 N.am      13 UNK        -0.5000 
     75 CA         -5.1121  -20.0265  -45.2129 C.3       13 UNK         0.1400 
     76 CB         -4.3582  -19.8268  -43.8876 C.3       13 UNK        -0.1800 
     77 C          -5.2953  -21.5233  -45.5119 C.2       13 UNK         0.5000 
     78 O          -6.3799  -22.0616  -45.2886 O.2       13 UNK        -0.5000 
     79 N          -4.2322  -22.1620  -46.0208 N.am      14 UNK        -0.5000 
     80 CA         -4.2135  -23.5766  -46.3980 C.3       14 UNK         0.1400 
     81 CB         -2.7550  -24.0129  -46.5849 C.3       14 UNK        -0.1800 
     82 C          -5.0362  -23.8867  -47.6640 C.2       14 UNK         0.5000 
     83 O          -5.5846  -24.9839  -47.7761 O.2       14 UNK        -0.5000 
     84 N          -5.0993  -22.9220  -48.5919 N.am      15 UNK        -0.5000 
     85 CA         -5.7460  -22.9859  -49.9015 C.3       15 UNK         0.1400 
     86 CB         -7.2825  -23.0472  -49.7482 C.3       15 UNK        -0.1800 
     87 C          -5.1344  -24.1067  -50.7660 C.2       15 UNK         0.5000 
     88 O          -3.9085  -24.1652  -50.8973 O.2       15 UNK        -0.5000 
     89 N          -5.9828  -24.9863  -51.3147 N.am      16 UNK        -0.5000 
     90 CA         -5.6247  -26.1051  -52.1913 C.3       16 UNK         0.1400 
     91 CB         -6.9154  -26.7856  -52.6727 C.3       16 UNK        -0.1800 
     92 C          -4.6707  -27.1432  -51.5663 C.2       16 UNK         0.5000 
     93 O          -4.0185  -27.8783  -52.3084 O.2       16 UNK        -0.5000 
     94 N          -4.5855  -27.1818  -50.2280 N.am      17 UNK        -0.5000 
     95 CA         -3.6363  -28.0150  -49.4877 C.3       17 UNK         0.1400 
     96 CB         -4.0495  -28.0668  -48.0092 C.3       17 UNK        -0.1800 
     97 C          -2.1758  -27.5377  -49.6259 C.2       17 UNK         0.5000 
     98 O          -1.2659  -28.3474  -49.4421 O.2       17 UNK        -0.5000 
     99 N          -1.9762  -26.2520  -49.9490 N.am      18 UNK        -0.5000 
    100 CA        -0.6704  -25.6570  -50.2192 C.3       18 UNK         0.1400 
    101 CB        -0.5132  -24.3625  -49.4079 C.3       18 UNK        -0.1800 
    102 C         -0.5126  -25.3865  -51.7210 C.2       18 UNK         0.5000 
    103 O          0.3999  -25.9343  -52.3406 O.2       18 UNK        -0.5000 
    104 N         -1.4048  -24.5569  -52.2758 N.am      19 UNK        -0.5000 
    105 CA        -1.4116  -24.1217  -53.6685 C.3       19 UNK         0.1400 
    106 CB        -0.1488  -23.2964  -54.0105 C.3       19 UNK        -0.1800 
    107 C         -2.7035  -23.3335  -53.9181 C.2       19 UNK         0.5000 
    108 O         -3.6858  -23.9083  -54.3869 O.2       19 UNK        -0.5000 
    109 N         -2.6801  -22.0378  -53.5887 N.am      20 UNK        -0.5000 
    110 CA        -3.7623  -21.0761  -53.7555 C.3       20 UNK         0.1400 
    111 CB        -3.9843  -20.7745  -55.2526 C.3       20 UNK        -0.1800 
    112 C         -3.3977  -19.7925  -52.9934 C.2       20 UNK         0.5000 
    113 O         -2.2585  -19.6415  -52.5438 O.2       20 UNK        -0.5000 
    114 N         -4.3681  -18.8764  -52.8929 N.am      21 UNK        -0.5000 
    115 CA        -4.2196  -17.5637  -52.2586 C.3       21 UNK         0.1400 
    116 CB        -5.6043  -17.0997  -51.7748 C.3       21 UNK        -0.1800 
    117 C         -3.5852  -16.4933  -53.1716 C.2       21 UNK         0.5000 
    118 O         -3.3532  -15.3785  -52.7043 O.2       21 UNK        -0.5000 
    119 N         -3.3355  -16.8354  -54.4437 N.am      22 UNK        -0.5000 
    120 CA        -2.8146  -15.9568  -55.5109 C.3       22 UNK         0.1400 
    121 C         -3.8352  -14.8947  -56.0284 C.2       22 UNK         0.5000 
    122 N         -5.1197  -14.9938  -55.7079 N.am      22 UNK        -0.7600 
    123 O         -3.4680  -13.9810  -56.7625 O.2       22 UNK        -0.5000 
    124 C124       -1.4260  -15.3255  -55.1980 C.3       23 UNK        -0.0398 
    125 S125       -0.1275  -16.5481  -54.8038 S.3       23 UNK        -0.2404 
    126 C126        0.1300  -16.1980  -53.0382 C.3       23 UNK        -0.0205 
    127 H127        2.8749  -15.4123  -44.7141 H         1 UNK         0.0600 
    128 H128        1.4181  -14.5714  -44.1831 H         1 UNK         0.0600 
    129 H129        1.4229  -16.3331  -44.3247 H         1 UNK         0.0600 
    130 H130        3.1883  -14.9574  -46.8385 H         1 UNK         0.3000 
    131 H131        1.7896  -15.8926  -48.9799 H         1 UNK         0.0600 
    132 H132        3.2081  -14.1528  -50.3008 H         1 UNK         0.0800 
    133 H133        3.7708  -13.5704  -48.7687 H         1 UNK         0.0800 
    134 H134        4.9249  -15.3592  -51.5947 H         1 UNK         0.0800 
    135 H135        5.6284  -16.8785  -51.1129 H         1 UNK         0.0800 
    136 H136        2.5248  -15.2239  -52.1886 H         1 UNK         0.1150 
    137 H137        0.3420  -18.8780  -52.6319 H         1 UNK         0.1150 
    138 H138        4.2186  -18.9092  -50.7951 H         1 UNK         0.1150 
    139 H139        1.5484  -21.0012  -52.2998 H         1 UNK         0.0800 
    140 H140        3.1679  -21.0137  -51.6554 H         1 UNK         0.0800 
    141 H141       -0.2113  -19.4415  -50.3548 H         1 UNK         0.0800 
    142 H142       -0.6767  -21.0716  -50.7883 H         1 UNK         0.0800 
    143 H143       -0.9838  -21.6357  -48.3876 H         1 UNK         0.0600 
    144 H144        0.5344  -19.3365  -47.8282 H         1 UNK         0.3000 
    145 H145       -0.0227  -17.9086  -45.8059 H         1 UNK         0.0600 
    146 H146       -0.0368  -18.1295  -43.3393 H         1 UNK         0.0600 
    147 H147       -1.6060  -18.5113  -44.0241 H         1 UNK         0.0600 
    148 H148       -0.5555  -19.8079  -43.4794 H         1 UNK         0.0600 
    149 H149        1.7635  -19.6188  -44.3509 H         1 UNK         0.3000 
    150 H150        4.2411  -20.0619  -46.5864 H         1 UNK         0.0600 
    151 H151        4.7044  -17.6307  -46.8774 H         1 UNK         0.0600 
    152 H152        5.8132  -18.3365  -45.7162 H         1 UNK         0.0600 
    153 H153        4.4577  -17.3554  -45.1577 H         1 UNK         0.0600 
    154 H154        4.3786  -19.3553  -43.7719 H         1 UNK         0.3000 
    155 H155        3.1446  -22.3145  -42.4564 H         1 UNK         0.0600 
    156 H156        5.3478  -23.2587  -43.1668 H         1 UNK         0.0600 
    157 H157        6.1485  -21.7561  -42.7235 H         1 UNK         0.0600 
    158 H158        5.3853  -22.7551  -41.4854 H         1 UNK         0.0600 
    159 H159        4.7634  -20.3135  -41.2593 H         1 UNK         0.3000 
    160 H160        3.6682  -18.8814  -39.7674 H         1 UNK         0.0600 
    161 H161        4.6544  -17.6534  -41.7170 H         1 UNK         0.0600 
    162 H162        3.0691  -17.0189  -42.1410 H         1 UNK         0.0600 
    163 H163        3.8453  -16.5368  -40.6328 H         1 UNK         0.0600 
    164 H164        1.4348  -17.1892  -40.3113 H         1 UNK         0.3000 
    165 H165       -1.1335  -18.8204  -38.7852 H         1 UNK         0.0600 
    166 H166        0.5903  -16.9836  -37.0365 H         1 UNK         0.0600 
    167 H167       -1.1391  -17.2704  -36.8372 H         1 UNK         0.0600 
    168 H168        0.0031  -18.5794  -36.5852 H         1 UNK         0.0600 
    169 H169       -0.3664  -16.0113  -39.0642 H         1 UNK         0.3000 
    170 H170       -2.0282  -14.9088  -40.7886 H         1 UNK         0.0600 
    171 H171        0.4009  -14.5880  -40.4951 H         1 UNK         0.0600 
    172 H172        0.7478  -15.4908  -41.9643 H         1 UNK         0.0600 
    173 H173       -0.0544  -13.9227  -42.0480 H         1 UNK         0.0600 
    174 H174       -1.2464  -15.5709  -43.4881 H         1 UNK         0.3000 
    175 H175       -3.1012  -16.8729  -44.9138 H         1 UNK         0.0600 
    176 H176       -5.2221  -15.9805  -45.9251 H         1 UNK         0.0600 
    177 H177       -5.5038  -16.8220  -44.4128 H         1 UNK         0.0600 
    178 H178       -5.5318  -15.0674  -44.4534 H         1 UNK         0.0600 
    179 H179       -2.1111  -15.1771  -45.9552 H         1 UNK         0.3000 
    180 H180       -2.7320  -11.7479  -46.2977 H         1 UNK         0.0600 
    181 H181       -0.2816  -11.4923  -45.8522 H         1 UNK         0.0600 
    182 H182       -1.2101  -11.5975  -44.3636 H         1 UNK         0.0600 
    183 H183       -0.2930  -12.9888  -44.9216 H         1 UNK         0.0600 
    184 H184       -0.9042  -13.9434  -47.1643 H         1 UNK         0.3000 
    185 H185       -2.1998  -14.6120  -49.9657 H         1 UNK         0.0600 
    186 H186       -0.8899  -13.4446  -51.7440 H         1 UNK         0.0600 
    187 H187       -2.3023  -12.5332  -51.2546 H         1 UNK         0.0600 
    188 H188       -0.7120  -12.0407  -50.6918 H         1 UNK         0.0600 
    189 H189       -0.2822  -15.5045  -49.3654 H         1 UNK         0.3000 
    190 H190       -2.0109  -18.2868  -48.1996 H         1 UNK         0.3000 
    191 H191       -4.5778  -18.6332  -49.4772 H         1 UNK         0.0600 
    192 H192       -5.0197  -16.3691  -48.4542 H         1 UNK         0.0600 
    193 H193       -3.5168  -16.4154  -49.3554 H         1 UNK         0.0600 
    194 H194       -3.4850  -16.4718  -47.5970 H         1 UNK         0.0600 
    195 H195       -3.3864  -19.4056  -46.2689 H         1 UNK         0.3000 
    196 H196       -6.1018  -19.5781  -45.1006 H         1 UNK         0.0600 
    197 H197       -3.3716  -20.2896  -43.9022 H         1 UNK         0.0600 
    198 H198       -4.9105  -20.2721  -43.0594 H         1 UNK         0.0600 
    199 H199       -4.2291  -18.7711  -43.6551 H         1 UNK         0.0600 
    200 H200       -3.3623  -21.6503  -46.1206 H         1 UNK         0.3000 
    201 H201       -4.6413  -24.1579  -45.5785 H         1 UNK         0.0600 
    202 H202       -2.1964  -23.9312  -45.6523 H         1 UNK         0.0600 
    203 H203       -2.2554  -23.3918  -47.3266 H         1 UNK         0.0600 
    204 H204       -2.6874  -25.0494  -46.9175 H         1 UNK         0.0600 
    205 H205       -4.5136  -22.1025  -48.4662 H         1 UNK         0.3000 
    206 H206       -5.5037  -22.0512  -50.4089 H         1 UNK         0.0600 
    207 H207       -7.6421  -22.2157  -49.1416 H         1 UNK         0.0600 
    208 H208       -7.7807  -22.9721  -50.7155 H         1 UNK         0.0600 
    209 H209       -7.6146  -23.9687  -49.2689 H         1 UNK         0.0600 
    210 H210       -6.9677  -24.8729  -51.1242 H         1 UNK         0.3000 
    211 H211       -5.1154  -25.6894  -53.0615 H         1 UNK         0.0600 
    212 H212       -7.4872  -27.1967  -51.8398 H         1 UNK         0.0600 
    213 H213       -6.6944  -27.6065  -53.3562 H         1 UNK         0.0600 
    214 H214       -7.5559  -26.0844  -53.2081 H         1 UNK         0.0600 
    215 H215       -5.1494  -26.5414  -49.6845 H         1 UNK         0.3000 
    216 H216       -3.6906  -29.0293  -49.8888 H         1 UNK         0.0600 
    217 H217       -3.4097  -28.7510  -47.4506 H         1 UNK         0.0600 
    218 H218       -5.0759  -28.4160  -47.8959 H         1 UNK         0.0600 
    219 H219       -3.9723  -27.0891  -47.5344 H         1 UNK         0.0600 
    220 H220       -2.7828  -25.6648  -50.1321 H         1 UNK         0.3000 
    221 H221        0.1344  -26.3317  -49.9201 H         1 UNK         0.0600 
    222 H222       -1.3397  -23.6729  -49.5825 H         1 UNK         0.0600 
    223 H223       -0.4670  -24.5780  -48.3411 H         1 UNK         0.0600 
    224 H224        0.4109  -23.8470  -49.6707 H         1 UNK         0.0600 
    225 H225       -2.1870  -24.2231  -51.7161 H         1 UNK         0.3000 
    226 H226       -1.4367  -25.0053  -54.3094 H         1 UNK         0.0600 
    227 H227        0.7435  -23.9213  -54.0326 H         1 UNK         0.0600 
    228 H228       -0.2351  -22.8361  -54.9958 H         1 UNK         0.0600 
    229 H229        0.0244  -22.5013  -53.2859 H         1 UNK         0.0600 
    230 H230       -1.8505  -21.6370  -53.1690 H         1 UNK         0.3000 
    231 H231       -4.6727  -21.4908  -53.3180 H         1 UNK         0.0600 
    232 H232       -4.7849  -20.0491  -55.4000 H         1 UNK         0.0600 
    233 H233       -4.2678  -21.6700  -55.8051 H         1 UNK         0.0600 
    234 H234       -3.0835  -20.3700  -55.7161 H         1 UNK         0.0600 
    235 H235       -5.2741  -19.0768  -53.2922 H         1 UNK         0.3000 
    236 H236       -3.5628  -17.6670  -51.3938 H         1 UNK         0.0600 
    237 H237       -6.2833  -16.9244  -52.6100 H         1 UNK         0.0600 
    238 H238       -6.0687  -17.8368  -51.1201 H         1 UNK         0.0600 
    239 H239       -5.5316  -16.1681  -51.2119 H         1 UNK         0.0600 
    240 H240       -3.5571  -17.7770  -54.7280 H         1 UNK         0.3000 
    241 H241       -2.6682  -16.6179  -56.3656 H         1 UNK         0.0600 
    242 H242       -5.7712  -14.3086  -56.0579 H         1 UNK         0.3800 
    243 H243       -5.4474  -15.7418  -55.1195 H         1 UNK         0.3800 
    244 H244       -1.5104  -14.5927  -54.3947 H         1 UNK         0.0800 
    245 H245       -1.0666  -14.7664  -56.0634 H         1 UNK         0.0800 
    246 H246        0.2842  -15.1267  -52.9068 H         1 UNK         0.0800 
    247 H247       -0.7693  -16.4543  -52.4784 H         1 UNK         0.0800 
@<TRIPOS>BOND
     1    1    2 1    
     2    1  127 1    
     3    1  128 1    
     4    1  129 1    
     5    2    3 2    
     6    2    4 am   BACKBONE|DICT|INTERRES
     7    4    5 1    
     8    4  130 1    
     9    5    6 1    
    10    5   65 1    
    11    5  131 1    
    12    6    7 1    
    13    6  132 1    
    14    6  133 1    
    15    7    8 1    
    16    8    9 1    
    17    8  134 1    
    18    8  135 1    
    19    9   10 ar   
    20    9   14 ar   
    21   10   11 ar   
    22   10  136 1    
    23   11   12 ar   
    24   11  126 1    
    25   12   13 ar   
    26   12  137 1    
    27   13   14 ar   
    28   13   15 1    
    29   14  138 1    
    30   15   16 1    
    31   15  139 1    
    32   15  140 1    
    33   16   17 1    
    34   17   18 1    
    35   17  141 1    
    36   17  142 1    
    37   18   19 1    
    38   18   67 1    
    39   18  143 1    
    40   19   20 am   BACKBONE|DICT|INTERRES
    41   19  144 1    
    42   20   21 2    
    43   20   22 1    
    44   22   23 1    
    45   22   24 1    
    46   22  145 1    
    47   23  146 1    
    48   23  147 1    
    49   23  148 1    
    50   24   25 am   BACKBONE|DICT|INTERRES
    51   24  149 1    
    52   25   26 2    
    53   25   27 1    
    54   27   28 1    
    55   27   29 1    
    56   27  150 1    
    57   28  151 1    
    58   28  152 1    
    59   28  153 1    
    60   29   30 am   BACKBONE|DICT|INTERRES
    61   29  154 1    
    62   30   31 2    
    63   30   32 1    
    64   32   33 1    
    65   32   34 1    
    66   32  155 1    
    67   33  156 1    
    68   33  157 1    
    69   33  158 1    
    70   34   35 am   BACKBONE|DICT|INTERRES
    71   34  159 1    
    72   35   36 2    
    73   35   37 1    
    74   37   38 1    
    75   37   39 1    
    76   37  160 1    
    77   38  161 1    
    78   38  162 1    
    79   38  163 1    
    80   39   40 am   BACKBONE|DICT|INTERRES
    81   39  164 1    
    82   40   41 2    
    83   40   42 1    
    84   42   43 1    
    85   42   44 1    
    86   42  165 1    
    87   43  166 1    
    88   43  167 1    
    89   43  168 1    
    90   44   45 am   BACKBONE|DICT|INTERRES
    91   44  169 1    
    92   45   46 2    
    93   45   47 1    
    94   47   48 1    
    95   47   49 1    
    96   47  170 1    
    97   48  171 1    
    98   48  172 1    
    99   48  173 1    
   100   49   50 am   BACKBONE|DICT|INTERRES
   101   49  174 1    
   102   50   51 2    
   103   50   52 1    
   104   52   53 1    
   105   52   54 1    
   106   52  175 1    
   107   53  176 1    
   108   53  177 1    
   109   53  178 1    
   110   54   55 am   BACKBONE|DICT|INTERRES
   111   54  179 1    
   112   55   56 2    
   113   55   57 1    
   114   57   58 1    
   115   57   59 1    
   116   57  180 1    
   117   58  181 1    
   118   58  182 1    
   119   58  183 1    
   120   59   60 am   BACKBONE|DICT|INTERRES
   121   59  184 1    
   122   60   61 2    
   123   60   62 1    
   124   62   63 1    
   125   62   64 1    
   126   62  185 1    
   127   63  186 1    
   128   63  187 1    
   129   63  188 1    
   130   64   65 am   BACKBONE|DICT|INTERRES
   131   64  189 1    
   132   65   66 2    
   133   67   68 2    
   134   67   69 am   BACKBONE|DICT|INTERRES
   135   69   70 1    
   136   69  190 1    
   137   70   71 1    
   138   70   72 1    
   139   70  191 1    
   140   71  192 1    
   141   71  193 1    
   142   71  194 1    
   143   72   73 2    
   144   72   74 am   BACKBONE|DICT|INTERRES
   145   74   75 1    
   146   74  195 1    
   147   75   76 1    
   148   75   77 1    
   149   75  196 1    
   150   76  197 1    
   151   76  198 1    
   152   76  199 1    
   153   77   78 2    
   154   77   79 am   BACKBONE|DICT|INTERRES
   155   79   80 1    
   156   79  200 1    
   157   80   81 1    
   158   80   82 1    
   159   80  201 1    
   160   81  202 1    
   161   81  203 1    
   162   81  204 1    
   163   82   83 2    
   164   82   84 am   BACKBONE|DICT|INTERRES
   165   84   85 1    
   166   84  205 1    
   167   85   86 1    
   168   85   87 1    
   169   85  206 1    
   170   86  207 1    
   171   86  208 1    
   172   86  209 1    
   173   87   88 2    
   174   87   89 am   BACKBONE|DICT|INTERRES
   175   89   90 1    
   176   89  210 1    
   177   90   91 1    
   178   90   92 1    
   179   90  211 1    
   180   91  212 1    
   181   91  213 1    
   182   91  214 1    
   183   92   93 2    
   184   92   94 am   BACKBONE|DICT|INTERRES
   185   94   95 1    
   186   94  215 1    
   187   95   96 1    
   188   95   97 1    
   189   95  216 1    
   190   96  217 1    
   191   96  218 1    
   192   96  219 1    
   193   97   98 2    
   194   97   99 am   BACKBONE|DICT|INTERRES
   195   99  100 1    
   196   99  220 1    
   197  100  101 1    
   198  100  102 1    
   199  100  221 1    
   200  101  222 1    
   201  101  223 1    
   202  101  224 1    
   203  102  103 2    
   204  102  104 am   BACKBONE|DICT|INTERRES
   205  104  105 1    
   206  104  225 1    
   207  105  106 1    
   208  105  107 1    
   209  105  226 1    
   210  106  227 1    
   211  106  228 1    
   212  106  229 1    
   213  107  108 2    
   214  107  109 am   BACKBONE|DICT|INTERRES
   215  109  110 1    
   216  109  230 1    
   217  110  111 1    
   218  110  112 1    
   219  110  231 1    
   220  111  232 1    
   221  111  233 1    
   222  111  234 1    
   223  112  113 2    
   224  112  114 am   BACKBONE|DICT|INTERRES
   225  114  115 1    
   226  114  235 1    
   227  115  116 1    
   228  115  117 1    
   229  115  236 1    
   230  116  237 1    
   231  116  238 1    
   232  116  239 1    
   233  117  118 2    
   234  117  119 am   BACKBONE|DICT|INTERRES
   235  119  120 1    
   236  119  240 1    
   237  120  121 1    
   238  120  124 1    
   239  120  241 1    
   240  121  122 am   BACKBONE|DICT|INTERRES
   241  121  123 2    
   242  122  242 1    
   243  122  243 1    
   244  124  125 1    
   245  124  244 1    
   246  124  245 1    
   247  125  126 1    
   248  126  246 1    
   249  126  247 1    
@<TRIPOS>SUBSTRUCTURE
     1 UNK         1 GROUP             0       ****    0 ROOT    
