@<TRIPOS>MOLECULE
3R540
247   249    1
SMALL
USER_CHARGES


@<TRIPOS>ATOM
      1 CA         -5.8776  -21.0758  -44.0458 C.3       0 UNK        -0.1800 
      2 C          -5.3950  -20.0114  -45.0198 C.2       0 UNK         0.5000 
      3 O          -6.1688  -19.5686  -45.8688 O.2       0 UNK        -0.5000 
      4 N          -4.1252  -19.6012  -44.8910 N.am      1 UNK        -0.5000 
      5 CA         -3.4487  -18.6497  -45.7819 C.3       1 UNK         0.1400 
      6 C6         -1.9222  -18.6107  -45.5290 C.3       23 UNK        -0.0398 
      7 S7         -1.0456  -20.0017  -46.3235 S.3       23 UNK        -0.2404 
      8 C8          0.3264  -19.0986  -47.1163 C.3       23 UNK        -0.0205 
      9 C9          1.2512  -19.9988  -47.9216 C.ar      23 UNK        -0.0193 
     10 C10         1.4704  -19.7509  -49.2804 C.ar      23 UNK        -0.1150 
     11 C11         2.3944  -20.5127  -50.0024 C.ar      23 UNK        -0.0193 
     12 C12         3.0834  -21.5467  -49.3617 C.ar      23 UNK        -0.1150 
     13 C13         2.8672  -21.8097  -48.0064 C.ar      23 UNK        -0.0193 
     14 C14         1.9531  -21.0295  -47.2921 C.ar      23 UNK        -0.1150 
     15 C15         3.6466  -22.9105  -47.3012 C.3       23 UNK        -0.0205 
     16 S16         3.0550  -24.5888  -47.7098 S.3       23 UNK        -0.2404 
     17 C17         1.2641  -24.5120  -47.3586 C.3       23 UNK        -0.0398 
     18 CA          0.8772  -24.9389  -45.9241 C.3       11 UNK         0.1400 
     19 N           1.5550  -24.1415  -44.8992 N.am      11 UNK        -0.5000 
     20 C           1.6963  -24.5135  -43.6211 C.2       10 UNK         0.5000 
     21 O           1.2493  -25.5637  -43.1586 O.2       10 UNK        -0.5000 
     22 CA          2.4846  -23.5579  -42.7063 C.3       10 UNK         0.1400 
     23 CB          3.9737  -23.9366  -42.6943 C.3       10 UNK        -0.1800 
     24 N           2.3636  -22.1428  -43.0647 N.am      10 UNK        -0.5000 
     25 C           1.2391  -21.4187  -42.9836 C.2       9 UNK         0.5000 
     26 O           0.1393  -21.9053  -42.7207 O.2       9 UNK        -0.5000 
     27 CA          1.3441  -19.9028  -43.2488 C.3       9 UNK         0.1400 
     28 CB          0.6575  -19.0932  -42.1306 C.3       9 UNK        -0.1800 
     29 N           2.7068  -19.4165  -43.5080 N.am      9 UNK        -0.5000 
     30 C           3.7262  -19.2749  -42.6497 C.2       8 UNK         0.5000 
     31 O           3.6600  -19.5736  -41.4574 O.2       8 UNK        -0.5000 
     32 CA          5.0613  -18.7287  -43.2045 C.3       8 UNK         0.1400 
     33 CB          6.0305  -19.8873  -43.5110 C.3       8 UNK        -0.1800 
     34 N           4.9624  -17.8108  -44.3519 N.am      8 UNK        -0.5000 
     35 C           4.5299  -18.0503  -45.5977 C.2       7 UNK         0.5000 
     36 O           4.0820  -19.1395  -45.9525 O.2       7 UNK        -0.5000 
     37 CA          4.5632  -16.8634  -46.5860 C.3       7 UNK         0.1400 
     38 CB          3.9471  -17.2144  -47.9528 C.3       7 UNK        -0.1800 
     39 N           3.8662  -15.6964  -46.0427 N.am      7 UNK        -0.5000 
     40 C           4.3839  -14.8142  -45.1742 C.2       6 UNK         0.5000 
     41 O           5.5515  -14.8561  -44.7846 O.2       6 UNK        -0.5000 
     42 CA          3.4305  -13.7472  -44.5940 C.3       6 UNK         0.1400 
     43 CB          3.4900  -12.4598  -45.4292 C.3       6 UNK        -0.1800 
     44 N           2.0413  -14.2026  -44.5172 N.am      6 UNK        -0.5000 
     45 C           1.6167  -15.2575  -43.8077 C.2       5 UNK         0.5000 
     46 O           2.3259  -15.8557  -42.9988 O.2       5 UNK        -0.5000 
     47 CA          0.1820  -15.7640  -44.0680 C.3       5 UNK         0.1400 
     48 CB         -0.6968  -15.5655  -42.8240 C.3       5 UNK        -0.1800 
     49 N          -0.5003  -15.1892  -45.2363 N.am      5 UNK        -0.5000 
     50 C          -0.0952  -15.2783  -46.5145 C.2       4 UNK         0.5000 
     51 O           0.9586  -15.8230  -46.8434 O.2       4 UNK        -0.5000 
     52 CA         -0.9972  -14.6682  -47.6082 C.3       4 UNK         0.1400 
     53 CB         -1.3416  -15.7096  -48.6876 C.3       4 UNK        -0.1800 
     54 N          -2.2360  -14.0922  -47.0756 N.am      4 UNK        -0.5000 
     55 C          -2.3449  -12.8459  -46.5895 C.2       3 UNK         0.5000 
     56 O          -1.4078  -12.0475  -46.5682 O.2       3 UNK        -0.5000 
     57 CA         -3.7075  -12.4117  -46.0067 C.3       3 UNK         0.1400 
     58 CB         -4.4499  -11.4916  -46.9881 C.3       3 UNK        -0.1800 
     59 N          -4.5828  -13.5266  -45.6343 N.am      3 UNK        -0.5000 
     60 C          -4.3499  -14.3702  -44.6200 C.2       2 UNK         0.5000 
     61 O          -3.3721  -14.2751  -43.8795 O.2       2 UNK        -0.5000 
     62 CA         -5.3374  -15.5402  -44.4115 C.3       2 UNK         0.1400 
     63 CB         -6.6280  -15.4336  -45.2548 C.3       2 UNK        -0.1800 
     64 N          -4.6931  -16.8398  -44.6378 N.am      2 UNK        -0.5000 
     65 C          -4.0492  -17.2252  -45.7509 C.2       1 UNK         0.5000 
     66 O          -3.9092  -16.4985  -46.7347 O.2       1 UNK        -0.5000 
     67 C          -0.6554  -24.8809  -45.7693 C.2       11 UNK         0.5000 
     68 O          -1.3214  -25.8952  -45.9799 O.2       11 UNK        -0.5000 
     69 N          -1.1755  -23.6895  -45.4320 N.am      12 UNK        -0.5000 
     70 CA         -2.5847  -23.3017  -45.2942 C.3       12 UNK         0.1400 
     71 CB         -3.2641  -24.0582  -44.1364 C.3       12 UNK        -0.1800 
     72 C          -3.3948  -23.4079  -46.6022 C.2       12 UNK         0.5000 
     73 O          -3.8475  -22.3914  -47.1261 O.2       12 UNK        -0.5000 
     74 N          -3.5574  -24.6348  -47.1106 N.am      13 UNK        -0.5000 
     75 CA         -4.3608  -24.9738  -48.2860 C.3       13 UNK         0.1400 
     76 CB         -4.5279  -26.4990  -48.3497 C.3       13 UNK        -0.1800 
     77 C          -3.7886  -24.4397  -49.6122 C.2       13 UNK         0.5000 
     78 O          -4.5536  -24.2186  -50.5512 O.2       13 UNK        -0.5000 
     79 N          -2.4657  -24.2232  -49.6644 N.am      14 UNK        -0.5000 
     80 CA         -1.7429  -23.7080  -50.8333 C.3       14 UNK         0.1400 
     81 CB         -0.2325  -23.8361  -50.5931 C.3       14 UNK        -0.1800 
     82 C          -2.1046  -22.2561  -51.2029 C.2       14 UNK         0.5000 
     83 O          -1.8709  -21.8462  -52.3406 O.2       14 UNK        -0.5000 
     84 N          -2.6852  -21.5123  -50.2557 N.am      15 UNK        -0.5000 
     85 CA         -3.2124  -20.1742  -50.4726 C.3       15 UNK         0.1400 
     86 CB         -2.1293  -19.1189  -50.1812 C.3       15 UNK        -0.1800 
     87 C          -4.4914  -19.9827  -49.6554 C.2       15 UNK         0.5000 
     88 O          -4.6247  -18.9699  -48.9742 O.2       15 UNK        -0.5000 
     89 N          -5.4064  -20.9600  -49.7336 N.am      16 UNK        -0.5000 
     90 CA         -6.6901  -20.9813  -49.0283 C.3       16 UNK         0.1400 
     91 CB         -7.4854  -22.2197  -49.4697 C.3       16 UNK        -0.1800 
     92 C          -7.5079  -19.6942  -49.2577 C.2       16 UNK         0.5000 
     93 O          -7.8862  -19.4114  -50.3954 O.2       16 UNK        -0.5000 
     94 N          -7.7090  -18.9169  -48.1850 N.am      17 UNK        -0.5000 
     95 CA         -8.3455  -17.5934  -48.1656 C.3       17 UNK         0.1400 
     96 CB         -9.8437  -17.6967  -48.5203 C.3       17 UNK        -0.1800 
     97 C          -7.5920  -16.5443  -49.0169 C.2       17 UNK         0.5000 
     98 O          -8.2146  -15.6570  -49.6016 O.2       17 UNK        -0.5000 
     99 N          -6.2601  -16.6819  -49.0684 N.am      18 UNK        -0.5000 
    100 CA        -5.2748  -15.8889  -49.8076 C.3       18 UNK         0.1400 
    101 CB        -5.3290  -14.4013  -49.4117 C.3       18 UNK        -0.1800 
    102 C         -5.2929  -16.1041  -51.3351 C.2       18 UNK         0.5000 
    103 O         -4.5856  -15.3903  -52.0487 O.2       18 UNK        -0.5000 
    104 N         -6.0497  -17.0959  -51.8270 N.am      19 UNK        -0.5000 
    105 CA        -6.0809  -17.4975  -53.2335 C.3       19 UNK         0.1400 
    106 CB        -7.4421  -18.1429  -53.5460 C.3       19 UNK        -0.1800 
    107 C         -4.8967  -18.4363  -53.5314 C.2       19 UNK         0.5000 
    108 O         -5.0709  -19.6548  -53.5753 O.2       19 UNK        -0.5000 
    109 N         -3.7008  -17.8462  -53.6586 N.am      20 UNK        -0.5000 
    110 CA        -2.4191  -18.5216  -53.8654 C.3       20 UNK         0.1400 
    111 CB        -1.2951  -17.4743  -53.8972 C.3       20 UNK        -0.1800 
    112 C         -2.3872  -19.4107  -55.1217 C.2       20 UNK         0.5000 
    113 O         -2.4750  -18.8976  -56.2388 O.2       20 UNK        -0.5000 
    114 N         -2.2225  -20.7205  -54.9068 N.am      21 UNK        -0.5000 
    115 CA        -1.9848  -21.7249  -55.9448 C.3       21 UNK         0.1400 
    116 CB        -2.6364  -23.0462  -55.5046 C.3       21 UNK        -0.1800 
    117 C         -0.4779  -21.9234  -56.2126 C.2       21 UNK         0.5000 
    118 O         -0.1175  -22.6677  -57.1252 O.2       21 UNK        -0.5000 
    119 N          0.3701  -21.2670  -55.4091 N.am      22 UNK        -0.5000 
    120 CA         1.8399  -21.3296  -55.4372 C.3       22 UNK         0.1400 
    121 C          2.5114  -20.7792  -56.7314 C.2       22 UNK         0.5000 
    122 N          1.8190  -20.0247  -57.5762 N.am      22 UNK        -0.7600 
    123 O          3.6863  -21.0431  -56.9718 O.2       22 UNK        -0.5000 
    124 C124        2.4546  -20.6400  -54.1907 C.3       23 UNK        -0.0398 
    125 S125        1.7954  -21.2608  -52.6056 S.3       23 UNK        -0.2404 
    126 C126        2.6962  -20.1809  -51.4556 C.3       23 UNK        -0.0205 
    127 H127       -6.7483  -20.7160  -43.4978 H         1 UNK         0.0600 
    128 H128       -5.1072  -21.3451  -43.3229 H         1 UNK         0.0600 
    129 H129       -6.1636  -21.9753  -44.5910 H         1 UNK         0.0600 
    130 H130       -3.5504  -20.0043  -44.1662 H         1 UNK         0.3000 
    131 H131       -3.5989  -19.0154  -46.7940 H         1 UNK         0.0600 
    132 H132       -1.4974  -17.6905  -45.9255 H         1 UNK         0.0800 
    133 H133       -1.6997  -18.6036  -44.4611 H         1 UNK         0.0800 
    134 H134       -0.0821  -18.3147  -47.7542 H         1 UNK         0.0800 
    135 H135        0.9170  -18.5908  -46.3526 H         1 UNK         0.0800 
    136 H136        0.9523  -18.9380  -49.7685 H         1 UNK         0.1150 
    137 H137        3.8007  -22.1371  -49.9141 H         1 UNK         0.1150 
    138 H138        1.8037  -21.2027  -46.2371 H         1 UNK         0.1150 
    139 H139        4.6976  -22.8362  -47.5840 H         1 UNK         0.0800 
    140 H140        3.6245  -22.7662  -46.2209 H         1 UNK         0.0800 
    141 H141        0.7844  -25.1823  -48.0733 H         1 UNK         0.0800 
    142 H142        0.8790  -23.5191  -47.5864 H         1 UNK         0.0800 
    143 H143        1.1794  -25.9808  -45.7952 H         1 UNK         0.0600 
    144 H144        1.9715  -23.2736  -45.1944 H         1 UNK         0.3000 
    145 H145        2.0934  -23.6788  -41.6939 H         1 UNK         0.0600 
    146 H146        4.5309  -23.3258  -41.9836 H         1 UNK         0.0600 
    147 H147        4.1101  -24.9787  -42.4019 H         1 UNK         0.0600 
    148 H148        4.4297  -23.8092  -43.6771 H         1 UNK         0.0600 
    149 H149        3.2205  -21.6543  -43.2768 H         1 UNK         0.3000 
    150 H150        0.7952  -19.7159  -44.1684 H         1 UNK         0.0600 
    151 H151       -0.4219  -19.2475  -42.1428 H         1 UNK         0.0600 
    152 H152        0.8389  -18.0272  -42.2425 H         1 UNK         0.0600 
    153 H153        1.0155  -19.3843  -41.1426 H         1 UNK         0.0600 
    154 H154        2.9284  -19.2219  -44.4814 H         1 UNK         0.3000 
    155 H155        5.5024  -18.1374  -42.4006 H         1 UNK         0.0600 
    156 H156        5.6526  -20.5392  -44.2992 H         1 UNK         0.0600 
    157 H157        7.0052  -19.5131  -43.8242 H         1 UNK         0.0600 
    158 H158        6.1900  -20.5064  -42.6272 H         1 UNK         0.0600 
    159 H159        5.2640  -16.8615  -44.1630 H         1 UNK         0.3000 
    160 H160        5.6126  -16.6113  -46.7512 H         1 UNK         0.0600 
    161 H161        2.8920  -17.4728  -47.8623 H         1 UNK         0.0600 
    162 H162        4.4540  -18.0665  -48.4076 H         1 UNK         0.0600 
    163 H163        4.0271  -16.3791  -48.6483 H         1 UNK         0.0600 
    164 H164        2.8819  -15.6235  -46.2822 H         1 UNK         0.3000 
    165 H165        3.7657  -13.5183  -43.5803 H         1 UNK         0.0600 
    166 H166        2.8759  -11.6742  -44.9885 H         1 UNK         0.0600 
    167 H167        4.5106  -12.0791  -45.4875 H         1 UNK         0.0600 
    168 H168        3.1424  -12.6260  -46.4498 H         1 UNK         0.0600 
    169 H169        1.3878  -13.7693  -45.1525 H         1 UNK         0.3000 
    170 H170        0.2722  -16.8360  -44.2503 H         1 UNK         0.0600 
    171 H171       -0.9177  -14.5109  -42.6562 H         1 UNK         0.0600 
    172 H172       -1.6423  -16.0987  -42.9229 H         1 UNK         0.0600 
    173 H173       -0.2111  -15.9406  -41.9227 H         1 UNK         0.0600 
    174 H174       -1.3745  -14.7161  -45.0461 H         1 UNK         0.3000 
    175 H175       -0.4173  -13.8793  -48.0913 H         1 UNK         0.0600 
    176 H176       -1.9743  -15.2791  -49.4638 H         1 UNK         0.0600 
    177 H177       -1.8596  -16.5735  -48.2731 H         1 UNK         0.0600 
    178 H178       -0.4394  -16.0790  -49.1770 H         1 UNK         0.0600 
    179 H179       -3.0309  -14.7228  -47.0190 H         1 UNK         0.3000 
    180 H180       -3.4997  -11.8365  -45.1019 H         1 UNK         0.0600 
    181 H181       -4.6730  -11.9949  -47.9283 H         1 UNK         0.0600 
    182 H182       -3.8502  -10.6119  -47.2255 H         1 UNK         0.0600 
    183 H183       -5.3894  -11.1365  -46.5644 H         1 UNK         0.0600 
    184 H184       -5.3958  -13.6798  -46.2117 H         1 UNK         0.3000 
    185 H185       -5.6255  -15.5119  -43.3598 H         1 UNK         0.0600 
    186 H186       -7.1561  -14.5006  -45.0541 H         1 UNK         0.0600 
    187 H187       -6.4276  -15.4824  -46.3250 H         1 UNK         0.0600 
    188 H188       -7.3132  -16.2461  -45.0132 H         1 UNK         0.0600 
    189 H189       -4.7416  -17.4947  -43.8710 H         1 UNK         0.3000 
    190 H190       -0.5237  -22.9368  -45.2640 H         1 UNK         0.3000 
    191 H191       -2.5768  -22.2460  -45.0209 H         1 UNK         0.0600 
    192 H192       -4.2981  -23.7356  -44.0124 H         1 UNK         0.0600 
    193 H193       -3.2782  -25.1363  -44.2970 H         1 UNK         0.0600 
    194 H194       -2.7496  -23.8696  -43.1940 H         1 UNK         0.0600 
    195 H195       -3.0643  -25.3959  -46.6527 H         1 UNK         0.3000 
    196 H196       -5.3480  -24.5285  -48.1519 H         1 UNK         0.0600 
    197 H197       -5.1443  -26.7907  -49.2011 H         1 UNK         0.0600 
    198 H198       -5.0149  -26.8801  -47.4518 H         1 UNK         0.0600 
    199 H199       -3.5665  -27.0044  -48.4504 H         1 UNK         0.0600 
    200 H200       -1.9197  -24.4285  -48.8419 H         1 UNK         0.3000 
    201 H201       -2.0056  -24.3345  -51.6881 H         1 UNK         0.0600 
    202 H202        0.1086  -23.1673  -49.8024 H         1 UNK         0.0600 
    203 H203        0.0449  -24.8563  -50.3297 H         1 UNK         0.0600 
    204 H204        0.3226  -23.5793  -51.4952 H         1 UNK         0.0600 
    205 H205       -2.8649  -21.9174  -49.3452 H         1 UNK         0.3000 
    206 H206       -3.5277  -20.0821  -51.5090 H         1 UNK         0.0600 
    207 H207       -1.2337  -19.2938  -50.7767 H         1 UNK         0.0600 
    208 H208       -2.4868  -18.1155  -50.4151 H         1 UNK         0.0600 
    209 H209       -1.8424  -19.1314  -49.1309 H         1 UNK         0.0600 
    210 H210       -5.2112  -21.7543  -50.3270 H         1 UNK         0.3000 
    211 H211       -6.4726  -21.0848  -47.9646 H         1 UNK         0.0600 
    212 H212       -7.6875  -22.2065  -50.5416 H         1 UNK         0.0600 
    213 H213       -8.4453  -22.2704  -48.9544 H         1 UNK         0.0600 
    214 H214       -6.9468  -23.1388  -49.2432 H         1 UNK         0.0600 
    215 H215       -7.2684  -19.1984  -47.3094 H         1 UNK         0.3000 
    216 H216       -8.2782  -17.2462  -47.1342 H         1 UNK         0.0600 
    217 H217      -10.3499  -16.7445  -48.3578 H         1 UNK         0.0600 
    218 H218      -10.3454  -18.4391  -47.8997 H         1 UNK         0.0600 
    219 H219       -9.9963  -17.9726  -49.5640 H         1 UNK         0.0600 
    220 H220       -5.8518  -17.4956  -48.6146 H         1 UNK         0.3000 
    221 H221       -4.3070  -16.2682  -49.4780 H         1 UNK         0.0600 
    222 H222       -6.2264  -13.9101  -49.7879 H         1 UNK         0.0600 
    223 H223       -5.3099  -14.2900  -48.3291 H         1 UNK         0.0600 
    224 H224       -4.4692  -13.8602  -49.8083 H         1 UNK         0.0600 
    225 H225       -6.5853  -17.6669  -51.1847 H         1 UNK         0.3000 
    226 H226       -5.9847  -16.6142  -53.8687 H         1 UNK         0.0600 
    227 H227       -8.2626  -17.4609  -53.3227 H         1 UNK         0.0600 
    228 H228       -7.5129  -18.4043  -54.6024 H         1 UNK         0.0600 
    229 H229       -7.6024  -19.0566  -52.9737 H         1 UNK         0.0600 
    230 H230       -3.6640  -16.8396  -53.5608 H         1 UNK         0.3000 
    231 H231       -2.2302  -19.1559  -53.0029 H         1 UNK         0.0600 
    232 H232       -1.4337  -16.7588  -54.7087 H         1 UNK         0.0600 
    233 H233       -0.3227  -17.9482  -54.0385 H         1 UNK         0.0600 
    234 H234       -1.2499  -16.9167  -52.9613 H         1 UNK         0.0600 
    235 H235       -2.1706  -21.0668  -53.9485 H         1 UNK         0.3000 
    236 H236       -2.4502  -21.4079  -56.8802 H         1 UNK         0.0600 
    237 H237       -3.7013  -22.9150  -55.3119 H         1 UNK         0.0600 
    238 H238       -2.5375  -23.8088  -56.2780 H         1 UNK         0.0600 
    239 H239       -2.1776  -23.4384  -54.5961 H         1 UNK         0.0600 
    240 H240       -0.0267  -20.7156  -54.6640 H         1 UNK         0.3000 
    241 H241        2.1040  -22.3876  -55.3915 H         1 UNK         0.0600 
    242 H242        0.8521  -19.8070  -57.3960 H         1 UNK         0.3800 
    243 H243        2.2641  -19.6777  -58.4114 H         1 UNK         0.3800 
    244 H244        3.5374  -20.7783  -54.1783 H         1 UNK         0.0800 
    245 H245        2.2828  -19.5629  -54.2344 H         1 UNK         0.0800 
    246 H246        3.7683  -20.2767  -51.6340 H         1 UNK         0.0800 
    247 H247        2.4421  -19.1406  -51.6648 H         1 UNK         0.0800 
@<TRIPOS>BOND
     1    1    2 1    
     2    1  127 1    
     3    1  128 1    
     4    1  129 1    
     5    2    3 2    
     6    2    4 am   BACKBONE|DICT|INTERRES
     7    4    5 1    
     8    4  130 1    
     9    5    6 1    
    10    5   65 1    
    11    5  131 1    
    12    6    7 1    
    13    6  132 1    
    14    6  133 1    
    15    7    8 1    
    16    8    9 1    
    17    8  134 1    
    18    8  135 1    
    19    9   10 ar   
    20    9   14 ar   
    21   10   11 ar   
    22   10  136 1    
    23   11   12 ar   
    24   11  126 1    
    25   12   13 ar   
    26   12  137 1    
    27   13   14 ar   
    28   13   15 1    
    29   14  138 1    
    30   15   16 1    
    31   15  139 1    
    32   15  140 1    
    33   16   17 1    
    34   17   18 1    
    35   17  141 1    
    36   17  142 1    
    37   18   19 1    
    38   18   67 1    
    39   18  143 1    
    40   19   20 am   BACKBONE|DICT|INTERRES
    41   19  144 1    
    42   20   21 2    
    43   20   22 1    
    44   22   23 1    
    45   22   24 1    
    46   22  145 1    
    47   23  146 1    
    48   23  147 1    
    49   23  148 1    
    50   24   25 am   BACKBONE|DICT|INTERRES
    51   24  149 1    
    52   25   26 2    
    53   25   27 1    
    54   27   28 1    
    55   27   29 1    
    56   27  150 1    
    57   28  151 1    
    58   28  152 1    
    59   28  153 1    
    60   29   30 am   BACKBONE|DICT|INTERRES
    61   29  154 1    
    62   30   31 2    
    63   30   32 1    
    64   32   33 1    
    65   32   34 1    
    66   32  155 1    
    67   33  156 1    
    68   33  157 1    
    69   33  158 1    
    70   34   35 am   BACKBONE|DICT|INTERRES
    71   34  159 1    
    72   35   36 2    
    73   35   37 1    
    74   37   38 1    
    75   37   39 1    
    76   37  160 1    
    77   38  161 1    
    78   38  162 1    
    79   38  163 1    
    80   39   40 am   BACKBONE|DICT|INTERRES
    81   39  164 1    
    82   40   41 2    
    83   40   42 1    
    84   42   43 1    
    85   42   44 1    
    86   42  165 1    
    87   43  166 1    
    88   43  167 1    
    89   43  168 1    
    90   44   45 am   BACKBONE|DICT|INTERRES
    91   44  169 1    
    92   45   46 2    
    93   45   47 1    
    94   47   48 1    
    95   47   49 1    
    96   47  170 1    
    97   48  171 1    
    98   48  172 1    
    99   48  173 1    
   100   49   50 am   BACKBONE|DICT|INTERRES
   101   49  174 1    
   102   50   51 2    
   103   50   52 1    
   104   52   53 1    
   105   52   54 1    
   106   52  175 1    
   107   53  176 1    
   108   53  177 1    
   109   53  178 1    
   110   54   55 am   BACKBONE|DICT|INTERRES
   111   54  179 1    
   112   55   56 2    
   113   55   57 1    
   114   57   58 1    
   115   57   59 1    
   116   57  180 1    
   117   58  181 1    
   118   58  182 1    
   119   58  183 1    
   120   59   60 am   BACKBONE|DICT|INTERRES
   121   59  184 1    
   122   60   61 2    
   123   60   62 1    
   124   62   63 1    
   125   62   64 1    
   126   62  185 1    
   127   63  186 1    
   128   63  187 1    
   129   63  188 1    
   130   64   65 am   BACKBONE|DICT|INTERRES
   131   64  189 1    
   132   65   66 2    
   133   67   68 2    
   134   67   69 am   BACKBONE|DICT|INTERRES
   135   69   70 1    
   136   69  190 1    
   137   70   71 1    
   138   70   72 1    
   139   70  191 1    
   140   71  192 1    
   141   71  193 1    
   142   71  194 1    
   143   72   73 2    
   144   72   74 am   BACKBONE|DICT|INTERRES
   145   74   75 1    
   146   74  195 1    
   147   75   76 1    
   148   75   77 1    
   149   75  196 1    
   150   76  197 1    
   151   76  198 1    
   152   76  199 1    
   153   77   78 2    
   154   77   79 am   BACKBONE|DICT|INTERRES
   155   79   80 1    
   156   79  200 1    
   157   80   81 1    
   158   80   82 1    
   159   80  201 1    
   160   81  202 1    
   161   81  203 1    
   162   81  204 1    
   163   82   83 2    
   164   82   84 am   BACKBONE|DICT|INTERRES
   165   84   85 1    
   166   84  205 1    
   167   85   86 1    
   168   85   87 1    
   169   85  206 1    
   170   86  207 1    
   171   86  208 1    
   172   86  209 1    
   173   87   88 2    
   174   87   89 am   BACKBONE|DICT|INTERRES
   175   89   90 1    
   176   89  210 1    
   177   90   91 1    
   178   90   92 1    
   179   90  211 1    
   180   91  212 1    
   181   91  213 1    
   182   91  214 1    
   183   92   93 2    
   184   92   94 am   BACKBONE|DICT|INTERRES
   185   94   95 1    
   186   94  215 1    
   187   95   96 1    
   188   95   97 1    
   189   95  216 1    
   190   96  217 1    
   191   96  218 1    
   192   96  219 1    
   193   97   98 2    
   194   97   99 am   BACKBONE|DICT|INTERRES
   195   99  100 1    
   196   99  220 1    
   197  100  101 1    
   198  100  102 1    
   199  100  221 1    
   200  101  222 1    
   201  101  223 1    
   202  101  224 1    
   203  102  103 2    
   204  102  104 am   BACKBONE|DICT|INTERRES
   205  104  105 1    
   206  104  225 1    
   207  105  106 1    
   208  105  107 1    
   209  105  226 1    
   210  106  227 1    
   211  106  228 1    
   212  106  229 1    
   213  107  108 2    
   214  107  109 am   BACKBONE|DICT|INTERRES
   215  109  110 1    
   216  109  230 1    
   217  110  111 1    
   218  110  112 1    
   219  110  231 1    
   220  111  232 1    
   221  111  233 1    
   222  111  234 1    
   223  112  113 2    
   224  112  114 am   BACKBONE|DICT|INTERRES
   225  114  115 1    
   226  114  235 1    
   227  115  116 1    
   228  115  117 1    
   229  115  236 1    
   230  116  237 1    
   231  116  238 1    
   232  116  239 1    
   233  117  118 2    
   234  117  119 am   BACKBONE|DICT|INTERRES
   235  119  120 1    
   236  119  240 1    
   237  120  121 1    
   238  120  124 1    
   239  120  241 1    
   240  121  122 am   BACKBONE|DICT|INTERRES
   241  121  123 2    
   242  122  242 1    
   243  122  243 1    
   244  124  125 1    
   245  124  244 1    
   246  124  245 1    
   247  125  126 1    
   248  126  246 1    
   249  126  247 1    
@<TRIPOS>SUBSTRUCTURE
     1 UNK         1 GROUP             0       ****    0 ROOT    
