@<TRIPOS>MOLECULE
3R540
247   249    1
SMALL
USER_CHARGES


@<TRIPOS>ATOM
      1 CA          1.7718  -16.3375  -46.2883 C.3       0 UNK        -0.1800 
      2 C           1.3382  -15.9901  -47.7092 C.2       0 UNK         0.5000 
      3 O           2.1724  -15.5877  -48.5155 O.2       0 UNK        -0.5000 
      4 N           0.0553  -16.1250  -48.0693 N.am      1 UNK        -0.5000 
      5 CA         -1.0745  -16.5731  -47.2444 C.3       1 UNK         0.1400 
      6 C6         -2.2119  -17.1447  -48.1243 C.3       23 UNK        -0.0398 
      7 S7         -2.8743  -15.9541  -49.3478 S.3       23 UNK        -0.2404 
      8 C8         -4.6121  -15.7981  -48.8279 C.3       23 UNK        -0.0205 
      9 C9         -5.4641  -16.9314  -49.3807 C.ar      23 UNK        -0.0193 
     10 C10        -6.1020  -16.7962  -50.6168 C.ar      23 UNK        -0.1150 
     11 C11        -6.8807  -17.8326  -51.1426 C.ar      23 UNK        -0.0193 
     12 C12        -7.0083  -19.0213  -50.4067 C.ar      23 UNK        -0.1150 
     13 C13        -6.3663  -19.1743  -49.1752 C.ar      23 UNK        -0.0193 
     14 C14        -5.6102  -18.1197  -48.6636 C.ar      23 UNK        -0.1150 
     15 C15        -6.4630  -20.4869  -48.4110 C.3       23 UNK        -0.0205 
     16 S16        -5.4766  -21.7759  -49.2292 S.3       23 UNK        -0.2404 
     17 C17        -5.3414  -23.0517  -47.9368 C.3       23 UNK        -0.0398 
     18 CA         -3.8951  -23.1346  -47.3733 C.3       11 UNK         0.1400 
     19 N          -3.6163  -22.1074  -46.3648 N.am      11 UNK        -0.5000 
     20 C          -2.9701  -20.9578  -46.5870 C.2       10 UNK         0.5000 
     21 O          -2.5841  -20.5848  -47.6964 O.2       10 UNK        -0.5000 
     22 CA         -2.6613  -20.0950  -45.3462 C.3       10 UNK         0.1400 
     23 CB         -3.8912  -19.2597  -44.9646 C.3       10 UNK        -0.1800 
     24 N          -2.1994  -20.8158  -44.1518 N.am      10 UNK        -0.5000 
     25 C          -1.2829  -21.7936  -44.0712 C.2       9 UNK         0.5000 
     26 O          -0.7791  -22.3522  -45.0514 O.2       9 UNK        -0.5000 
     27 CA         -0.8658  -22.2117  -42.6468 C.3       9 UNK         0.1400 
     28 CB          0.4529  -23.0034  -42.6189 C.3       9 UNK        -0.1800 
     29 N          -0.7037  -21.0252  -41.8145 N.am      9 UNK        -0.5000 
     30 C          -1.2505  -20.8139  -40.6099 C.2       8 UNK         0.5000 
     31 O          -1.9740  -21.6294  -40.0376 O.2       8 UNK        -0.5000 
     32 CA         -0.9470  -19.4613  -39.9245 C.3       8 UNK         0.1400 
     33 CB          0.0841  -19.6490  -38.8013 C.3       8 UNK        -0.1800 
     34 N          -0.4501  -18.4384  -40.8480 N.am      8 UNK        -0.5000 
     35 C          -1.1634  -17.8988  -41.8472 C.2       7 UNK         0.5000 
     36 O          -2.3672  -18.1003  -41.9985 O.2       7 UNK        -0.5000 
     37 CA         -0.4019  -17.0445  -42.8820 C.3       7 UNK         0.1400 
     38 CB         -0.6772  -15.5545  -42.6409 C.3       7 UNK        -0.1800 
     39 N           1.0481  -17.2763  -42.8961 N.am      7 UNK        -0.5000 
     40 C           1.6394  -18.4489  -43.1818 C.2       6 UNK         0.5000 
     41 O           1.0095  -19.4354  -43.5597 O.2       6 UNK        -0.5000 
     42 CA          3.1628  -18.5798  -42.9646 C.3       6 UNK         0.1400 
     43 CB          3.9020  -18.8046  -44.2918 C.3       6 UNK        -0.1800 
     44 N           3.7689  -17.4475  -42.2624 N.am      6 UNK        -0.5000 
     45 C           3.5573  -17.1314  -40.9769 C.2       5 UNK         0.5000 
     46 O           2.8556  -17.8020  -40.2185 O.2       5 UNK        -0.5000 
     47 CA          4.1901  -15.8175  -40.4721 C.3       5 UNK         0.1400 
     48 CB          5.5263  -16.1027  -39.7703 C.3       5 UNK        -0.1800 
     49 N           4.4021  -14.8017  -41.5139 N.am      5 UNK        -0.5000 
     50 C           3.4391  -14.2678  -42.2783 C.2       4 UNK         0.5000 
     51 O           2.2624  -14.6299  -42.2350 O.2       4 UNK        -0.5000 
     52 CA          3.8773  -13.1969  -43.2942 C.3       4 UNK         0.1400 
     53 CB          4.4858  -13.8553  -44.5413 C.3       4 UNK        -0.1800 
     54 N           2.7554  -12.3576  -43.7133 N.am      4 UNK        -0.5000 
     55 C           2.1737  -11.4157  -42.9642 C.2       3 UNK         0.5000 
     56 O           2.5738  -11.0957  -41.8437 O.2       3 UNK        -0.5000 
     57 CA          0.9414  -10.7015  -43.5566 C.3       3 UNK         0.1400 
     58 CB          1.3584   -9.6391  -44.5922 C.3       3 UNK        -0.1800 
     59 N          -0.1041  -11.5893  -44.0893 N.am      3 UNK        -0.5000 
     60 C          -0.0631  -12.4007  -45.1548 C.2       2 UNK         0.5000 
     61 O           0.9327  -12.5679  -45.8650 O.2       2 UNK        -0.5000 
     62 CA         -1.3686  -13.1406  -45.4864 C.3       2 UNK         0.1400 
     63 CB         -2.3647  -12.2137  -46.2025 C.3       2 UNK        -0.1800 
     64 N          -1.0651  -14.2715  -46.3550 N.am      2 UNK        -0.5000 
     65 C          -1.5996  -15.4943  -46.2690 C.2       1 UNK         0.5000 
     66 O          -2.4725  -15.7998  -45.4576 O.2       1 UNK        -0.5000 
     67 C          -3.5146  -24.5266  -46.8228 C.2       11 UNK         0.5000 
     68 O          -4.1362  -25.5252  -47.1878 O.2       11 UNK        -0.5000 
     69 N          -2.4845  -24.5734  -45.9658 N.am      12 UNK        -0.5000 
     70 CA         -1.9110  -25.8056  -45.4171 C.3       12 UNK         0.1400 
     71 CB         -2.1252  -25.8410  -43.8962 C.3       12 UNK        -0.1800 
     72 C          -0.4203  -25.9491  -45.7730 C.2       12 UNK         0.5000 
     73 O           0.0437  -27.0772  -45.9424 O.2       12 UNK        -0.5000 
     74 N           0.2973  -24.8245  -45.9061 N.am      13 UNK        -0.5000 
     75 CA          1.7020  -24.7809  -46.3183 C.3       13 UNK         0.1400 
     76 CB          2.6189  -24.7309  -45.0855 C.3       13 UNK        -0.1800 
     77 C           1.9835  -23.5989  -47.2583 C.2       13 UNK         0.5000 
     78 O           2.7920  -23.7487  -48.1750 O.2       13 UNK        -0.5000 
     79 N           1.3113  -22.4555  -47.0458 N.am      14 UNK        -0.5000 
     80 CA          1.4346  -21.2730  -47.9055 C.3       14 UNK         0.1400 
     81 CB          0.9418  -20.0337  -47.1490 C.3       14 UNK        -0.1800 
     82 C           0.6886  -21.4245  -49.2447 C.2       14 UNK         0.5000 
     83 O           1.0420  -20.7442  -50.2081 O.2       14 UNK        -0.5000 
     84 N          -0.3156  -22.3148  -49.2793 N.am      15 UNK        -0.5000 
     85 CA         -1.0663  -22.7678  -50.4551 C.3       15 UNK         0.1400 
     86 CB         -0.1827  -23.7097  -51.2988 C.3       15 UNK        -0.1800 
     87 C          -1.6685  -21.6189  -51.2885 C.2       15 UNK         0.5000 
     88 O          -1.4987  -21.5972  -52.5084 O.2       15 UNK        -0.5000 
     89 N          -2.3343  -20.6679  -50.6166 N.am      16 UNK        -0.5000 
     90 CA         -2.9388  -19.4636  -51.2037 C.3       16 UNK         0.1400 
     91 CB         -4.0759  -19.8360  -52.1813 C.3       16 UNK        -0.1800 
     92 C          -1.8914  -18.5290  -51.8490 C.2       16 UNK         0.5000 
     93 O          -2.1434  -17.9651  -52.9132 O.2       16 UNK        -0.5000 
     94 N          -0.7154  -18.4218  -51.2102 N.am      17 UNK        -0.5000 
     95 CA          0.4894  -17.7329  -51.6913 C.3       17 UNK         0.1400 
     96 CB          0.2538  -16.2146  -51.8412 C.3       17 UNK        -0.1800 
     97 C           1.0381  -18.3973  -52.9717 C.2       17 UNK         0.5000 
     98 O           1.3455  -17.7176  -53.9523 O.2       17 UNK        -0.5000 
     99 N           1.1128  -19.7348  -52.9274 N.am      18 UNK        -0.5000 
    100 CA         1.5253  -20.6596  -53.9874 C.3       18 UNK         0.1400 
    101 CB         3.0021  -20.4317  -54.3712 C.3       18 UNK        -0.1800 
    102 C          0.5921  -20.6967  -55.2194 C.2       18 UNK         0.5000 
    103 O          0.9829  -21.2465  -56.2507 O.2       18 UNK        -0.5000 
    104 N         -0.6280  -20.1515  -55.1032 N.am      19 UNK        -0.5000 
    105 CA        -1.6572  -20.2119  -56.1453 C.3       19 UNK         0.1400 
    106 CB        -2.6752  -19.0807  -55.9354 C.3       19 UNK        -0.1800 
    107 C         -2.3735  -21.5757  -56.2017 C.2       19 UNK         0.5000 
    108 O         -2.9527  -21.8953  -57.2392 O.2       19 UNK        -0.5000 
    109 N         -2.3124  -22.3414  -55.1001 N.am      20 UNK        -0.5000 
    110 CA        -2.9371  -23.6433  -54.8596 C.3       20 UNK         0.1400 
    111 CB        -2.4527  -24.7048  -55.8687 C.3       20 UNK        -0.1800 
    112 C         -4.4697  -23.5213  -54.8007 C.2       20 UNK         0.5000 
    113 O         -5.1479  -23.7030  -55.8136 O.2       20 UNK        -0.5000 
    114 N         -4.9788  -23.1783  -53.6067 N.am      21 UNK        -0.5000 
    115 CA        -6.4019  -23.0284  -53.2658 C.3       21 UNK         0.1400 
    116 CB        -7.0988  -24.4044  -53.2451 C.3       21 UNK        -0.1800 
    117 C         -7.1231  -21.9974  -54.1600 C.2       21 UNK         0.5000 
    118 O         -8.2088  -22.2624  -54.6791 O.2       21 UNK        -0.5000 
    119 N         -6.4647  -20.8459  -54.3343 N.am      22 UNK        -0.5000 
    120 CA        -6.8665  -19.7100  -55.1815 C.3       22 UNK         0.1400 
    121 C         -6.7001  -19.9466  -56.7137 C.2       22 UNK         0.5000 
    122 N         -6.1521  -21.0664  -57.1701 N.am      22 UNK        -0.7600 
    123 O         -7.0464  -19.0786  -57.5102 O.2       22 UNK        -0.5000 
    124 C124       -8.2652  -19.1051  -54.8430 C.3       23 UNK        -0.0398 
    125 S125       -8.6510  -18.9509  -53.0629 S.3       23 UNK        -0.2404 
    126 C126       -7.5174  -17.6261  -52.5200 C.3       23 UNK        -0.0205 
    127 H127        1.4596  -17.3422  -46.0096 H         1 UNK         0.0600 
    128 H128        1.3658  -15.6273  -45.5681 H         1 UNK         0.0600 
    129 H129        2.8575  -16.2997  -46.2170 H         1 UNK         0.0600 
    130 H130       -0.2032  -15.8636  -49.0100 H         1 UNK         0.3000 
    131 H131       -0.7291  -17.3965  -46.6181 H         1 UNK         0.0600 
    132 H132       -3.0145  -17.5238  -47.4947 H         1 UNK         0.0800 
    133 H133       -1.8430  -18.0162  -48.6636 H         1 UNK         0.0800 
    134 H134       -4.9975  -14.8420  -49.1852 H         1 UNK         0.0800 
    135 H135       -4.6775  -15.7606  -47.7392 H         1 UNK         0.0800 
    136 H136       -5.9817  -15.8805  -51.1789 H         1 UNK         0.1150 
    137 H137       -7.5787  -19.8539  -50.7897 H         1 UNK         0.1150 
    138 H138       -5.1217  -18.2324  -47.7120 H         1 UNK         0.1150 
    139 H139       -6.1126  -20.3577  -47.3858 H         1 UNK         0.0800 
    140 H140       -7.5042  -20.8062  -48.3501 H         1 UNK         0.0800 
    141 H141       -5.6447  -23.9830  -48.4169 H         1 UNK         0.0800 
    142 H142       -6.0647  -22.8752  -47.1396 H         1 UNK         0.0800 
    143 H143       -3.2068  -23.0004  -48.2081 H         1 UNK         0.0600 
    144 H144       -3.8943  -22.3295  -45.4193 H         1 UNK         0.3000 
    145 H145       -1.8655  -19.4023  -45.6203 H         1 UNK         0.0600 
    146 H146       -3.6552  -18.5373  -44.1851 H         1 UNK         0.0600 
    147 H147       -4.2600  -18.6870  -45.8106 H         1 UNK         0.0600 
    148 H148       -4.7104  -19.8845  -44.6072 H         1 UNK         0.0600 
    149 H149       -2.5336  -20.4394  -43.2753 H         1 UNK         0.3000 
    150 H150       -1.6643  -22.8454  -42.2573 H         1 UNK         0.0600 
    151 H151        0.3846  -23.9214  -43.2006 H         1 UNK         0.0600 
    152 H152        0.7171  -23.2889  -41.6007 H         1 UNK         0.0600 
    153 H153        1.2761  -22.4126  -43.0225 H         1 UNK         0.0600 
    154 H154       -0.1347  -20.2952  -42.2338 H         1 UNK         0.3000 
    155 H155       -1.8777  -19.0997  -39.4829 H         1 UNK         0.0600 
    156 H156        1.0419  -19.9975  -39.1903 H         1 UNK         0.0600 
    157 H157       -0.2607  -20.3814  -38.0701 H         1 UNK         0.0600 
    158 H158        0.2603  -18.7152  -38.2670 H         1 UNK         0.0600 
    159 H159        0.5328  -18.2085  -40.7782 H         1 UNK         0.3000 
    160 H160       -0.7867  -17.3138  -43.8669 H         1 UNK         0.0600 
    161 H161       -0.3375  -15.2372  -41.6543 H         1 UNK         0.0600 
    162 H162       -1.7441  -15.3381  -42.7076 H         1 UNK         0.0600 
    163 H163       -0.1716  -14.9387  -43.3834 H         1 UNK         0.0600 
    164 H164        1.6219  -16.4928  -42.5987 H         1 UNK         0.3000 
    165 H165        3.3101  -19.4698  -42.3491 H         1 UNK         0.0600 
    166 H166        4.9548  -19.0291  -44.1195 H         1 UNK         0.0600 
    167 H167        3.4812  -19.6480  -44.8405 H         1 UNK         0.0600 
    168 H168        3.8513  -17.9296  -44.9372 H         1 UNK         0.0600 
    169 H169        4.3526  -16.8339  -42.8110 H         1 UNK         0.3000 
    170 H170        3.5028  -15.3929  -39.7375 H         1 UNK         0.0600 
    171 H171        5.4004  -16.8354  -38.9719 H         1 UNK         0.0600 
    172 H172        6.2688  -16.4981  -40.4646 H         1 UNK         0.0600 
    173 H173        5.9357  -15.1996  -39.3175 H         1 UNK         0.0600 
    174 H174        5.3490  -14.4668  -41.6208 H         1 UNK         0.3000 
    175 H175        4.6328  -12.5628  -42.8259 H         1 UNK         0.0600 
    176 H176        3.7560  -14.4759  -45.0598 H         1 UNK         0.0600 
    177 H177        4.8442  -13.1049  -45.2461 H         1 UNK         0.0600 
    178 H178        5.3354  -14.4886  -44.2831 H         1 UNK         0.0600 
    179 H179        2.3197  -12.5748  -44.6054 H         1 UNK         0.3000 
    180 H180        0.4701  -10.1698  -42.7284 H         1 UNK         0.0600 
    181 H181        1.8508  -10.0816  -45.4585 H         1 UNK         0.0600 
    182 H182        2.0551   -8.9232  -44.1545 H         1 UNK         0.0600 
    183 H183        0.4956   -9.0763  -44.9484 H         1 UNK         0.0600 
    184 H184       -0.9691  -11.5593  -43.5675 H         1 UNK         0.3000 
    185 H185       -1.8105  -13.4891  -44.5510 H         1 UNK         0.0600 
    186 H186       -2.6274  -11.3586  -45.5788 H         1 UNK         0.0600 
    187 H187       -1.9533  -11.8272  -47.1359 H         1 UNK         0.0600 
    188 H188       -3.2901  -12.7397  -46.4385 H         1 UNK         0.0600 
    189 H189       -0.3129  -14.1065  -47.0114 H         1 UNK         0.3000 
    190 H190       -2.0137  -23.7080  -45.7278 H         1 UNK         0.3000 
    191 H191       -2.4110  -26.6800  -45.8388 H         1 UNK         0.0600 
    192 H192       -1.6776  -24.9812  -43.4028 H         1 UNK         0.0600 
    193 H193       -1.6849  -26.7381  -43.4591 H         1 UNK         0.0600 
    194 H194       -3.1875  -25.8487  -43.6520 H         1 UNK         0.0600 
    195 H195       -0.1386  -23.9316  -45.7030 H         1 UNK         0.3000 
    196 H196        1.9409  -25.6856  -46.8818 H         1 UNK         0.0600 
    197 H197        3.6670  -24.7978  -45.3797 H         1 UNK         0.0600 
    198 H198        2.4178  -25.5597  -44.4066 H         1 UNK         0.0600 
    199 H199        2.4971  -23.8015  -44.5304 H         1 UNK         0.0600 
    200 H200        0.6773  -22.3742  -46.2573 H         1 UNK         0.3000 
    201 H201        2.4905  -21.1207  -48.1392 H         1 UNK         0.0600 
    202 H202        1.5241  -19.8687  -46.2438 H         1 UNK         0.0600 
    203 H203       -0.1002  -20.1346  -46.8591 H         1 UNK         0.0600 
    204 H204        1.0296  -19.1386  -47.7654 H         1 UNK         0.0600 
    205 H205       -0.5339  -22.7813  -48.4127 H         1 UNK         0.3000 
    206 H206       -1.9100  -23.3534  -50.0909 H         1 UNK         0.0600 
    207 H207       -0.7414  -24.1362  -52.1325 H         1 UNK         0.0600 
    208 H208        0.1882  -24.5415  -50.6998 H         1 UNK         0.0600 
    209 H209        0.6804  -23.1884  -51.7136 H         1 UNK         0.0600 
    210 H210       -2.4153  -20.7484  -49.6048 H         1 UNK         0.3000 
    211 H211       -3.3850  -18.9082  -50.3792 H         1 UNK         0.0600 
    212 H212       -4.5862  -18.9423  -52.5408 H         1 UNK         0.0600 
    213 H213       -4.8245  -20.4604  -51.6988 H         1 UNK         0.0600 
    214 H214       -3.7062  -20.3729  -53.0531 H         1 UNK         0.0600 
    215 H215       -0.5786  -19.0009  -50.3939 H         1 UNK         0.3000 
    216 H216        1.2497  -17.8715  -50.9210 H         1 UNK         0.0600 
    217 H217        1.1909  -15.6974  -52.0495 H         1 UNK         0.0600 
    218 H218       -0.1580  -15.7834  -50.9305 H         1 UNK         0.0600 
    219 H219       -0.4316  -15.9848  -52.6571 H         1 UNK         0.0600 
    220 H220        0.8634  -20.1800  -52.0478 H         1 UNK         0.3000 
    221 H221        1.4563  -21.6535  -53.5437 H         1 UNK         0.0600 
    222 H222        3.1443  -19.4844  -54.8918 H         1 UNK         0.0600 
    223 H223        3.6429  -20.4306  -53.4894 H         1 UNK         0.0600 
    224 H224        3.3631  -21.2222  -55.0301 H         1 UNK         0.0600 
    225 H225       -0.8892  -19.7298  -54.2219 H         1 UNK         0.3000 
    226 H226       -1.1795  -20.0513  -57.1141 H         1 UNK         0.0600 
    227 H227       -3.2444  -19.2128  -55.0168 H         1 UNK         0.0600 
    228 H228       -2.1837  -18.1088  -55.8887 H         1 UNK         0.0600 
    229 H229       -3.3915  -19.0452  -56.7572 H         1 UNK         0.0600 
    230 H230       -1.8398  -21.9508  -54.2871 H         1 UNK         0.3000 
    231 H231       -2.5968  -23.9657  -53.8745 H         1 UNK         0.0600 
    232 H232       -1.3654  -24.7814  -55.8661 H         1 UNK         0.0600 
    233 H233       -2.7700  -24.4846  -56.8880 H         1 UNK         0.0600 
    234 H234       -2.8495  -25.6878  -55.6131 H         1 UNK         0.0600 
    235 H235       -4.3349  -23.0190  -52.8454 H         1 UNK         0.3000 
    236 H236       -6.4382  -22.6277  -52.2514 H         1 UNK         0.0600 
    237 H237       -8.1268  -24.3163  -52.8920 H         1 UNK         0.0600 
    238 H238       -6.5855  -25.0955  -52.5766 H         1 UNK         0.0600 
    239 H239       -7.1305  -24.8576  -54.2365 H         1 UNK         0.0600 
    240 H240       -5.5724  -20.7449  -53.8759 H         1 UNK         0.3000 
    241 H241       -6.1271  -18.9412  -54.9586 H         1 UNK         0.0600 
    242 H242       -6.0322  -21.1844  -58.1632 H         1 UNK         0.3800 
    243 H243       -5.8598  -21.8098  -56.5482 H         1 UNK         0.3800 
    244 H244       -8.3702  -18.1200  -55.3005 H         1 UNK         0.0800 
    245 H245       -9.0503  -19.7212  -55.2842 H         1 UNK         0.0800 
    246 H246       -8.0714  -16.6864  -52.5206 H         1 UNK         0.0800 
    247 H247       -6.7134  -17.5066  -53.2455 H         1 UNK         0.0800 
@<TRIPOS>BOND
     1    1    2 1    
     2    1  127 1    
     3    1  128 1    
     4    1  129 1    
     5    2    3 2    
     6    2    4 am   BACKBONE|DICT|INTERRES
     7    4    5 1    
     8    4  130 1    
     9    5    6 1    
    10    5   65 1    
    11    5  131 1    
    12    6    7 1    
    13    6  132 1    
    14    6  133 1    
    15    7    8 1    
    16    8    9 1    
    17    8  134 1    
    18    8  135 1    
    19    9   10 ar   
    20    9   14 ar   
    21   10   11 ar   
    22   10  136 1    
    23   11   12 ar   
    24   11  126 1    
    25   12   13 ar   
    26   12  137 1    
    27   13   14 ar   
    28   13   15 1    
    29   14  138 1    
    30   15   16 1    
    31   15  139 1    
    32   15  140 1    
    33   16   17 1    
    34   17   18 1    
    35   17  141 1    
    36   17  142 1    
    37   18   19 1    
    38   18   67 1    
    39   18  143 1    
    40   19   20 am   BACKBONE|DICT|INTERRES
    41   19  144 1    
    42   20   21 2    
    43   20   22 1    
    44   22   23 1    
    45   22   24 1    
    46   22  145 1    
    47   23  146 1    
    48   23  147 1    
    49   23  148 1    
    50   24   25 am   BACKBONE|DICT|INTERRES
    51   24  149 1    
    52   25   26 2    
    53   25   27 1    
    54   27   28 1    
    55   27   29 1    
    56   27  150 1    
    57   28  151 1    
    58   28  152 1    
    59   28  153 1    
    60   29   30 am   BACKBONE|DICT|INTERRES
    61   29  154 1    
    62   30   31 2    
    63   30   32 1    
    64   32   33 1    
    65   32   34 1    
    66   32  155 1    
    67   33  156 1    
    68   33  157 1    
    69   33  158 1    
    70   34   35 am   BACKBONE|DICT|INTERRES
    71   34  159 1    
    72   35   36 2    
    73   35   37 1    
    74   37   38 1    
    75   37   39 1    
    76   37  160 1    
    77   38  161 1    
    78   38  162 1    
    79   38  163 1    
    80   39   40 am   BACKBONE|DICT|INTERRES
    81   39  164 1    
    82   40   41 2    
    83   40   42 1    
    84   42   43 1    
    85   42   44 1    
    86   42  165 1    
    87   43  166 1    
    88   43  167 1    
    89   43  168 1    
    90   44   45 am   BACKBONE|DICT|INTERRES
    91   44  169 1    
    92   45   46 2    
    93   45   47 1    
    94   47   48 1    
    95   47   49 1    
    96   47  170 1    
    97   48  171 1    
    98   48  172 1    
    99   48  173 1    
   100   49   50 am   BACKBONE|DICT|INTERRES
   101   49  174 1    
   102   50   51 2    
   103   50   52 1    
   104   52   53 1    
   105   52   54 1    
   106   52  175 1    
   107   53  176 1    
   108   53  177 1    
   109   53  178 1    
   110   54   55 am   BACKBONE|DICT|INTERRES
   111   54  179 1    
   112   55   56 2    
   113   55   57 1    
   114   57   58 1    
   115   57   59 1    
   116   57  180 1    
   117   58  181 1    
   118   58  182 1    
   119   58  183 1    
   120   59   60 am   BACKBONE|DICT|INTERRES
   121   59  184 1    
   122   60   61 2    
   123   60   62 1    
   124   62   63 1    
   125   62   64 1    
   126   62  185 1    
   127   63  186 1    
   128   63  187 1    
   129   63  188 1    
   130   64   65 am   BACKBONE|DICT|INTERRES
   131   64  189 1    
   132   65   66 2    
   133   67   68 2    
   134   67   69 am   BACKBONE|DICT|INTERRES
   135   69   70 1    
   136   69  190 1    
   137   70   71 1    
   138   70   72 1    
   139   70  191 1    
   140   71  192 1    
   141   71  193 1    
   142   71  194 1    
   143   72   73 2    
   144   72   74 am   BACKBONE|DICT|INTERRES
   145   74   75 1    
   146   74  195 1    
   147   75   76 1    
   148   75   77 1    
   149   75  196 1    
   150   76  197 1    
   151   76  198 1    
   152   76  199 1    
   153   77   78 2    
   154   77   79 am   BACKBONE|DICT|INTERRES
   155   79   80 1    
   156   79  200 1    
   157   80   81 1    
   158   80   82 1    
   159   80  201 1    
   160   81  202 1    
   161   81  203 1    
   162   81  204 1    
   163   82   83 2    
   164   82   84 am   BACKBONE|DICT|INTERRES
   165   84   85 1    
   166   84  205 1    
   167   85   86 1    
   168   85   87 1    
   169   85  206 1    
   170   86  207 1    
   171   86  208 1    
   172   86  209 1    
   173   87   88 2    
   174   87   89 am   BACKBONE|DICT|INTERRES
   175   89   90 1    
   176   89  210 1    
   177   90   91 1    
   178   90   92 1    
   179   90  211 1    
   180   91  212 1    
   181   91  213 1    
   182   91  214 1    
   183   92   93 2    
   184   92   94 am   BACKBONE|DICT|INTERRES
   185   94   95 1    
   186   94  215 1    
   187   95   96 1    
   188   95   97 1    
   189   95  216 1    
   190   96  217 1    
   191   96  218 1    
   192   96  219 1    
   193   97   98 2    
   194   97   99 am   BACKBONE|DICT|INTERRES
   195   99  100 1    
   196   99  220 1    
   197  100  101 1    
   198  100  102 1    
   199  100  221 1    
   200  101  222 1    
   201  101  223 1    
   202  101  224 1    
   203  102  103 2    
   204  102  104 am   BACKBONE|DICT|INTERRES
   205  104  105 1    
   206  104  225 1    
   207  105  106 1    
   208  105  107 1    
   209  105  226 1    
   210  106  227 1    
   211  106  228 1    
   212  106  229 1    
   213  107  108 2    
   214  107  109 am   BACKBONE|DICT|INTERRES
   215  109  110 1    
   216  109  230 1    
   217  110  111 1    
   218  110  112 1    
   219  110  231 1    
   220  111  232 1    
   221  111  233 1    
   222  111  234 1    
   223  112  113 2    
   224  112  114 am   BACKBONE|DICT|INTERRES
   225  114  115 1    
   226  114  235 1    
   227  115  116 1    
   228  115  117 1    
   229  115  236 1    
   230  116  237 1    
   231  116  238 1    
   232  116  239 1    
   233  117  118 2    
   234  117  119 am   BACKBONE|DICT|INTERRES
   235  119  120 1    
   236  119  240 1    
   237  120  121 1    
   238  120  124 1    
   239  120  241 1    
   240  121  122 am   BACKBONE|DICT|INTERRES
   241  121  123 2    
   242  122  242 1    
   243  122  243 1    
   244  124  125 1    
   245  124  244 1    
   246  124  245 1    
   247  125  126 1    
   248  126  246 1    
   249  126  247 1    
@<TRIPOS>SUBSTRUCTURE
     1 UNK         1 GROUP             0       ****    0 ROOT    
