@<TRIPOS>MOLECULE
3R540
247   249    1
SMALL
USER_CHARGES


@<TRIPOS>ATOM
      1 CA         -1.7548  -17.3247  -52.7370 C.3       0 UNK        -0.1800 
      2 C          -0.9987  -16.5671  -51.6558 C.2       0 UNK         0.5000 
      3 O           0.0691  -16.0190  -51.9252 O.2       0 UNK        -0.5000 
      4 N          -1.5469  -16.5330  -50.4372 N.am      1 UNK        -0.5000 
      5 CA         -0.9583  -15.8863  -49.2672 C.3       1 UNK         0.1400 
      6 C6          0.2015  -16.7212  -48.6581 C.3       23 UNK        -0.0398 
      7 S7          1.4766  -15.6719  -47.8779 S.3       23 UNK        -0.2404 
      8 C8          2.7203  -15.5203  -49.2046 C.3       23 UNK        -0.0205 
      9 C9          3.2773  -16.8693  -49.6371 C.ar      23 UNK        -0.0193 
     10 C10         3.1539  -17.2881  -50.9648 C.ar      23 UNK        -0.1150 
     11 C11         3.5963  -18.5549  -51.3541 C.ar      23 UNK        -0.0193 
     12 C12         4.1823  -19.4000  -50.4073 C.ar      23 UNK        -0.1150 
     13 C13         4.3014  -18.9949  -49.0741 C.ar      23 UNK        -0.0193 
     14 C14         3.8688  -17.7205  -48.7005 C.ar      23 UNK        -0.1150 
     15 C15         4.8111  -19.9618  -48.0151 C.3       23 UNK        -0.0205 
     16 S16         3.6859  -21.3800  -47.7797 S.3       23 UNK        -0.2404 
     17 C17         2.0442  -20.5790  -47.8168 C.3       23 UNK        -0.0398 
     18 CA          0.9223  -21.5381  -47.3706 C.3       11 UNK         0.1400 
     19 N           0.9510  -21.8052  -45.9319 N.am      11 UNK        -0.5000 
     20 C           0.2219  -22.7512  -45.3252 C.2       10 UNK         0.5000 
     21 O          -0.5067  -23.5430  -45.9248 O.2       10 UNK        -0.5000 
     22 CA          0.2646  -22.7707  -43.7862 C.3       10 UNK         0.1400 
     23 CB          1.5369  -23.4609  -43.2728 C.3       10 UNK        -0.1800 
     24 N           0.1626  -21.4257  -43.2162 N.am      10 UNK        -0.5000 
     25 C          -0.9113  -20.6341  -43.3515 C.2       9 UNK         0.5000 
     26 O          -1.9497  -20.9849  -43.9111 O.2       9 UNK        -0.5000 
     27 CA         -0.7964  -19.2001  -42.8078 C.3       9 UNK         0.1400 
     28 CB         -1.0532  -19.1802  -41.2929 C.3       9 UNK        -0.1800 
     29 N           0.5004  -18.5867  -43.0963 N.am      9 UNK        -0.5000 
     30 C           0.9762  -18.3156  -44.3205 C.2       8 UNK         0.5000 
     31 O           0.3482  -18.5195  -45.3551 O.2       8 UNK        -0.5000 
     32 CA          2.4252  -17.8036  -44.4115 C.3       8 UNK         0.1400 
     33 CB          2.5109  -16.2907  -44.1685 C.3       8 UNK        -0.1800 
     34 N           3.3061  -18.4962  -43.4735 N.am      8 UNK        -0.5000 
     35 C           3.6261  -19.7946  -43.5556 C.2       7 UNK         0.5000 
     36 O           3.2298  -20.5413  -44.4495 O.2       7 UNK        -0.5000 
     37 CA          4.4984  -20.3551  -42.4187 C.3       7 UNK         0.1400 
     38 CB          5.9835  -20.0650  -42.6817 C.3       7 UNK        -0.1800 
     39 N           4.1179  -19.8131  -41.1120 N.am      7 UNK        -0.5000 
     40 C           2.9661  -20.0996  -40.4890 C.2       6 UNK         0.5000 
     41 O           2.1246  -20.8794  -40.9366 O.2       6 UNK        -0.5000 
     42 CA          2.6895  -19.3506  -39.1700 C.3       6 UNK         0.1400 
     43 CB          3.4087  -20.0337  -37.9973 C.3       6 UNK        -0.1800 
     44 N           3.0589  -17.9296  -39.2107 N.am      6 UNK        -0.5000 
     45 C           2.5172  -17.0365  -40.0483 C.2       5 UNK         0.5000 
     46 O           1.6754  -17.3329  -40.8999 O.2       5 UNK        -0.5000 
     47 CA          3.0047  -15.5828  -39.9512 C.3       5 UNK         0.1400 
     48 CB          4.4518  -15.4488  -40.4605 C.3       5 UNK        -0.1800 
     49 N           2.1119  -14.7776  -40.7752 N.am      5 UNK        -0.5000 
     50 C           1.9336  -13.4543  -40.7525 C.2       4 UNK         0.5000 
     51 O           2.5369  -12.6950  -39.9936 O.2       4 UNK        -0.5000 
     52 CA          0.9092  -12.8814  -41.7561 C.3       4 UNK         0.1400 
     53 CB          1.6330  -12.2561  -42.9587 C.3       4 UNK        -0.1800 
     54 N          -0.0343  -13.8861  -42.2563 N.am      4 UNK        -0.5000 
     55 C          -1.0693  -14.3882  -41.5737 C.2       3 UNK         0.5000 
     56 O          -1.3893  -13.9986  -40.4496 O.2       3 UNK        -0.5000 
     57 CA         -1.8643  -15.5185  -42.2669 C.3       3 UNK         0.1400 
     58 CB         -3.0012  -16.0727  -41.3894 C.3       3 UNK        -0.1800 
     59 N          -2.4231  -15.1422  -43.5692 N.am      3 UNK        -0.5000 
     60 C          -1.7293  -14.9978  -44.7039 C.2       2 UNK         0.5000 
     61 O          -0.5016  -15.0944  -44.7658 O.2       2 UNK        -0.5000 
     62 CA         -2.5355  -14.6789  -45.9722 C.3       2 UNK         0.1400 
     63 CB         -2.9571  -13.2009  -46.0016 C.3       2 UNK        -0.1800 
     64 N          -1.6968  -14.9608  -47.1317 N.am      2 UNK        -0.5000 
     65 C          -2.0751  -15.5871  -48.2487 C.2       1 UNK         0.5000 
     66 O          -3.2348  -15.9408  -48.4826 O.2       1 UNK        -0.5000 
     67 C          -0.4571  -21.0329  -47.8410 C.2       11 UNK         0.5000 
     68 O          -0.9335  -21.4930  -48.8757 O.2       11 UNK        -0.5000 
     69 N          -1.0964  -20.1394  -47.0720 N.am      12 UNK        -0.5000 
     70 CA         -2.4469  -19.6312  -47.3255 C.3       12 UNK         0.1400 
     71 CB         -2.8048  -18.5447  -46.3002 C.3       12 UNK        -0.1800 
     72 C          -3.5084  -20.7432  -47.3134 C.2       12 UNK         0.5000 
     73 O          -4.3806  -20.7534  -48.1815 O.2       12 UNK        -0.5000 
     74 N          -3.3944  -21.6749  -46.3568 N.am      13 UNK        -0.5000 
     75 CA         -4.2347  -22.8665  -46.2555 C.3       13 UNK         0.1400 
     76 CB         -3.9696  -23.5780  -44.9203 C.3       13 UNK        -0.1800 
     77 C          -4.0378  -23.8229  -47.4452 C.2       13 UNK         0.5000 
     78 O          -5.0263  -24.2768  -48.0218 O.2       13 UNK        -0.5000 
     79 N          -2.7755  -24.0709  -47.8261 N.am      14 UNK        -0.5000 
     80 CA         -2.4017  -24.8816  -48.9903 C.3       14 UNK         0.1400 
     81 CB         -0.8815  -25.1009  -48.9952 C.3       14 UNK        -0.1800 
     82 C          -2.8724  -24.2711  -50.3261 C.2       14 UNK         0.5000 
     83 O          -3.3245  -25.0017  -51.2076 O.2       14 UNK        -0.5000 
     84 N          -2.7997  -22.9382  -50.4277 N.am      15 UNK        -0.5000 
     85 CA         -3.2929  -22.1327  -51.5446 C.3       15 UNK         0.1400 
     86 CB         -2.5982  -20.7627  -51.4985 C.3       15 UNK        -0.1800 
     87 C          -4.8242  -21.9496  -51.5556 C.2       15 UNK         0.5000 
     88 O          -5.3382  -21.3191  -52.4839 O.2       15 UNK        -0.5000 
     89 N          -5.5199  -22.4620  -50.5294 N.am      16 UNK        -0.5000 
     90 CA         -6.9661  -22.3942  -50.3041 C.3       16 UNK         0.1400 
     91 CB         -7.7112  -23.2529  -51.3468 C.3       16 UNK        -0.1800 
     92 C          -7.4827  -20.9434  -50.2342 C.2       16 UNK         0.5000 
     93 O          -8.4712  -20.6068  -50.8850 O.2       16 UNK        -0.5000 
     94 N          -6.7611  -20.0913  -49.4909 N.am      17 UNK        -0.5000 
     95 CA         -6.9726  -18.6437  -49.3585 C.3       17 UNK         0.1400 
     96 CB         -8.2842  -18.3453  -48.6033 C.3       17 UNK        -0.1800 
     97 C          -6.8675  -17.9070  -50.7126 C.2       17 UNK         0.5000 
     98 O          -7.6152  -16.9630  -50.9709 O.2       17 UNK        -0.5000 
     99 N          -5.9399  -18.3882  -51.5529 N.am      18 UNK        -0.5000 
    100 CA        -5.6412  -17.9602  -52.9218 C.3       18 UNK         0.1400 
    101 CB        -5.2981  -16.4571  -52.9921 C.3       18 UNK        -0.1800 
    102 C         -6.6921  -18.3822  -53.9692 C.2       18 UNK         0.5000 
    103 O         -6.6076  -17.9243  -55.1096 O.2       18 UNK        -0.5000 
    104 N         -7.6316  -19.2708  -53.6080 N.am      19 UNK        -0.5000 
    105 CA        -8.5836  -19.8649  -54.5509 C.3       19 UNK         0.1400 
    106 CB        -9.7645  -20.4869  -53.7918 C.3       19 UNK        -0.1800 
    107 C         -7.9173  -20.9105  -55.4644 C.2       19 UNK         0.5000 
    108 O         -8.2713  -20.9950  -56.6411 O.2       19 UNK        -0.5000 
    109 N         -6.9583  -21.6696  -54.9156 N.am      20 UNK        -0.5000 
    110 CA        -6.1230  -22.6118  -55.6622 C.3       20 UNK         0.1400 
    111 CB        -5.8798  -23.8691  -54.8120 C.3       20 UNK        -0.1800 
    112 C         -4.7891  -21.9625  -56.0718 C.2       20 UNK         0.5000 
    113 O         -4.2774  -22.2751  -57.1476 O.2       20 UNK        -0.5000 
    114 N         -4.2776  -21.0610  -55.2168 N.am      21 UNK        -0.5000 
    115 CA        -3.0141  -20.3211  -55.3274 C.3       21 UNK         0.1400 
    116 CB        -2.9736  -19.4769  -56.6186 C.3       21 UNK        -0.1800 
    117 C         -1.7660  -21.2179  -55.1699 C.2       21 UNK         0.5000 
    118 O         -1.8782  -22.4381  -55.0295 O.2       21 UNK        -0.5000 
    119 N         -0.5881  -20.5836  -55.1533 N.am      22 UNK        -0.5000 
    120 CA         0.7186  -21.2588  -55.1243 C.3       22 UNK         0.1400 
    121 C          1.0342  -21.9682  -56.4711 C.2       22 UNK         0.5000 
    122 N          1.6434  -23.1453  -56.4328 N.am      22 UNK        -0.7600 
    123 O          0.7727  -21.4401  -57.5499 O.2       22 UNK        -0.5000 
    124 C124        1.8590  -20.2776  -54.7545 C.3       23 UNK        -0.0398 
    125 S125        1.7156  -19.6552  -53.0467 S.3       23 UNK        -0.2404 
    126 C126        3.4034  -19.0229  -52.7870 C.3       23 UNK        -0.0205 
    127 H127       -1.1304  -18.1212  -53.1417 H         1 UNK         0.0600 
    128 H128       -2.0284  -16.6530  -53.5505 H         1 UNK         0.0600 
    129 H129       -2.6637  -17.7729  -52.3410 H         1 UNK         0.0600 
    130 H130       -2.4677  -16.9170  -50.2660 H         1 UNK         0.3000 
    131 H131       -0.5751  -14.9178  -49.5967 H         1 UNK         0.0600 
    132 H132        0.6744  -17.3358  -49.4232 H         1 UNK         0.0800 
    133 H133       -0.1636  -17.4353  -47.9181 H         1 UNK         0.0800 
    134 H134        3.5405  -14.8935  -48.8529 H         1 UNK         0.0800 
    135 H135        2.2689  -14.9976  -50.0497 H         1 UNK         0.0800 
    136 H136        2.6805  -16.6433  -51.6922 H         1 UNK         0.1150 
    137 H137        4.5000  -20.3927  -50.6943 H         1 UNK         0.1150 
    138 H138        3.9418  -17.4065  -47.6688 H         1 UNK         0.1150 
    139 H139        5.7976  -20.3288  -48.3004 H         1 UNK         0.0800 
    140 H140        4.9346  -19.4554  -47.0563 H         1 UNK         0.0800 
    141 H141        1.8686  -20.2433  -48.8410 H         1 UNK         0.0800 
    142 H142        2.0590  -19.6826  -47.1950 H         1 UNK         0.0800 
    143 H143        1.0835  -22.4928  -47.8761 H         1 UNK         0.0600 
    144 H144        1.5705  -21.2259  -45.3738 H         1 UNK         0.3000 
    145 H145       -0.5957  -23.3462  -43.4380 H         1 UNK         0.0600 
    146 H146        1.5414  -23.5187  -42.1842 H         1 UNK         0.0600 
    147 H147        2.4388  -22.9331  -43.5821 H         1 UNK         0.0600 
    148 H148        1.6069  -24.4803  -43.6542 H         1 UNK         0.0600 
    149 H149        0.9634  -21.0824  -42.6978 H         1 UNK         0.3000 
    150 H150       -1.5637  -18.5947  -43.2936 H         1 UNK         0.0600 
    151 H151       -2.0570  -19.5400  -41.0643 H         1 UNK         0.0600 
    152 H152       -0.9660  -18.1751  -40.8832 H         1 UNK         0.0600 
    153 H153       -0.3480  -19.8141  -40.7555 H         1 UNK         0.0600 
    154 H154        1.0681  -18.3359  -42.2903 H         1 UNK         0.3000 
    155 H155        2.7887  -18.0033  -45.4216 H         1 UNK         0.0600 
    156 H156        2.0052  -15.7442  -44.9629 H         1 UNK         0.0600 
    157 H157        3.5446  -15.9456  -44.1515 H         1 UNK         0.0600 
    158 H158        2.0422  -16.0045  -43.2294 H         1 UNK         0.0600 
    159 H159        3.6371  -17.9664  -42.6825 H         1 UNK         0.3000 
    160 H160        4.3608  -21.4384  -42.3957 H         1 UNK         0.0600 
    161 H161        6.1914  -18.9943  -42.6932 H         1 UNK         0.0600 
    162 H162        6.2944  -20.4702  -43.6457 H         1 UNK         0.0600 
    163 H163        6.6150  -20.5217  -41.9194 H         1 UNK         0.0600 
    164 H164        4.7567  -19.1639  -40.6771 H         1 UNK         0.3000 
    165 H165        1.6146  -19.4061  -38.9850 H         1 UNK         0.0600 
    166 H166        3.1372  -19.5742  -37.0467 H         1 UNK         0.0600 
    167 H167        3.1387  -21.0889  -37.9350 H         1 UNK         0.0600 
    168 H168        4.4931  -19.9777  -38.1002 H         1 UNK         0.0600 
    169 H169        3.7485  -17.6221  -38.5400 H         1 UNK         0.3000 
    170 H170        2.9354  -15.2564  -38.9120 H         1 UNK         0.0600 
    171 H171        4.5436  -15.7711  -41.4985 H         1 UNK         0.0600 
    172 H172        4.7982  -14.4170  -40.4016 H         1 UNK         0.0600 
    173 H173        5.1388  -16.0512  -39.8654 H         1 UNK         0.0600 
    174 H174        1.5268  -15.3365  -41.3829 H         1 UNK         0.3000 
    175 H175        0.3474  -12.0967  -41.2454 H         1 UNK         0.0600 
    176 H176        2.2030  -13.0012  -43.5157 H         1 UNK         0.0600 
    177 H177        0.9259  -11.7924  -43.6468 H         1 UNK         0.0600 
    178 H178        2.3297  -11.4808  -42.6374 H         1 UNK         0.0600 
    179 H179        0.1186  -14.2396  -43.1978 H         1 UNK         0.3000 
    180 H180       -1.1514  -16.3271  -42.4302 H         1 UNK         0.0600 
    181 H181       -3.7742  -15.3240  -41.2128 H         1 UNK         0.0600 
    182 H182       -2.6281  -16.3946  -40.4162 H         1 UNK         0.0600 
    183 H183       -3.4715  -16.9390  -41.8551 H         1 UNK         0.0600 
    184 H184       -3.4225  -14.9993  -43.5920 H         1 UNK         0.3000 
    185 H185       -3.4227  -15.3157  -45.9817 H         1 UNK         0.0600 
    186 H186       -2.0929  -12.5362  -45.9677 H         1 UNK         0.0600 
    187 H187       -3.5198  -12.9716  -46.9068 H         1 UNK         0.0600 
    188 H188       -3.5955  -12.9553  -45.1522 H         1 UNK         0.0600 
    189 H189       -0.7085  -14.8022  -46.9693 H         1 UNK         0.3000 
    190 H190       -0.6073  -19.7413  -46.2724 H         1 UNK         0.3000 
    191 H191       -2.4449  -19.1752  -48.3174 H         1 UNK         0.0600 
    192 H192       -2.0422  -17.7692  -46.2582 H         1 UNK         0.0600 
    193 H193       -2.9164  -18.9520  -45.2963 H         1 UNK         0.0600 
    194 H194       -3.7472  -18.0619  -46.5614 H         1 UNK         0.0600 
    195 H195       -2.6825  -21.5544  -45.6420 H         1 UNK         0.3000 
    196 H196       -5.2766  -22.5395  -46.2617 H         1 UNK         0.0600 
    197 H197       -4.1773  -22.9197  -44.0766 H         1 UNK         0.0600 
    198 H198       -2.9349  -23.9100  -44.8356 H         1 UNK         0.0600 
    199 H199       -4.6068  -24.4567  -44.8130 H         1 UNK         0.0600 
    200 H200       -2.0145  -23.6831  -47.2769 H         1 UNK         0.3000 
    201 H201       -2.8841  -25.8554  -48.8840 H         1 UNK         0.0600 
    202 H202       -0.5494  -25.5839  -48.0760 H         1 UNK         0.0600 
    203 H203       -0.3389  -24.1606  -49.0931 H         1 UNK         0.0600 
    204 H204       -0.5822  -25.7404  -49.8264 H         1 UNK         0.0600 
    205 H205       -2.3316  -22.4248  -49.6840 H         1 UNK         0.3000 
    206 H206       -3.0214  -22.6275  -52.4788 H         1 UNK         0.0600 
    207 H207       -1.5176  -20.8634  -51.6049 H         1 UNK         0.0600 
    208 H208       -2.7964  -20.2433  -50.5608 H         1 UNK         0.0600 
    209 H209       -2.9429  -20.1185  -52.3030 H         1 UNK         0.0600 
    210 H210       -4.9985  -22.9345  -49.8018 H         1 UNK         0.3000 
    211 H211       -7.1476  -22.8320  -49.3217 H         1 UNK         0.0600 
    212 H212       -7.6018  -22.8552  -52.3550 H         1 UNK         0.0600 
    213 H213       -8.7784  -23.2966  -51.1271 H         1 UNK         0.0600 
    214 H214       -7.3383  -24.2771  -51.3505 H         1 UNK         0.0600 
    215 H215       -5.9331  -20.4515  -49.0157 H         1 UNK         0.3000 
    216 H216       -6.1490  -18.2712  -48.7473 H         1 UNK         0.0600 
    217 H217       -8.3750  -17.2809  -48.3844 H         1 UNK         0.0600 
    218 H218       -8.3194  -18.8756  -47.6518 H         1 UNK         0.0600 
    219 H219       -9.1616  -18.6352  -49.1821 H         1 UNK         0.0600 
    220 H220       -5.4403  -19.2120  -51.2491 H         1 UNK         0.3000 
    221 H221       -4.7401  -18.5067  -53.1971 H         1 UNK         0.0600 
    222 H222       -6.1846  -15.8331  -52.8778 H         1 UNK         0.0600 
    223 H223       -4.5869  -16.1726  -52.2168 H         1 UNK         0.0600 
    224 H224       -4.8481  -16.2051  -53.9529 H         1 UNK         0.0600 
    225 H225       -7.6649  -19.6053  -52.6523 H         1 UNK         0.3000 
    226 H226       -8.9802  -19.0689  -55.1848 H         1 UNK         0.0600 
    227 H227      -10.2231  -19.7678  -53.1128 H         1 UNK         0.0600 
    228 H228      -10.5374  -20.8203  -54.4851 H         1 UNK         0.0600 
    229 H229       -9.4583  -21.3545  -53.2073 H         1 UNK         0.0600 
    230 H230       -6.7030  -21.5121  -53.9468 H         1 UNK         0.3000 
    231 H231       -6.6365  -22.9244  -56.5739 H         1 UNK         0.0600 
    232 H232       -5.3096  -24.6105  -55.3729 H         1 UNK         0.0600 
    233 H233       -6.8206  -24.3354  -54.5193 H         1 UNK         0.0600 
    234 H234       -5.3187  -23.6489  -53.9046 H         1 UNK         0.0600 
    235 H235       -4.7577  -20.9603  -54.3299 H         1 UNK         0.3000 
    236 H236       -3.0048  -19.6225  -54.4925 H         1 UNK         0.0600 
    237 H237       -2.8427  -20.0954  -57.5069 H         1 UNK         0.0600 
    238 H238       -3.8920  -18.9021  -56.7415 H         1 UNK         0.0600 
    239 H239       -2.1501  -18.7629  -56.5988 H         1 UNK         0.0600 
    240 H240       -0.5614  -19.5833  -55.2790 H         1 UNK         0.3000 
    241 H241        0.6742  -22.0262  -54.3483 H         1 UNK         0.0600 
    242 H242        1.8677  -23.6085  -57.3001 H         1 UNK         0.3800 
    243 H243        1.8735  -23.5954  -55.5602 H         1 UNK         0.3800 
    244 H244        1.8817  -19.4300  -55.4416 H         1 UNK         0.0800 
    245 H245        2.8264  -20.7748  -54.8487 H         1 UNK         0.0800 
    246 H246        3.5930  -18.1986  -53.4761 H         1 UNK         0.0800 
    247 H247        4.1290  -19.8020  -53.0261 H         1 UNK         0.0800 
@<TRIPOS>BOND
     1    1    2 1    
     2    1  127 1    
     3    1  128 1    
     4    1  129 1    
     5    2    3 2    
     6    2    4 am   BACKBONE|DICT|INTERRES
     7    4    5 1    
     8    4  130 1    
     9    5    6 1    
    10    5   65 1    
    11    5  131 1    
    12    6    7 1    
    13    6  132 1    
    14    6  133 1    
    15    7    8 1    
    16    8    9 1    
    17    8  134 1    
    18    8  135 1    
    19    9   10 ar   
    20    9   14 ar   
    21   10   11 ar   
    22   10  136 1    
    23   11   12 ar   
    24   11  126 1    
    25   12   13 ar   
    26   12  137 1    
    27   13   14 ar   
    28   13   15 1    
    29   14  138 1    
    30   15   16 1    
    31   15  139 1    
    32   15  140 1    
    33   16   17 1    
    34   17   18 1    
    35   17  141 1    
    36   17  142 1    
    37   18   19 1    
    38   18   67 1    
    39   18  143 1    
    40   19   20 am   BACKBONE|DICT|INTERRES
    41   19  144 1    
    42   20   21 2    
    43   20   22 1    
    44   22   23 1    
    45   22   24 1    
    46   22  145 1    
    47   23  146 1    
    48   23  147 1    
    49   23  148 1    
    50   24   25 am   BACKBONE|DICT|INTERRES
    51   24  149 1    
    52   25   26 2    
    53   25   27 1    
    54   27   28 1    
    55   27   29 1    
    56   27  150 1    
    57   28  151 1    
    58   28  152 1    
    59   28  153 1    
    60   29   30 am   BACKBONE|DICT|INTERRES
    61   29  154 1    
    62   30   31 2    
    63   30   32 1    
    64   32   33 1    
    65   32   34 1    
    66   32  155 1    
    67   33  156 1    
    68   33  157 1    
    69   33  158 1    
    70   34   35 am   BACKBONE|DICT|INTERRES
    71   34  159 1    
    72   35   36 2    
    73   35   37 1    
    74   37   38 1    
    75   37   39 1    
    76   37  160 1    
    77   38  161 1    
    78   38  162 1    
    79   38  163 1    
    80   39   40 am   BACKBONE|DICT|INTERRES
    81   39  164 1    
    82   40   41 2    
    83   40   42 1    
    84   42   43 1    
    85   42   44 1    
    86   42  165 1    
    87   43  166 1    
    88   43  167 1    
    89   43  168 1    
    90   44   45 am   BACKBONE|DICT|INTERRES
    91   44  169 1    
    92   45   46 2    
    93   45   47 1    
    94   47   48 1    
    95   47   49 1    
    96   47  170 1    
    97   48  171 1    
    98   48  172 1    
    99   48  173 1    
   100   49   50 am   BACKBONE|DICT|INTERRES
   101   49  174 1    
   102   50   51 2    
   103   50   52 1    
   104   52   53 1    
   105   52   54 1    
   106   52  175 1    
   107   53  176 1    
   108   53  177 1    
   109   53  178 1    
   110   54   55 am   BACKBONE|DICT|INTERRES
   111   54  179 1    
   112   55   56 2    
   113   55   57 1    
   114   57   58 1    
   115   57   59 1    
   116   57  180 1    
   117   58  181 1    
   118   58  182 1    
   119   58  183 1    
   120   59   60 am   BACKBONE|DICT|INTERRES
   121   59  184 1    
   122   60   61 2    
   123   60   62 1    
   124   62   63 1    
   125   62   64 1    
   126   62  185 1    
   127   63  186 1    
   128   63  187 1    
   129   63  188 1    
   130   64   65 am   BACKBONE|DICT|INTERRES
   131   64  189 1    
   132   65   66 2    
   133   67   68 2    
   134   67   69 am   BACKBONE|DICT|INTERRES
   135   69   70 1    
   136   69  190 1    
   137   70   71 1    
   138   70   72 1    
   139   70  191 1    
   140   71  192 1    
   141   71  193 1    
   142   71  194 1    
   143   72   73 2    
   144   72   74 am   BACKBONE|DICT|INTERRES
   145   74   75 1    
   146   74  195 1    
   147   75   76 1    
   148   75   77 1    
   149   75  196 1    
   150   76  197 1    
   151   76  198 1    
   152   76  199 1    
   153   77   78 2    
   154   77   79 am   BACKBONE|DICT|INTERRES
   155   79   80 1    
   156   79  200 1    
   157   80   81 1    
   158   80   82 1    
   159   80  201 1    
   160   81  202 1    
   161   81  203 1    
   162   81  204 1    
   163   82   83 2    
   164   82   84 am   BACKBONE|DICT|INTERRES
   165   84   85 1    
   166   84  205 1    
   167   85   86 1    
   168   85   87 1    
   169   85  206 1    
   170   86  207 1    
   171   86  208 1    
   172   86  209 1    
   173   87   88 2    
   174   87   89 am   BACKBONE|DICT|INTERRES
   175   89   90 1    
   176   89  210 1    
   177   90   91 1    
   178   90   92 1    
   179   90  211 1    
   180   91  212 1    
   181   91  213 1    
   182   91  214 1    
   183   92   93 2    
   184   92   94 am   BACKBONE|DICT|INTERRES
   185   94   95 1    
   186   94  215 1    
   187   95   96 1    
   188   95   97 1    
   189   95  216 1    
   190   96  217 1    
   191   96  218 1    
   192   96  219 1    
   193   97   98 2    
   194   97   99 am   BACKBONE|DICT|INTERRES
   195   99  100 1    
   196   99  220 1    
   197  100  101 1    
   198  100  102 1    
   199  100  221 1    
   200  101  222 1    
   201  101  223 1    
   202  101  224 1    
   203  102  103 2    
   204  102  104 am   BACKBONE|DICT|INTERRES
   205  104  105 1    
   206  104  225 1    
   207  105  106 1    
   208  105  107 1    
   209  105  226 1    
   210  106  227 1    
   211  106  228 1    
   212  106  229 1    
   213  107  108 2    
   214  107  109 am   BACKBONE|DICT|INTERRES
   215  109  110 1    
   216  109  230 1    
   217  110  111 1    
   218  110  112 1    
   219  110  231 1    
   220  111  232 1    
   221  111  233 1    
   222  111  234 1    
   223  112  113 2    
   224  112  114 am   BACKBONE|DICT|INTERRES
   225  114  115 1    
   226  114  235 1    
   227  115  116 1    
   228  115  117 1    
   229  115  236 1    
   230  116  237 1    
   231  116  238 1    
   232  116  239 1    
   233  117  118 2    
   234  117  119 am   BACKBONE|DICT|INTERRES
   235  119  120 1    
   236  119  240 1    
   237  120  121 1    
   238  120  124 1    
   239  120  241 1    
   240  121  122 am   BACKBONE|DICT|INTERRES
   241  121  123 2    
   242  122  242 1    
   243  122  243 1    
   244  124  125 1    
   245  124  244 1    
   246  124  245 1    
   247  125  126 1    
   248  126  246 1    
   249  126  247 1    
@<TRIPOS>SUBSTRUCTURE
     1 UNK         1 GROUP             0       ****    0 ROOT    
