@<TRIPOS>MOLECULE
3R540
247   249    1
SMALL
USER_CHARGES


@<TRIPOS>ATOM
      1 CA         -5.4717  -17.2632  -48.0623 C.3       0 UNK        -0.1800 
      2 C          -4.7356  -16.0781  -48.6714 C.2       0 UNK         0.5000 
      3 O          -5.3558  -15.0605  -48.9770 O.2       0 UNK        -0.5000 
      4 N          -3.4166  -16.2131  -48.8510 N.am      1 UNK        -0.5000 
      5 CA         -2.5202  -15.1999  -49.4233 C.3       1 UNK         0.1400 
      6 C6         -1.1455  -15.8130  -49.7928 C.3       23 UNK        -0.0398 
      7 S7         -0.3308  -16.6305  -48.3748 S.3       23 UNK        -0.2404 
      8 C8          1.4267  -16.4670  -48.7990 C.3       23 UNK        -0.0205 
      9 C9          1.8265  -17.5487  -49.7845 C.ar      23 UNK        -0.0193 
     10 C10         1.8936  -17.2782  -51.1539 C.ar      23 UNK        -0.1150 
     11 C11         2.2085  -18.2971  -52.0571 C.ar      23 UNK        -0.0193 
     12 C12         2.4446  -19.5913  -51.5841 C.ar      23 UNK        -0.1150 
     13 C13         2.3842  -19.8701  -50.2163 C.ar      23 UNK        -0.0193 
     14 C14         2.0928  -18.8391  -49.3200 C.ar      23 UNK        -0.1150 
     15 C15         2.6190  -21.2857  -49.7127 C.3       23 UNK        -0.0205 
     16 S16         1.0457  -22.1419  -49.3824 S.3       23 UNK        -0.2404 
     17 C17         0.5990  -21.4696  -47.7435 C.3       23 UNK        -0.0398 
     18 CA         -0.0809  -22.5328  -46.8499 C.3       11 UNK         0.1400 
     19 N           0.2092  -22.3395  -45.4251 N.am      11 UNK        -0.5000 
     20 C          -0.0364  -23.2630  -44.4843 C.2       10 UNK         0.5000 
     21 O          -0.5317  -24.3625  -44.7249 O.2       10 UNK        -0.5000 
     22 CA          0.2767  -22.8880  -43.0266 C.3       10 UNK         0.1400 
     23 CB          1.7864  -22.9629  -42.7560 C.3       10 UNK        -0.1800 
     24 N          -0.2344  -21.5666  -42.6659 N.am      10 UNK        -0.5000 
     25 C          -1.5329  -21.2313  -42.6675 C.2       9 UNK         0.5000 
     26 O          -2.4423  -22.0192  -42.9278 O.2       9 UNK        -0.5000 
     27 CA         -1.8698  -19.7564  -42.3828 C.3       9 UNK         0.1400 
     28 CB         -1.8407  -19.4676  -40.8748 C.3       9 UNK        -0.1800 
     29 N          -0.9751  -18.8289  -43.0750 N.am      9 UNK        -0.5000 
     30 C          -0.8332  -18.7489  -44.4057 C.2       8 UNK         0.5000 
     31 O          -1.4672  -19.4291  -45.2106 O.2       8 UNK        -0.5000 
     32 CA          0.2474  -17.7873  -44.9183 C.3       8 UNK         0.1400 
     33 CB         -0.2436  -16.3310  -44.8626 C.3       8 UNK        -0.1800 
     34 N           1.4973  -17.9447  -44.1744 N.am      8 UNK        -0.5000 
     35 C           2.2702  -19.0396  -44.2412 C.2       7 UNK         0.5000 
     36 O           2.0422  -19.9909  -44.9890 O.2       7 UNK        -0.5000 
     37 CA          3.4665  -19.1111  -43.2761 C.3       7 UNK         0.1400 
     38 CB          4.7237  -18.4973  -43.9056 C.3       7 UNK        -0.1800 
     39 N           3.1849  -18.4618  -41.9953 N.am      7 UNK        -0.5000 
     40 C           2.3710  -18.9830  -41.0656 C.2       6 UNK         0.5000 
     41 O           1.8036  -20.0675  -41.1900 O.2       6 UNK        -0.5000 
     42 CA          2.1051  -18.1359  -39.8077 C.3       6 UNK         0.1400 
     43 CB          3.1786  -18.4001  -38.7419 C.3       6 UNK        -0.1800 
     44 N           2.0347  -16.6994  -40.0783 N.am      6 UNK        -0.5000 
     45 C           1.1455  -16.1145  -40.8917 C.2       5 UNK         0.5000 
     46 O           0.2767  -16.7361  -41.5039 O.2       5 UNK        -0.5000 
     47 CA          1.2487  -14.5882  -41.0797 C.3       5 UNK         0.1400 
     48 CB          2.1069  -13.8817  -40.0065 C.3       5 UNK        -0.1800 
     49 N           1.7175  -14.2197  -42.4196 N.am      5 UNK        -0.5000 
     50 C           2.8588  -14.5879  -43.0229 C.2       4 UNK         0.5000 
     51 O           3.6419  -15.4139  -42.5514 O.2       4 UNK        -0.5000 
     52 CA          3.1909  -13.9235  -44.3781 C.3       4 UNK         0.1400 
     53 CB          3.4881  -14.9647  -45.4702 C.3       4 UNK        -0.1800 
     54 N           2.1474  -13.0137  -44.8605 N.am      4 UNK        -0.5000 
     55 C           1.9909  -11.7388  -44.4860 C.2       3 UNK         0.5000 
     56 O           2.6964  -11.1931  -43.6373 O.2       3 UNK        -0.5000 
     57 CA          0.8514  -10.9335  -45.1463 C.3       3 UNK         0.1400 
     58 CB          1.3244  -10.2989  -46.4680 C.3       3 UNK        -0.1800 
     59 N          -0.4197  -11.6546  -45.3281 N.am      3 UNK        -0.5000 
     60 C          -0.6956  -12.6973  -46.1251 C.2       2 UNK         0.5000 
     61 O           0.1599  -13.2883  -46.7882 O.2       2 UNK        -0.5000 
     62 CA         -2.1634  -13.1868  -46.1314 C.3       2 UNK         0.1400 
     63 CB         -3.1847  -12.0288  -46.1680 C.3       2 UNK        -0.1800 
     64 N          -2.4362  -14.1518  -47.2022 N.am      2 UNK        -0.5000 
     65 C          -2.3530  -13.9511  -48.5278 C.2       1 UNK         0.5000 
     66 O          -2.1500  -12.8555  -49.0543 O.2       1 UNK        -0.5000 
     67 C          -1.5943  -22.6271  -47.1321 C.2       11 UNK         0.5000 
     68 O          -2.0049  -23.4369  -47.9648 O.2       11 UNK        -0.5000 
     69 N          -2.4034  -21.8316  -46.4180 N.am      12 UNK        -0.5000 
     70 CA         -3.8653  -21.8791  -46.4597 C.3       12 UNK         0.1400 
     71 CB         -4.4494  -20.7006  -45.6679 C.3       12 UNK        -0.1800 
     72 C          -4.4311  -23.2186  -45.9536 C.2       12 UNK         0.5000 
     73 O          -5.3847  -23.7304  -46.5381 O.2       12 UNK        -0.5000 
     74 N          -3.8213  -23.7799  -44.9027 N.am      13 UNK        -0.5000 
     75 CA         -4.1687  -25.0938  -44.3667 C.3       13 UNK         0.1400 
     76 CB         -3.5729  -25.2459  -42.9583 C.3       13 UNK        -0.1800 
     77 C          -3.7128  -26.2445  -45.2836 C.2       13 UNK         0.5000 
     78 O          -4.4924  -27.1639  -45.5363 O.2       13 UNK        -0.5000 
     79 N          -2.4564  -26.1865  -45.7441 N.am      14 UNK        -0.5000 
     80 CA         -1.8000  -27.2710  -46.4726 C.3       14 UNK         0.1400 
     81 CB         -0.2763  -27.1152  -46.3469 C.3       14 UNK        -0.1800 
     82 C          -2.1961  -27.3667  -47.9549 C.2       14 UNK         0.5000 
     83 O          -2.3445  -28.4806  -48.4600 O.2       14 UNK        -0.5000 
     84 N          -2.3120  -26.2196  -48.6362 N.am      15 UNK        -0.5000 
     85 CA         -2.3969  -26.1452  -50.0979 C.3       15 UNK         0.1400 
     86 CB         -0.9938  -25.8276  -50.6495 C.3       15 UNK        -0.1800 
     87 C          -3.4335  -25.1233  -50.5937 C.2       15 UNK         0.5000 
     88 O          -3.4325  -24.8044  -51.7839 O.2       15 UNK        -0.5000 
     89 N          -4.2724  -24.5936  -49.6890 N.am      16 UNK        -0.5000 
     90 CA         -5.2746  -23.5466  -49.9370 C.3       16 UNK         0.1400 
     91 CB         -6.4169  -24.0926  -50.8196 C.3       16 UNK        -0.1800 
     92 C          -4.6654  -22.2360  -50.4849 C.2       16 UNK         0.5000 
     93 O          -5.3286  -21.5235  -51.2392 O.2       16 UNK        -0.5000 
     94 N          -3.3966  -21.9681  -50.1307 N.am      17 UNK        -0.5000 
     95 CA         -2.5452  -20.8862  -50.6390 C.3       17 UNK         0.1400 
     96 CB         -2.9988  -19.5276  -50.0730 C.3       17 UNK        -0.1800 
     97 C          -2.4404  -20.9215  -52.1792 C.2       17 UNK         0.5000 
     98 O          -2.7631  -19.9449  -52.8569 O.2       17 UNK        -0.5000 
     99 N          -2.0737  -22.1042  -52.6956 N.am      18 UNK        -0.5000 
    100 CA        -2.0017  -22.4815  -54.1136 C.3       18 UNK         0.1400 
    101 CB        -0.9707  -21.6147  -54.8657 C.3       18 UNK        -0.1800 
    102 C         -3.3752  -22.5138  -54.8225 C.2       18 UNK         0.5000 
    103 O         -3.4260  -22.4869  -56.0526 O.2       18 UNK        -0.5000 
    104 N         -4.4604  -22.5684  -54.0352 N.am      19 UNK        -0.5000 
    105 CA        -5.8745  -22.6059  -54.4278 C.3       19 UNK         0.1400 
    106 CB        -6.1909  -23.9006  -55.2039 C.3       19 UNK        -0.1800 
    107 C         -6.3746  -21.3394  -55.1569 C.2       19 UNK         0.5000 
    108 O         -7.4549  -21.3696  -55.7494 O.2       19 UNK        -0.5000 
    109 N         -5.6030  -20.2472  -55.0944 N.am      20 UNK        -0.5000 
    110 CA        -5.8913  -18.9792  -55.7686 C.3       20 UNK         0.1400 
    111 CB        -5.3448  -19.0356  -57.2085 C.3       20 UNK        -0.1800 
    112 C         -5.3377  -17.7672  -54.9968 C.2       20 UNK         0.5000 
    113 O         -5.2770  -16.6720  -55.5599 O.2       20 UNK        -0.5000 
    114 N         -4.8926  -17.9792  -53.7464 N.am      21 UNK        -0.5000 
    115 CA        -4.2425  -17.0038  -52.8559 C.3       21 UNK         0.1400 
    116 CB        -5.2487  -15.9086  -52.4448 C.3       21 UNK        -0.1800 
    117 C         -2.9285  -16.4120  -53.4196 C.2       21 UNK         0.5000 
    118 O         -2.4751  -15.3703  -52.9437 O.2       21 UNK        -0.5000 
    119 N         -2.3627  -17.0670  -54.4433 N.am      22 UNK        -0.5000 
    120 CA        -1.2820  -16.5722  -55.3115 C.3       22 UNK         0.1400 
    121 C         -1.6157  -15.2373  -56.0519 C.2       22 UNK         0.5000 
    122 N         -2.8843  -14.9236  -56.2961 N.am      22 UNK        -0.7600 
    123 O         -0.7231  -14.4897  -56.4430 O.2       22 UNK        -0.5000 
    124 C124        0.1016  -16.5816  -54.6060 C.3       23 UNK        -0.0398 
    125 S125        0.6795  -18.2911  -54.3451 S.3       23 UNK        -0.2404 
    126 C126        2.2864  -18.0119  -53.5463 C.3       23 UNK        -0.0205 
    127 H127       -4.7950  -18.0849  -47.8278 H         1 UNK         0.0600 
    128 H128       -6.2251  -17.6331  -48.7577 H         1 UNK         0.0600 
    129 H129       -5.9724  -16.9624  -47.1421 H         1 UNK         0.0600 
    130 H130       -2.9599  -17.0658  -48.5611 H         1 UNK         0.3000 
    131 H131       -2.9780  -14.8484  -50.3485 H         1 UNK         0.0600 
    132 H132       -1.2691  -16.5516  -50.5855 H         1 UNK         0.0800 
    133 H133       -0.4885  -15.0466  -50.2079 H         1 UNK         0.0800 
    134 H134        1.6340  -15.4709  -49.1928 H         1 UNK         0.0800 
    135 H135        2.0190  -16.5650  -47.8882 H         1 UNK         0.0800 
    136 H136        1.6867  -16.2817  -51.5176 H         1 UNK         0.1150 
    137 H137        2.6675  -20.3840  -52.2845 H         1 UNK         0.1150 
    138 H138        2.0397  -19.0433  -48.2603 H         1 UNK         0.1150 
    139 H139        3.1743  -21.8584  -50.4570 H         1 UNK         0.0800 
    140 H140        3.2435  -21.2722  -48.8184 H         1 UNK         0.0800 
    141 H141       -0.0159  -20.5746  -47.8607 H         1 UNK         0.0800 
    142 H142        1.5196  -21.1369  -47.2654 H         1 UNK         0.0800 
    143 H143        0.3441  -23.5063  -47.1061 H         1 UNK         0.0600 
    144 H144        0.6383  -21.4591  -45.1583 H         1 UNK         0.3000 
    145 H145       -0.2171  -23.6199  -42.3840 H         1 UNK         0.0600 
    146 H146        2.0072  -22.7858  -41.7034 H         1 UNK         0.0600 
    147 H147        2.1796  -23.9484  -43.0084 H         1 UNK         0.0600 
    148 H148        2.3387  -22.2291  -43.3427 H         1 UNK         0.0600 
    149 H149        0.4521  -20.8771  -42.3756 H         1 UNK         0.3000 
    150 H150       -2.8824  -19.5704  -42.7460 H         1 UNK         0.0600 
    151 H151       -2.5316  -20.1199  -40.3394 H         1 UNK         0.0600 
    152 H152       -2.1339  -18.4387  -40.6648 H         1 UNK         0.0600 
    153 H153       -0.8477  -19.6239  -40.4534 H         1 UNK         0.0600 
    154 H154       -0.4329  -18.1967  -42.4918 H         1 UNK         0.3000 
    155 H155        0.4445  -18.0422  -45.9609 H         1 UNK         0.0600 
    156 H156       -1.1993  -16.2292  -45.3768 H         1 UNK         0.0600 
    157 H157        0.4531  -15.6572  -45.3566 H         1 UNK         0.0600 
    158 H158       -0.3882  -15.9773  -43.8435 H         1 UNK         0.0600 
    159 H159        1.7139  -17.2416  -43.4833 H         1 UNK         0.3000 
    160 H160        3.6737  -20.1667  -43.0881 H         1 UNK         0.0600 
    161 H161        4.6085  -17.4282  -44.0716 H         1 UNK         0.0600 
    162 H162        4.9455  -18.9592  -44.8686 H         1 UNK         0.0600 
    163 H163        5.5943  -18.6433  -43.2660 H         1 UNK         0.0600 
    164 H164        3.5707  -17.5354  -41.8536 H         1 UNK         0.3000 
    165 H165        1.1392  -18.4436  -39.4023 H         1 UNK         0.0600 
    166 H166        2.9519  -17.8741  -37.8144 H         1 UNK         0.0600 
    167 H167        3.2395  -19.4632  -38.5047 H         1 UNK         0.0600 
    168 H168        4.1663  -18.0811  -39.0772 H         1 UNK         0.0600 
    169 H169        2.7332  -16.1198  -39.6364 H         1 UNK         0.3000 
    170 H170        0.2312  -14.2051  -40.9905 H         1 UNK         0.0600 
    171 H171        1.7499  -14.1103  -39.0014 H         1 UNK         0.0600 
    172 H172        3.1582  -14.1662  -40.0623 H         1 UNK         0.0600 
    173 H173        2.0563  -12.7990  -40.1237 H         1 UNK         0.0600 
    174 H174        1.1342  -13.5640  -42.9178 H         1 UNK         0.3000 
    175 H175        4.1031  -13.3429  -44.2261 H         1 UNK         0.0600 
    176 H176        2.6994  -15.7098  -45.5572 H         1 UNK         0.0600 
    177 H177        3.6111  -14.4932  -46.4455 H         1 UNK         0.0600 
    178 H178        4.4167  -15.4924  -45.2559 H         1 UNK         0.0600 
    179 H179        1.5242  -13.3605  -45.5875 H         1 UNK         0.3000 
    180 H180        0.6219  -10.1149  -44.4621 H         1 UNK         0.0600 
    181 H181        1.5901  -11.0517  -47.2107 H         1 UNK         0.0600 
    182 H182        2.2058   -9.6767  -46.3074 H         1 UNK         0.0600 
    183 H183        0.5514   -9.6621  -46.8982 H         1 UNK         0.0600 
    184 H184       -1.1879  -11.2747  -44.7927 H         1 UNK         0.3000 
    185 H185       -2.3083  -13.7305  -45.1969 H         1 UNK         0.0600 
    186 H186       -3.1525  -11.4382  -45.2523 H         1 UNK         0.0600 
    187 H187       -3.0009  -11.3509  -47.0022 H         1 UNK         0.0600 
    188 H188       -4.2027  -12.4066  -46.2653 H         1 UNK         0.0600 
    189 H189       -2.5866  -15.1026  -46.9001 H         1 UNK         0.3000 
    190 H190       -1.9927  -21.1358  -45.7997 H         1 UNK         0.3000 
    191 H191       -4.1734  -21.7610  -47.4983 H         1 UNK         0.0600 
    192 H192       -4.1021  -19.7477  -46.0669 H         1 UNK         0.0600 
    193 H193       -5.5388  -20.6971  -45.7188 H         1 UNK         0.0600 
    194 H194       -4.1694  -20.7436  -44.6155 H         1 UNK         0.0600 
    195 H195       -3.0790  -23.2721  -44.4329 H         1 UNK         0.3000 
    196 H196       -5.2556  -25.1510  -44.2758 H         1 UNK         0.0600 
    197 H197       -3.8286  -26.2149  -42.5280 H         1 UNK         0.0600 
    198 H198       -3.9562  -24.4790  -42.2851 H         1 UNK         0.0600 
    199 H199       -2.4855  -25.1662  -42.9671 H         1 UNK         0.0600 
    200 H200       -1.8610  -25.4141  -45.4521 H         1 UNK         0.3000 
    201 H201       -2.0740  -28.2158  -45.9978 H         1 UNK         0.0600 
    202 H202        0.0365  -27.1287  -45.3026 H         1 UNK         0.0600 
    203 H203        0.0702  -26.1795  -46.7878 H         1 UNK         0.0600 
    204 H204        0.2445  -27.9294  -46.8526 H         1 UNK         0.0600 
    205 H205       -2.1740  -25.3331  -48.1576 H         1 UNK         0.3000 
    206 H206       -2.7161  -27.1044  -50.5097 H         1 UNK         0.0600 
    207 H207       -0.2691  -26.5807  -50.3400 H         1 UNK         0.0600 
    208 H208       -0.9884  -25.8071  -51.7400 H         1 UNK         0.0600 
    209 H209       -0.6379  -24.8580  -50.2984 H         1 UNK         0.0600 
    210 H210       -4.1917  -24.9044  -48.7308 H         1 UNK         0.3000 
    211 H211       -5.7134  -23.2854  -48.9767 H         1 UNK         0.0600 
    212 H212       -6.0702  -24.3581  -51.8181 H         1 UNK         0.0600 
    213 H213       -7.2147  -23.3577  -50.9331 H         1 UNK         0.0600 
    214 H214       -6.8620  -24.9827  -50.3753 H         1 UNK         0.0600 
    215 H215       -2.9408  -22.6213  -49.4999 H         1 UNK         0.3000 
    216 H216       -1.5401  -21.0728  -50.2620 H         1 UNK         0.0600 
    217 H217       -2.3514  -18.7254  -50.4271 H         1 UNK         0.0600 
    218 H218       -2.9514  -19.5266  -48.9839 H         1 UNK         0.0600 
    219 H219       -4.0211  -19.2864  -50.3638 H         1 UNK         0.0600 
    220 H220       -1.9122  -22.8655  -52.0504 H         1 UNK         0.3000 
    221 H221       -1.6376  -23.5097  -54.1267 H         1 UNK         0.0600 
    222 H222       -1.3199  -20.5898  -54.9934 H         1 UNK         0.0600 
    223 H223       -0.0189  -21.5806  -54.3354 H         1 UNK         0.0600 
    224 H224       -0.7731  -22.0155  -55.8603 H         1 UNK         0.0600 
    225 H225       -4.3007  -22.5654  -53.0363 H         1 UNK         0.3000 
    226 H226       -6.4400  -22.6410  -53.4967 H         1 UNK         0.0600 
    227 H227       -5.8485  -24.7797  -54.6577 H         1 UNK         0.0600 
    228 H228       -7.2645  -24.0147  -55.3571 H         1 UNK         0.0600 
    229 H229       -5.7188  -23.9099  -56.1866 H         1 UNK         0.0600 
    230 H230       -4.7186  -20.3174  -54.6097 H         1 UNK         0.3000 
    231 H231       -6.9723  -18.8323  -55.8136 H         1 UNK         0.0600 
    232 H232       -4.2618  -19.1636  -57.2189 H         1 UNK         0.0600 
    233 H233       -5.5754  -18.1220  -57.7578 H         1 UNK         0.0600 
    234 H234       -5.7837  -19.8630  -57.7662 H         1 UNK         0.0600 
    235 H235       -4.9603  -18.9129  -53.3661 H         1 UNK         0.3000 
    236 H236       -3.9610  -17.5452  -51.9541 H         1 UNK         0.0600 
    237 H237       -6.1424  -16.3436  -51.9977 H         1 UNK         0.0600 
    238 H238       -4.8208  -15.2304  -51.7082 H         1 UNK         0.0600 
    239 H239       -5.5594  -15.3009  -53.2947 H         1 UNK         0.0600 
    240 H240       -2.7748  -17.9474  -54.7127 H         1 UNK         0.3000 
    241 H241       -1.2245  -17.2918  -56.1290 H         1 UNK         0.0600 
    242 H242       -3.0959  -14.0676  -56.7835 H         1 UNK         0.3800 
    243 H243       -3.6416  -15.5297  -55.9979 H         1 UNK         0.3800 
    244 H244        0.8562  -16.0779  -55.2117 H         1 UNK         0.0800 
    245 H245        0.0632  -16.0527  -53.6531 H         1 UNK         0.0800 
    246 H246        3.0261  -18.6669  -54.0092 H         1 UNK         0.0800 
    247 H247        2.6340  -16.9929  -53.7225 H         1 UNK         0.0800 
@<TRIPOS>BOND
     1    1    2 1    
     2    1  127 1    
     3    1  128 1    
     4    1  129 1    
     5    2    3 2    
     6    2    4 am   BACKBONE|DICT|INTERRES
     7    4    5 1    
     8    4  130 1    
     9    5    6 1    
    10    5   65 1    
    11    5  131 1    
    12    6    7 1    
    13    6  132 1    
    14    6  133 1    
    15    7    8 1    
    16    8    9 1    
    17    8  134 1    
    18    8  135 1    
    19    9   10 ar   
    20    9   14 ar   
    21   10   11 ar   
    22   10  136 1    
    23   11   12 ar   
    24   11  126 1    
    25   12   13 ar   
    26   12  137 1    
    27   13   14 ar   
    28   13   15 1    
    29   14  138 1    
    30   15   16 1    
    31   15  139 1    
    32   15  140 1    
    33   16   17 1    
    34   17   18 1    
    35   17  141 1    
    36   17  142 1    
    37   18   19 1    
    38   18   67 1    
    39   18  143 1    
    40   19   20 am   BACKBONE|DICT|INTERRES
    41   19  144 1    
    42   20   21 2    
    43   20   22 1    
    44   22   23 1    
    45   22   24 1    
    46   22  145 1    
    47   23  146 1    
    48   23  147 1    
    49   23  148 1    
    50   24   25 am   BACKBONE|DICT|INTERRES
    51   24  149 1    
    52   25   26 2    
    53   25   27 1    
    54   27   28 1    
    55   27   29 1    
    56   27  150 1    
    57   28  151 1    
    58   28  152 1    
    59   28  153 1    
    60   29   30 am   BACKBONE|DICT|INTERRES
    61   29  154 1    
    62   30   31 2    
    63   30   32 1    
    64   32   33 1    
    65   32   34 1    
    66   32  155 1    
    67   33  156 1    
    68   33  157 1    
    69   33  158 1    
    70   34   35 am   BACKBONE|DICT|INTERRES
    71   34  159 1    
    72   35   36 2    
    73   35   37 1    
    74   37   38 1    
    75   37   39 1    
    76   37  160 1    
    77   38  161 1    
    78   38  162 1    
    79   38  163 1    
    80   39   40 am   BACKBONE|DICT|INTERRES
    81   39  164 1    
    82   40   41 2    
    83   40   42 1    
    84   42   43 1    
    85   42   44 1    
    86   42  165 1    
    87   43  166 1    
    88   43  167 1    
    89   43  168 1    
    90   44   45 am   BACKBONE|DICT|INTERRES
    91   44  169 1    
    92   45   46 2    
    93   45   47 1    
    94   47   48 1    
    95   47   49 1    
    96   47  170 1    
    97   48  171 1    
    98   48  172 1    
    99   48  173 1    
   100   49   50 am   BACKBONE|DICT|INTERRES
   101   49  174 1    
   102   50   51 2    
   103   50   52 1    
   104   52   53 1    
   105   52   54 1    
   106   52  175 1    
   107   53  176 1    
   108   53  177 1    
   109   53  178 1    
   110   54   55 am   BACKBONE|DICT|INTERRES
   111   54  179 1    
   112   55   56 2    
   113   55   57 1    
   114   57   58 1    
   115   57   59 1    
   116   57  180 1    
   117   58  181 1    
   118   58  182 1    
   119   58  183 1    
   120   59   60 am   BACKBONE|DICT|INTERRES
   121   59  184 1    
   122   60   61 2    
   123   60   62 1    
   124   62   63 1    
   125   62   64 1    
   126   62  185 1    
   127   63  186 1    
   128   63  187 1    
   129   63  188 1    
   130   64   65 am   BACKBONE|DICT|INTERRES
   131   64  189 1    
   132   65   66 2    
   133   67   68 2    
   134   67   69 am   BACKBONE|DICT|INTERRES
   135   69   70 1    
   136   69  190 1    
   137   70   71 1    
   138   70   72 1    
   139   70  191 1    
   140   71  192 1    
   141   71  193 1    
   142   71  194 1    
   143   72   73 2    
   144   72   74 am   BACKBONE|DICT|INTERRES
   145   74   75 1    
   146   74  195 1    
   147   75   76 1    
   148   75   77 1    
   149   75  196 1    
   150   76  197 1    
   151   76  198 1    
   152   76  199 1    
   153   77   78 2    
   154   77   79 am   BACKBONE|DICT|INTERRES
   155   79   80 1    
   156   79  200 1    
   157   80   81 1    
   158   80   82 1    
   159   80  201 1    
   160   81  202 1    
   161   81  203 1    
   162   81  204 1    
   163   82   83 2    
   164   82   84 am   BACKBONE|DICT|INTERRES
   165   84   85 1    
   166   84  205 1    
   167   85   86 1    
   168   85   87 1    
   169   85  206 1    
   170   86  207 1    
   171   86  208 1    
   172   86  209 1    
   173   87   88 2    
   174   87   89 am   BACKBONE|DICT|INTERRES
   175   89   90 1    
   176   89  210 1    
   177   90   91 1    
   178   90   92 1    
   179   90  211 1    
   180   91  212 1    
   181   91  213 1    
   182   91  214 1    
   183   92   93 2    
   184   92   94 am   BACKBONE|DICT|INTERRES
   185   94   95 1    
   186   94  215 1    
   187   95   96 1    
   188   95   97 1    
   189   95  216 1    
   190   96  217 1    
   191   96  218 1    
   192   96  219 1    
   193   97   98 2    
   194   97   99 am   BACKBONE|DICT|INTERRES
   195   99  100 1    
   196   99  220 1    
   197  100  101 1    
   198  100  102 1    
   199  100  221 1    
   200  101  222 1    
   201  101  223 1    
   202  101  224 1    
   203  102  103 2    
   204  102  104 am   BACKBONE|DICT|INTERRES
   205  104  105 1    
   206  104  225 1    
   207  105  106 1    
   208  105  107 1    
   209  105  226 1    
   210  106  227 1    
   211  106  228 1    
   212  106  229 1    
   213  107  108 2    
   214  107  109 am   BACKBONE|DICT|INTERRES
   215  109  110 1    
   216  109  230 1    
   217  110  111 1    
   218  110  112 1    
   219  110  231 1    
   220  111  232 1    
   221  111  233 1    
   222  111  234 1    
   223  112  113 2    
   224  112  114 am   BACKBONE|DICT|INTERRES
   225  114  115 1    
   226  114  235 1    
   227  115  116 1    
   228  115  117 1    
   229  115  236 1    
   230  116  237 1    
   231  116  238 1    
   232  116  239 1    
   233  117  118 2    
   234  117  119 am   BACKBONE|DICT|INTERRES
   235  119  120 1    
   236  119  240 1    
   237  120  121 1    
   238  120  124 1    
   239  120  241 1    
   240  121  122 am   BACKBONE|DICT|INTERRES
   241  121  123 2    
   242  122  242 1    
   243  122  243 1    
   244  124  125 1    
   245  124  244 1    
   246  124  245 1    
   247  125  126 1    
   248  126  246 1    
   249  126  247 1    
@<TRIPOS>SUBSTRUCTURE
     1 UNK         1 GROUP             0       ****    0 ROOT    
