@<TRIPOS>MOLECULE
3R540
247   249    1
SMALL
USER_CHARGES


@<TRIPOS>ATOM
      1 CA          5.6548  -13.2594  -48.0017 C.3       0 UNK        -0.1800 
      2 C           4.4685  -13.9359  -47.3295 C.2       0 UNK         0.5000 
      3 O           4.1259  -13.5784  -46.2038 O.2       0 UNK        -0.5000 
      4 N           3.8486  -14.9014  -48.0236 N.am      1 UNK        -0.5000 
      5 CA          2.7074  -15.7130  -47.5737 C.3       1 UNK         0.1400 
      6 C6          1.4043  -14.8970  -47.3392 C.3       23 UNK        -0.0398 
      7 S7          0.8526  -14.0306  -48.8511 S.3       23 UNK        -0.2404 
      8 C8         -0.9223  -14.4687  -48.9447 C.3       23 UNK        -0.0205 
      9 C9         -1.2643  -15.9257  -49.2738 C.ar      23 UNK        -0.0193 
     10 C10        -2.6133  -16.2920  -49.3188 C.ar      23 UNK        -0.1150 
     11 C11        -2.9938  -17.6045  -49.6137 C.ar      23 UNK        -0.0193 
     12 C12        -2.0096  -18.5758  -49.8116 C.ar      23 UNK        -0.1150 
     13 C13        -0.6566  -18.2295  -49.7830 C.ar      23 UNK        -0.0193 
     14 C14        -0.2962  -16.9008  -49.5446 C.ar      23 UNK        -0.1150 
     15 C15         0.4113  -19.2904  -50.0258 C.3       23 UNK        -0.0205 
     16 S16         1.6889  -19.3622  -48.7175 S.3       23 UNK        -0.2404 
     17 C17         0.7065  -19.5104  -47.1851 C.3       23 UNK        -0.0398 
     18 CA          0.4676  -20.9714  -46.7408 C.3       11 UNK         0.1400 
     19 N           0.1496  -21.0579  -45.3120 N.am      11 UNK        -0.5000 
     20 C          -0.0429  -22.1979  -44.6327 C.2       10 UNK         0.5000 
     21 O           0.1121  -23.3182  -45.1176 O.2       10 UNK        -0.5000 
     22 CA         -0.5686  -22.0624  -43.1947 C.3       10 UNK         0.1400 
     23 CB          0.5819  -21.8281  -42.2036 C.3       10 UNK        -0.1800 
     24 N          -1.5492  -20.9798  -43.0946 N.am      10 UNK        -0.5000 
     25 C          -2.8153  -21.0721  -43.5283 C.2       9 UNK         0.5000 
     26 O          -3.3024  -22.1063  -43.9842 O.2       9 UNK        -0.5000 
     27 CA         -3.6743  -19.7921  -43.4731 C.3       9 UNK         0.1400 
     28 CB         -4.3633  -19.6644  -42.1066 C.3       9 UNK        -0.1800 
     29 N          -2.9088  -18.5730  -43.7411 N.am      9 UNK        -0.5000 
     30 C          -2.3475  -18.2719  -44.9210 C.2       8 UNK         0.5000 
     31 O          -2.4772  -18.9636  -45.9277 O.2       8 UNK        -0.5000 
     32 CA         -1.4351  -17.0303  -44.9738 C.3       8 UNK         0.1400 
     33 CB         -2.2228  -15.8002  -45.4425 C.3       8 UNK        -0.1800 
     34 N          -0.7676  -16.7338  -43.7032 N.am      8 UNK        -0.5000 
     35 C           0.0482  -17.5778  -43.0518 C.2       7 UNK         0.5000 
     36 O           0.3179  -18.7040  -43.4732 O.2       7 UNK        -0.5000 
     37 CA          0.6169  -17.1287  -41.6917 C.3       7 UNK         0.1400 
     38 CB          2.1288  -17.3964  -41.6023 C.3       7 UNK        -0.1800 
     39 N           0.3619  -15.7130  -41.4220 N.am      7 UNK        -0.5000 
     40 C          -0.6610  -15.2261  -40.7054 C.2       6 UNK         0.5000 
     41 O          -1.5160  -15.9369  -40.1767 O.2       6 UNK        -0.5000 
     42 CA         -0.7603  -13.6917  -40.5549 C.3       6 UNK         0.1400 
     43 CB         -0.2180  -13.2545  -39.1854 C.3       6 UNK        -0.1800 
     44 N          -0.0505  -12.9491  -41.5988 N.am      6 UNK        -0.5000 
     45 C          -0.4174  -12.8928  -42.8866 C.2       5 UNK         0.5000 
     46 O          -1.4543  -13.3968  -43.3164 O.2       5 UNK        -0.5000 
     47 CA          0.5597  -12.2050  -43.8673 C.3       5 UNK         0.1400 
     48 CB          0.1400  -10.7479  -44.1103 C.3       5 UNK        -0.1800 
     49 N           1.9715  -12.2368  -43.4556 N.am      5 UNK        -0.5000 
     50 C           2.6627  -13.3528  -43.1860 C.2       4 UNK         0.5000 
     51 O           2.1586  -14.4752  -43.2111 O.2       4 UNK        -0.5000 
     52 CA          4.1231  -13.1965  -42.7384 C.3       4 UNK         0.1400 
     53 CB          4.1819  -12.5132  -41.3547 C.3       4 UNK        -0.1800 
     54 N           4.7074  -14.5347  -42.6799 N.am      4 UNK        -0.5000 
     55 C           5.9739  -14.8615  -42.4063 C.2       3 UNK         0.5000 
     56 O           6.8669  -14.0402  -42.1943 O.2       3 UNK        -0.5000 
     57 CA          6.3036  -16.3673  -42.3525 C.3       3 UNK         0.1400 
     58 CB          6.0699  -16.9173  -40.9369 C.3       3 UNK        -0.1800 
     59 N           5.5516  -17.1816  -43.3125 N.am      3 UNK        -0.5000 
     60 C           5.7102  -17.1173  -44.6408 C.2       2 UNK         0.5000 
     61 O           6.4867  -16.3351  -45.1933 O.2       2 UNK        -0.5000 
     62 CA          4.9141  -18.1035  -45.5188 C.3       2 UNK         0.1400 
     63 CB          4.0231  -19.1128  -44.7537 C.3       2 UNK        -0.1800 
     64 N           4.1793  -17.3633  -46.5454 N.am      2 UNK        -0.5000 
     65 C           3.0968  -16.5922  -46.3683 C.2       1 UNK         0.5000 
     66 O           2.4415  -16.5493  -45.3302 O.2       1 UNK        -0.5000 
     67 C          -0.6166  -21.6543  -47.6014 C.2       11 UNK         0.5000 
     68 O          -0.2851  -22.4820  -48.4476 O.2       11 UNK        -0.5000 
     69 N          -1.8896  -21.3405  -47.3218 N.am      12 UNK        -0.5000 
     70 CA         -3.0692  -21.9178  -47.9655 C.3       12 UNK         0.1400 
     71 CB         -4.3207  -21.1751  -47.4741 C.3       12 UNK        -0.1800 
     72 C          -3.2356  -23.4307  -47.7351 C.2       12 UNK         0.5000 
     73 O          -3.8578  -24.0917  -48.5658 O.2       12 UNK        -0.5000 
     74 N          -2.6984  -23.9516  -46.6246 N.am      13 UNK        -0.5000 
     75 CA         -2.6606  -25.3821  -46.3299 C.3       13 UNK         0.1400 
     76 CB         -2.5528  -25.5941  -44.8118 C.3       13 UNK        -0.1800 
     77 C          -1.5055  -26.0787  -47.0711 C.2       13 UNK         0.5000 
     78 O          -1.7018  -27.1707  -47.6054 O.2       13 UNK        -0.5000 
     79 N          -0.3278  -25.4377  -47.0923 N.am      14 UNK        -0.5000 
     80 CA          0.8831  -25.9255  -47.7545 C.3       14 UNK         0.1400 
     81 CB          2.0812  -25.0669  -47.3187 C.3       14 UNK        -0.1800 
     82 C           0.7562  -25.9516  -49.2888 C.2       14 UNK         0.5000 
     83 O           1.0977  -26.9574  -49.9126 O.2       14 UNK        -0.5000 
     84 N           0.2495  -24.8548  -49.8594 N.am      15 UNK        -0.5000 
     85 CA         -0.0720  -24.6951  -51.2700 C.3       15 UNK         0.1400 
     86 CB          0.7511  -23.5285  -51.8447 C.3       15 UNK        -0.1800 
     87 C          -1.5771  -24.4205  -51.3390 C.2       15 UNK         0.5000 
     88 O          -1.9840  -23.2844  -51.0950 O.2       15 UNK        -0.5000 
     89 N          -2.3526  -25.4809  -51.6150 N.am      16 UNK        -0.5000 
     90 CA         -3.8182  -25.6010  -51.5788 C.3       16 UNK         0.1400 
     91 CB         -4.2191  -26.8594  -52.3679 C.3       16 UNK        -0.1800 
     92 C          -4.5937  -24.3630  -52.0741 C.2       16 UNK         0.5000 
     93 O          -4.8785  -24.2473  -53.2685 O.2       16 UNK        -0.5000 
     94 N          -4.8679  -23.4393  -51.1427 N.am      17 UNK        -0.5000 
     95 CA         -5.4913  -22.1269  -51.3399 C.3       17 UNK         0.1400 
     96 CB         -7.0068  -22.2983  -51.5686 C.3       17 UNK        -0.1800 
     97 C          -4.8009  -21.2711  -52.4267 C.2       17 UNK         0.5000 
     98 O          -5.4854  -20.5903  -53.1886 O.2       17 UNK        -0.5000 
     99 N          -3.4632  -21.3567  -52.5033 N.am      18 UNK        -0.5000 
    100 CA        -2.5948  -20.7643  -53.5292 C.3       18 UNK         0.1400 
    101 CB        -2.5760  -19.2257  -53.4254 C.3       18 UNK        -0.1800 
    102 C         -2.9365  -21.2638  -54.9495 C.2       18 UNK         0.5000 
    103 O         -3.0120  -20.4679  -55.8857 O.2       18 UNK        -0.5000 
    104 N         -3.1745  -22.5787  -55.0692 N.am      19 UNK        -0.5000 
    105 CA        -3.6806  -23.2798  -56.2553 C.3       19 UNK         0.1400 
    106 CB        -2.6738  -23.2162  -57.4234 C.3       19 UNK        -0.1800 
    107 C         -5.0962  -22.7934  -56.6295 C.2       19 UNK         0.5000 
    108 O         -5.3614  -22.4568  -57.7844 O.2       19 UNK        -0.5000 
    109 N         -5.9634  -22.7411  -55.6086 N.am      20 UNK        -0.5000 
    110 CA        -7.3609  -22.2919  -55.6158 C.3       20 UNK         0.1400 
    111 CB        -8.2148  -23.1521  -56.5697 C.3       20 UNK        -0.1800 
    112 C         -7.5752  -20.7803  -55.8545 C.2       20 UNK         0.5000 
    113 O         -8.7278  -20.3446  -55.8845 O.2       20 UNK        -0.5000 
    114 N         -6.4995  -19.9891  -55.9781 N.am      21 UNK        -0.5000 
    115 CA        -6.5483  -18.5383  -56.1852 C.3       21 UNK         0.1400 
    116 CB        -5.1409  -18.0163  -56.5053 C.3       21 UNK        -0.1800 
    117 C         -7.1605  -17.7605  -55.0028 C.2       21 UNK         0.5000 
    118 O         -7.7881  -16.7242  -55.2266 O.2       21 UNK        -0.5000 
    119 N         -6.9999  -18.2821  -53.7802 N.am      22 UNK        -0.5000 
    120 CA        -7.6426  -17.7719  -52.5576 C.3       22 UNK         0.1400 
    121 C         -9.1230  -18.2311  -52.3868 C.2       22 UNK         0.5000 
    122 N         -9.6911  -19.0406  -53.2746 N.am      22 UNK        -0.7600 
    123 O         -9.7804  -17.8342  -51.4285 O.2       22 UNK        -0.5000 
    124 C124       -6.8123  -18.0840  -51.2833 C.3       23 UNK        -0.0398 
    125 S125       -5.1259  -17.3951  -51.3454 S.3       23 UNK        -0.2404 
    126 C126       -4.4656  -17.9627  -49.7479 C.3       23 UNK        -0.0205 
    127 H127        5.8349  -13.6531  -49.0024 H         1 UNK         0.0600 
    128 H128        6.5564  -13.4123  -47.4083 H         1 UNK         0.0600 
    129 H129        5.4773  -12.1871  -48.0850 H         1 UNK         0.0600 
    130 H130        4.1863  -15.1189  -48.9505 H         1 UNK         0.3000 
    131 H131        2.5205  -16.4169  -48.3823 H         1 UNK         0.0600 
    132 H132        0.6042  -15.5569  -47.0019 H         1 UNK         0.0800 
    133 H133        1.5431  -14.1636  -46.5440 H         1 UNK         0.0800 
    134 H134       -1.3954  -14.1956  -48.0007 H         1 UNK         0.0800 
    135 H135       -1.3779  -13.8352  -49.7069 H         1 UNK         0.0800 
    136 H136       -3.3765  -15.5456  -49.1477 H         1 UNK         0.1150 
    137 H137       -2.2984  -19.5953  -50.0241 H         1 UNK         0.1150 
    138 H138        0.7482  -16.6441  -49.5691 H         1 UNK         0.1150 
    139 H139       -0.0420  -20.2766  -50.1339 H         1 UNK         0.0800 
    140 H140        0.8999  -19.0793  -50.9777 H         1 UNK         0.0800 
    141 H141       -0.2301  -18.9629  -47.2783 H         1 UNK         0.0800 
    142 H142        1.2680  -18.9870  -46.4103 H         1 UNK         0.0800 
    143 H143        1.3973  -21.5270  -46.8811 H         1 UNK         0.0600 
    144 H144        0.0447  -20.1825  -44.8091 H         1 UNK         0.3000 
    145 H145       -1.0566  -23.0015  -42.9248 H         1 UNK         0.0600 
    146 H146        0.2100  -21.7276  -41.1840 H         1 UNK         0.0600 
    147 H147        1.2769  -22.6685  -42.2147 H         1 UNK         0.0600 
    148 H148        1.1547  -20.9320  -42.4418 H         1 UNK         0.0600 
    149 H149       -1.1917  -20.0776  -42.8099 H         1 UNK         0.3000 
    150 H150       -4.4481  -19.8798  -44.2387 H         1 UNK         0.0600 
    151 H151       -5.0367  -18.8075  -42.0830 H         1 UNK         0.0600 
    152 H152       -4.9594  -20.5510  -41.8860 H         1 UNK         0.0600 
    153 H153       -3.6395  -19.5458  -41.2993 H         1 UNK         0.0600 
    154 H154       -2.7533  -17.9496  -42.9626 H         1 UNK         0.3000 
    155 H155       -0.6544  -17.2308  -45.7087 H         1 UNK         0.0600 
    156 H156       -2.9785  -15.5045  -44.7139 H         1 UNK         0.0600 
    157 H157       -2.7337  -15.9983  -46.3854 H         1 UNK         0.0600 
    158 H158       -1.5613  -14.9493  -45.6043 H         1 UNK         0.0600 
    159 H159       -0.9297  -15.8185  -43.3069 H         1 UNK         0.3000 
    160 H160        0.1302  -17.7394  -40.9289 H         1 UNK         0.0600 
    161 H161        2.6724  -16.9020  -42.4066 H         1 UNK         0.0600 
    162 H162        2.3415  -18.4637  -41.6736 H         1 UNK         0.0600 
    163 H163        2.5355  -17.0470  -40.6535 H         1 UNK         0.0600 
    164 H164        0.9879  -15.0700  -41.9015 H         1 UNK         0.3000 
    165 H165       -1.8180  -13.4250  -40.6057 H         1 UNK         0.0600 
    166 H166       -0.3496  -12.1833  -39.0322 H         1 UNK         0.0600 
    167 H167       -0.7427  -13.7638  -38.3760 H         1 UNK         0.0600 
    168 H168        0.8440  -13.4817  -39.0825 H         1 UNK         0.0600 
    169 H169        0.8174  -12.5091  -41.3316 H         1 UNK         0.3000 
    170 H170        0.4870  -12.7417  -44.8151 H         1 UNK         0.0600 
    171 H171       -0.8974  -10.6899  -44.4430 H         1 UNK         0.0600 
    172 H172        0.2283  -10.1478  -43.2038 H         1 UNK         0.0600 
    173 H173        0.7530  -10.2839  -44.8832 H         1 UNK         0.0600 
    174 H174        2.4423  -11.3453  -43.4004 H         1 UNK         0.3000 
    175 H175        4.6591  -12.6036  -43.4816 H         1 UNK         0.0600 
    176 H176        3.6770  -13.1092  -40.5933 H         1 UNK         0.0600 
    177 H177        5.2080  -12.3530  -41.0253 H         1 UNK         0.0600 
    178 H178        3.7046  -11.5330  -41.3744 H         1 UNK         0.0600 
    179 H179        4.0390  -15.2642  -42.9014 H         1 UNK         0.3000 
    180 H180        7.3655  -16.4764  -42.5834 H         1 UNK         0.0600 
    181 H181        5.0206  -16.8535  -40.6478 H         1 UNK         0.0600 
    182 H182        6.6464  -16.3558  -40.2005 H         1 UNK         0.0600 
    183 H183        6.3775  -17.9604  -40.8615 H         1 UNK         0.0600 
    184 H184        4.8977  -17.8496  -42.9326 H         1 UNK         0.3000 
    185 H185        5.6621  -18.6891  -46.0551 H         1 UNK         0.0600 
    186 H186        4.6239  -19.7450  -44.0991 H         1 UNK         0.0600 
    187 H187        3.2659  -18.6300  -44.1371 H         1 UNK         0.0600 
    188 H188        3.5052  -19.7755  -45.4470 H         1 UNK         0.0600 
    189 H189        4.6552  -17.2946  -47.4336 H         1 UNK         0.3000 
    190 H190       -2.0720  -20.5971  -46.6506 H         1 UNK         0.3000 
    191 H191       -2.9700  -21.7570  -49.0404 H         1 UNK         0.0600 
    192 H192       -4.2430  -20.1036  -47.6515 H         1 UNK         0.0600 
    193 H193       -5.2172  -21.5296  -47.9833 H         1 UNK         0.0600 
    194 H194       -4.4749  -21.3200  -46.4046 H         1 UNK         0.0600 
    195 H195       -2.2310  -23.3354  -45.9744 H         1 UNK         0.3000 
    196 H196       -3.5964  -25.8371  -46.6620 H         1 UNK         0.0600 
    197 H197       -2.5789  -26.6563  -44.5656 H         1 UNK         0.0600 
    198 H198       -3.3820  -25.1176  -44.2883 H         1 UNK         0.0600 
    199 H199       -1.6262  -25.1881  -44.4068 H         1 UNK         0.0600 
    200 H200       -0.2423  -24.5610  -46.5868 H         1 UNK         0.3000 
    201 H201        1.0604  -26.9488  -47.4175 H         1 UNK         0.0600 
    202 H202        2.2234  -25.1095  -46.2387 H         1 UNK         0.0600 
    203 H203        1.9495  -24.0203  -47.5957 H         1 UNK         0.0600 
    204 H204        3.0035  -25.4174  -47.7835 H         1 UNK         0.0600 
    205 H205       -0.0166  -24.0669  -49.2682 H         1 UNK         0.3000 
    206 H206        0.1570  -25.5977  -51.8401 H         1 UNK         0.0600 
    207 H207        1.8177  -23.7504  -51.8128 H         1 UNK         0.0600 
    208 H208        0.4865  -23.3396  -52.8857 H         1 UNK         0.0600 
    209 H209        0.5888  -22.6035  -51.2893 H         1 UNK         0.0600 
    210 H210       -1.8740  -26.3525  -51.7893 H         1 UNK         0.3000 
    211 H211       -4.0991  -25.7736  -50.5392 H         1 UNK         0.0600 
    212 H212       -3.8902  -26.8048  -53.4066 H         1 UNK         0.0600 
    213 H213       -5.3021  -26.9902  -52.3732 H         1 UNK         0.0600 
    214 H214       -3.7880  -27.7580  -51.9263 H         1 UNK         0.0600 
    215 H215       -4.5297  -23.6299  -50.2006 H         1 UNK         0.3000 
    216 H216       -5.3594  -21.5759  -50.4090 H         1 UNK         0.0600 
    217 H217       -7.5072  -21.3422  -51.7235 H         1 UNK         0.0600 
    218 H218       -7.4776  -22.7698  -50.7061 H         1 UNK         0.0600 
    219 H219       -7.2129  -22.9231  -52.4361 H         1 UNK         0.0600 
    220 H220       -2.9931  -21.9950  -51.8617 H         1 UNK         0.3000 
    221 H221       -1.5851  -21.1195  -53.3180 H         1 UNK         0.0600 
    222 H222       -3.5619  -18.7938  -53.5927 H         1 UNK         0.0600 
    223 H223       -2.2341  -18.9005  -52.4466 H         1 UNK         0.0600 
    224 H224       -1.8978  -18.7886  -54.1588 H         1 UNK         0.0600 
    225 H225       -3.1692  -23.1322  -54.2226 H         1 UNK         0.3000 
    226 H226       -3.7832  -24.3280  -55.9704 H         1 UNK         0.0600 
    227 H227       -1.6900  -23.5694  -57.1149 H         1 UNK         0.0600 
    228 H228       -3.0008  -23.8473  -58.2504 H         1 UNK         0.0600 
    229 H229       -2.5603  -22.2046  -57.8136 H         1 UNK         0.0600 
    230 H230       -5.6215  -23.0580  -54.7058 H         1 UNK         0.3000 
    231 H231       -7.7295  -22.4758  -54.6077 H         1 UNK         0.0600 
    232 H232       -7.9639  -22.9723  -57.6152 H         1 UNK         0.0600 
    233 H233       -9.2764  -22.9327  -56.4498 H         1 UNK         0.0600 
    234 H234       -8.0812  -24.2151  -56.3689 H         1 UNK         0.0600 
    235 H235       -5.5826  -20.4051  -55.8884 H         1 UNK         0.3000 
    236 H236       -7.1798  -18.3550  -57.0569 H         1 UNK         0.0600 
    237 H237       -4.7128  -18.5319  -57.3652 H         1 UNK         0.0600 
    238 H238       -5.1637  -16.9516  -56.7408 H         1 UNK         0.0600 
    239 H239       -4.4633  -18.1498  -55.6627 H         1 UNK         0.0600 
    240 H240       -6.4518  -19.1344  -53.6735 H         1 UNK         0.3000 
    241 H241       -7.6905  -16.6845  -52.6400 H         1 UNK         0.0600 
    242 H242      -10.6515  -19.3154  -53.1428 H         1 UNK         0.3800 
    243 H243       -9.1914  -19.3592  -54.0957 H         1 UNK         0.3800 
    244 H244       -7.3017  -17.6733  -50.3984 H         1 UNK         0.0800 
    245 H245       -6.7466  -19.1601  -51.1256 H         1 UNK         0.0800 
    246 H246       -5.0334  -17.5155  -48.9307 H         1 UNK         0.0800 
    247 H247       -4.6025  -19.0417  -49.6762 H         1 UNK         0.0800 
@<TRIPOS>BOND
     1    1    2 1    
     2    1  127 1    
     3    1  128 1    
     4    1  129 1    
     5    2    3 2    
     6    2    4 am   BACKBONE|DICT|INTERRES
     7    4    5 1    
     8    4  130 1    
     9    5    6 1    
    10    5   65 1    
    11    5  131 1    
    12    6    7 1    
    13    6  132 1    
    14    6  133 1    
    15    7    8 1    
    16    8    9 1    
    17    8  134 1    
    18    8  135 1    
    19    9   10 ar   
    20    9   14 ar   
    21   10   11 ar   
    22   10  136 1    
    23   11   12 ar   
    24   11  126 1    
    25   12   13 ar   
    26   12  137 1    
    27   13   14 ar   
    28   13   15 1    
    29   14  138 1    
    30   15   16 1    
    31   15  139 1    
    32   15  140 1    
    33   16   17 1    
    34   17   18 1    
    35   17  141 1    
    36   17  142 1    
    37   18   19 1    
    38   18   67 1    
    39   18  143 1    
    40   19   20 am   BACKBONE|DICT|INTERRES
    41   19  144 1    
    42   20   21 2    
    43   20   22 1    
    44   22   23 1    
    45   22   24 1    
    46   22  145 1    
    47   23  146 1    
    48   23  147 1    
    49   23  148 1    
    50   24   25 am   BACKBONE|DICT|INTERRES
    51   24  149 1    
    52   25   26 2    
    53   25   27 1    
    54   27   28 1    
    55   27   29 1    
    56   27  150 1    
    57   28  151 1    
    58   28  152 1    
    59   28  153 1    
    60   29   30 am   BACKBONE|DICT|INTERRES
    61   29  154 1    
    62   30   31 2    
    63   30   32 1    
    64   32   33 1    
    65   32   34 1    
    66   32  155 1    
    67   33  156 1    
    68   33  157 1    
    69   33  158 1    
    70   34   35 am   BACKBONE|DICT|INTERRES
    71   34  159 1    
    72   35   36 2    
    73   35   37 1    
    74   37   38 1    
    75   37   39 1    
    76   37  160 1    
    77   38  161 1    
    78   38  162 1    
    79   38  163 1    
    80   39   40 am   BACKBONE|DICT|INTERRES
    81   39  164 1    
    82   40   41 2    
    83   40   42 1    
    84   42   43 1    
    85   42   44 1    
    86   42  165 1    
    87   43  166 1    
    88   43  167 1    
    89   43  168 1    
    90   44   45 am   BACKBONE|DICT|INTERRES
    91   44  169 1    
    92   45   46 2    
    93   45   47 1    
    94   47   48 1    
    95   47   49 1    
    96   47  170 1    
    97   48  171 1    
    98   48  172 1    
    99   48  173 1    
   100   49   50 am   BACKBONE|DICT|INTERRES
   101   49  174 1    
   102   50   51 2    
   103   50   52 1    
   104   52   53 1    
   105   52   54 1    
   106   52  175 1    
   107   53  176 1    
   108   53  177 1    
   109   53  178 1    
   110   54   55 am   BACKBONE|DICT|INTERRES
   111   54  179 1    
   112   55   56 2    
   113   55   57 1    
   114   57   58 1    
   115   57   59 1    
   116   57  180 1    
   117   58  181 1    
   118   58  182 1    
   119   58  183 1    
   120   59   60 am   BACKBONE|DICT|INTERRES
   121   59  184 1    
   122   60   61 2    
   123   60   62 1    
   124   62   63 1    
   125   62   64 1    
   126   62  185 1    
   127   63  186 1    
   128   63  187 1    
   129   63  188 1    
   130   64   65 am   BACKBONE|DICT|INTERRES
   131   64  189 1    
   132   65   66 2    
   133   67   68 2    
   134   67   69 am   BACKBONE|DICT|INTERRES
   135   69   70 1    
   136   69  190 1    
   137   70   71 1    
   138   70   72 1    
   139   70  191 1    
   140   71  192 1    
   141   71  193 1    
   142   71  194 1    
   143   72   73 2    
   144   72   74 am   BACKBONE|DICT|INTERRES
   145   74   75 1    
   146   74  195 1    
   147   75   76 1    
   148   75   77 1    
   149   75  196 1    
   150   76  197 1    
   151   76  198 1    
   152   76  199 1    
   153   77   78 2    
   154   77   79 am   BACKBONE|DICT|INTERRES
   155   79   80 1    
   156   79  200 1    
   157   80   81 1    
   158   80   82 1    
   159   80  201 1    
   160   81  202 1    
   161   81  203 1    
   162   81  204 1    
   163   82   83 2    
   164   82   84 am   BACKBONE|DICT|INTERRES
   165   84   85 1    
   166   84  205 1    
   167   85   86 1    
   168   85   87 1    
   169   85  206 1    
   170   86  207 1    
   171   86  208 1    
   172   86  209 1    
   173   87   88 2    
   174   87   89 am   BACKBONE|DICT|INTERRES
   175   89   90 1    
   176   89  210 1    
   177   90   91 1    
   178   90   92 1    
   179   90  211 1    
   180   91  212 1    
   181   91  213 1    
   182   91  214 1    
   183   92   93 2    
   184   92   94 am   BACKBONE|DICT|INTERRES
   185   94   95 1    
   186   94  215 1    
   187   95   96 1    
   188   95   97 1    
   189   95  216 1    
   190   96  217 1    
   191   96  218 1    
   192   96  219 1    
   193   97   98 2    
   194   97   99 am   BACKBONE|DICT|INTERRES
   195   99  100 1    
   196   99  220 1    
   197  100  101 1    
   198  100  102 1    
   199  100  221 1    
   200  101  222 1    
   201  101  223 1    
   202  101  224 1    
   203  102  103 2    
   204  102  104 am   BACKBONE|DICT|INTERRES
   205  104  105 1    
   206  104  225 1    
   207  105  106 1    
   208  105  107 1    
   209  105  226 1    
   210  106  227 1    
   211  106  228 1    
   212  106  229 1    
   213  107  108 2    
   214  107  109 am   BACKBONE|DICT|INTERRES
   215  109  110 1    
   216  109  230 1    
   217  110  111 1    
   218  110  112 1    
   219  110  231 1    
   220  111  232 1    
   221  111  233 1    
   222  111  234 1    
   223  112  113 2    
   224  112  114 am   BACKBONE|DICT|INTERRES
   225  114  115 1    
   226  114  235 1    
   227  115  116 1    
   228  115  117 1    
   229  115  236 1    
   230  116  237 1    
   231  116  238 1    
   232  116  239 1    
   233  117  118 2    
   234  117  119 am   BACKBONE|DICT|INTERRES
   235  119  120 1    
   236  119  240 1    
   237  120  121 1    
   238  120  124 1    
   239  120  241 1    
   240  121  122 am   BACKBONE|DICT|INTERRES
   241  121  123 2    
   242  122  242 1    
   243  122  243 1    
   244  124  125 1    
   245  124  244 1    
   246  124  245 1    
   247  125  126 1    
   248  126  246 1    
   249  126  247 1    
@<TRIPOS>SUBSTRUCTURE
     1 UNK         1 GROUP             0       ****    0 ROOT    
