@<TRIPOS>MOLECULE
3R540
247   249    1
SMALL
USER_CHARGES


@<TRIPOS>ATOM
      1 CA          0.8390  -12.4667  -47.8601 C.3       0 UNK        -0.1800 
      2 C           2.0716  -12.2879  -48.7352 C.2       0 UNK         0.5000 
      3 O           2.3157  -11.1928  -49.2413 O.2       0 UNK        -0.5000 
      4 N           2.8433  -13.3674  -48.9193 N.am      1 UNK        -0.5000 
      5 CA          4.0740  -13.4044  -49.7202 C.3       1 UNK         0.1400 
      6 C6          4.4982  -14.8595  -50.0668 C.3       23 UNK        -0.0398 
      7 S7          5.0628  -15.8949  -48.6616 S.3       23 UNK        -0.2404 
      8 C8          3.5237  -16.5835  -47.9745 C.3       23 UNK        -0.0205 
      9 C9          2.9775  -17.7472  -48.7856 C.ar      23 UNK        -0.0193 
     10 C10         2.0454  -17.5298  -49.8035 C.ar      23 UNK        -0.1150 
     11 C11         1.4827  -18.6064  -50.4944 C.ar      23 UNK        -0.0193 
     12 C12         1.8528  -19.9104  -50.1513 C.ar      23 UNK        -0.1150 
     13 C13         2.7887  -20.1440  -49.1385 C.ar      23 UNK        -0.0193 
     14 C14         3.3616  -19.0537  -48.4745 C.ar      23 UNK        -0.1150 
     15 C15         3.1598  -21.5789  -48.7701 C.3       23 UNK        -0.0205 
     16 S16         3.2879  -21.8949  -46.9718 S.3       23 UNK        -0.2404 
     17 C17         1.7156  -21.2252  -46.3239 C.3       23 UNK        -0.0398 
     18 CA          0.6094  -22.2837  -46.1166 C.3       11 UNK         0.1400 
     19 N          -0.4894  -21.7447  -45.3160 N.am      11 UNK        -0.5000 
     20 C          -1.5108  -22.4598  -44.8278 C.2       10 UNK         0.5000 
     21 O          -1.6021  -23.6834  -44.9315 O.2       10 UNK        -0.5000 
     22 CA         -2.6372  -21.6662  -44.1396 C.3       10 UNK         0.1400 
     23 CB         -2.2685  -21.3497  -42.6826 C.3       10 UNK        -0.1800 
     24 N          -2.9721  -20.4237  -44.8400 N.am      10 UNK        -0.5000 
     25 C          -3.4722  -20.3665  -46.0833 C.2       9 UNK         0.5000 
     26 O          -3.7199  -21.3583  -46.7670 O.2       9 UNK        -0.5000 
     27 CA         -3.6998  -18.9669  -46.6800 C.3       9 UNK         0.1400 
     28 CB         -4.9505  -18.3191  -46.0648 C.3       9 UNK        -0.1800 
     29 N          -2.5497  -18.0772  -46.5105 N.am      9 UNK        -0.5000 
     30 C          -1.3129  -18.3198  -46.9706 C.2       8 UNK         0.5000 
     31 O          -1.0069  -19.3183  -47.6171 O.2       8 UNK        -0.5000 
     32 CA         -0.2133  -17.3180  -46.5770 C.3       8 UNK         0.1400 
     33 CB         -0.3098  -16.0301  -47.4053 C.3       8 UNK        -0.1800 
     34 N          -0.2471  -16.9872  -45.1531 N.am      8 UNK        -0.5000 
     35 C          -0.0917  -17.8740  -44.1593 C.2       7 UNK         0.5000 
     36 O           0.1657  -19.0651  -44.3323 O.2       7 UNK        -0.5000 
     37 CA         -0.3282  -17.3506  -42.7337 C.3       7 UNK         0.1400 
     38 CB          0.9080  -16.6101  -42.2003 C.3       7 UNK        -0.1800 
     39 N          -1.4993  -16.4756  -42.6740 N.am      7 UNK        -0.5000 
     40 C          -2.7631  -16.9000  -42.8200 C.2       6 UNK         0.5000 
     41 O          -3.0733  -18.0819  -42.9696 O.2       6 UNK        -0.5000 
     42 CA         -3.8592  -15.8181  -42.8375 C.3       6 UNK         0.1400 
     43 CB         -4.2808  -15.4534  -41.4064 C.3       6 UNK        -0.1800 
     44 N          -3.4426  -14.6052  -43.5433 N.am      6 UNK        -0.5000 
     45 C          -3.2191  -14.5344  -44.8636 C.2       5 UNK         0.5000 
     46 O          -3.3891  -15.4763  -45.6352 O.2       5 UNK        -0.5000 
     47 CA         -2.6629  -13.2031  -45.4047 C.3       5 UNK         0.1400 
     48 CB         -3.8081  -12.2558  -45.7907 C.3       5 UNK        -0.1800 
     49 N          -1.7639  -12.5274  -44.4636 N.am      5 UNK        -0.5000 
     50 C          -0.6036  -13.0382  -44.0323 C.2       4 UNK         0.5000 
     51 O          -0.1757  -14.1423  -44.3798 O.2       4 UNK        -0.5000 
     52 CA          0.1654  -12.2079  -42.9869 C.3       4 UNK         0.1400 
     53 CB         -0.3662  -12.5160  -41.5780 C.3       4 UNK        -0.1800 
     54 N           1.6004  -12.4895  -43.0165 N.am      4 UNK        -0.5000 
     55 C           2.4130  -12.1635  -44.0279 C.2       3 UNK         0.5000 
     56 O           2.0641  -11.4719  -44.9895 O.2       3 UNK        -0.5000 
     57 CA          3.8474  -12.7137  -43.9621 C.3       3 UNK         0.1400 
     58 CB          3.8573  -14.2513  -43.8190 C.3       3 UNK        -0.1800 
     59 N           4.5337  -12.3297  -45.1899 N.am      3 UNK        -0.5000 
     60 C           5.8535  -12.3321  -45.4089 C.2       2 UNK         0.5000 
     61 O           6.6868  -12.5916  -44.5392 O.2       2 UNK        -0.5000 
     62 CA          6.2929  -12.0573  -46.8607 C.3       2 UNK         0.1400 
     63 CB          7.7374  -12.5221  -47.1445 C.3       2 UNK        -0.1800 
     64 N           5.3467  -12.7267  -47.7508 N.am      2 UNK        -0.5000 
     65 C           5.2128  -12.5824  -49.0731 C.2       1 UNK         0.5000 
     66 O           5.9050  -11.8327  -49.7632 O.2       1 UNK        -0.5000 
     67 C           0.0934  -22.8487  -47.4547 C.2       11 UNK         0.5000 
     68 O           0.3750  -24.0019  -47.7769 O.2       11 UNK        -0.5000 
     69 N          -0.6812  -22.0441  -48.1929 N.am      12 UNK        -0.5000 
     70 CA         -1.2555  -22.3916  -49.4905 C.3       12 UNK         0.1400 
     71 CB         -1.9146  -21.1486  -50.0895 C.3       12 UNK        -0.1800 
     72 C          -2.2462  -23.5659  -49.4327 C.2       12 UNK         0.5000 
     73 O          -2.2725  -24.3736  -50.3633 O.2       12 UNK        -0.5000 
     74 N          -3.0050  -23.6707  -48.3321 N.am      13 UNK        -0.5000 
     75 CA         -3.8910  -24.7940  -48.0252 C.3       13 UNK         0.1400 
     76 CB         -4.6676  -24.5062  -46.7309 C.3       13 UNK        -0.1800 
     77 C          -3.1390  -26.1311  -47.8951 C.2       13 UNK         0.5000 
     78 O          -3.6471  -27.1571  -48.3453 O.2       13 UNK        -0.5000 
     79 N          -1.9405  -26.0960  -47.3003 N.am      14 UNK        -0.5000 
     80 CA         -1.0641  -27.2569  -47.1680 C.3       14 UNK         0.1400 
     81 CB         -0.0976  -27.0326  -45.9942 C.3       14 UNK        -0.1800 
     82 C          -0.2925  -27.5445  -48.4682 C.2       14 UNK         0.5000 
     83 O          -0.1816  -28.7049  -48.8652 O.2       14 UNK        -0.5000 
     84 N           0.2420  -26.4872  -49.0927 N.am      15 UNK        -0.5000 
     85 CA          1.1389  -26.5693  -50.2430 C.3       15 UNK         0.1400 
     86 CB          1.8860  -25.2349  -50.3988 C.3       15 UNK        -0.1800 
     87 C           0.4418  -26.9474  -51.5607 C.2       15 UNK         0.5000 
     88 O           1.0023  -27.7360  -52.3237 O.2       15 UNK        -0.5000 
     89 N          -0.7326  -26.3599  -51.8274 N.am      16 UNK        -0.5000 
     90 CA         -1.3907  -26.4262  -53.1371 C.3       16 UNK         0.1400 
     91 CB         -1.0362  -25.1476  -53.9194 C.3       16 UNK        -0.1800 
     92 C          -2.9162  -26.6105  -53.0580 C.2       16 UNK         0.5000 
     93 O          -3.5606  -26.6564  -54.1066 O.2       16 UNK        -0.5000 
     94 N          -3.4757  -26.6753  -51.8401 N.am      17 UNK        -0.5000 
     95 CA         -4.9131  -26.6571  -51.5286 C.3       17 UNK         0.1400 
     96 CB         -5.6360  -27.8900  -52.1102 C.3       17 UNK        -0.1800 
     97 C          -5.6045  -25.3257  -51.9016 C.2       17 UNK         0.5000 
     98 O          -6.8314  -25.2756  -51.9993 O.2       17 UNK        -0.5000 
     99 N          -4.8165  -24.2548  -52.0659 N.am      18 UNK        -0.5000 
    100 CA        -5.2623  -22.9134  -52.4399 C.3       18 UNK         0.1400 
    101 CB        -4.2112  -22.2830  -53.3696 C.3       18 UNK        -0.1800 
    102 C         -5.5504  -22.0753  -51.1808 C.2       18 UNK         0.5000 
    103 O         -4.9957  -20.9895  -51.0042 O.2       18 UNK        -0.5000 
    104 N         -6.4149  -22.6201  -50.3144 N.am      19 UNK        -0.5000 
    105 CA        -6.7662  -22.0871  -48.9959 C.3       19 UNK         0.1400 
    106 CB        -7.6755  -23.1001  -48.2839 C.3       19 UNK        -0.1800 
    107 C         -7.4318  -20.6987  -49.0204 C.2       19 UNK         0.5000 
    108 O         -7.3735  -19.9823  -48.0212 O.2       19 UNK        -0.5000 
    109 N         -8.0268  -20.3223  -50.1594 N.am      20 UNK        -0.5000 
    110 CA        -8.6093  -19.0076  -50.4270 C.3       20 UNK         0.1400 
    111 CB        -9.6071  -19.1424  -51.5915 C.3       20 UNK        -0.1800 
    112 C         -7.5217  -17.9427  -50.6931 C.2       20 UNK         0.5000 
    113 O         -7.4898  -17.3495  -51.7729 O.2       20 UNK        -0.5000 
    114 N         -6.6334  -17.7467  -49.7072 N.am      21 UNK        -0.5000 
    115 CA        -5.5393  -16.7691  -49.6572 C.3       21 UNK         0.1400 
    116 CB        -6.1044  -15.3672  -49.3531 C.3       21 UNK        -0.1800 
    117 C         -4.6262  -16.7968  -50.9005 C.2       21 UNK         0.5000 
    118 O         -4.3467  -15.7478  -51.4838 O.2       21 UNK        -0.5000 
    119 N         -4.2075  -18.0082  -51.2912 N.am      22 UNK        -0.5000 
    120 CA        -3.3816  -18.3059  -52.4755 C.3       22 UNK         0.1400 
    121 C         -4.1523  -18.2456  -53.8298 C.2       22 UNK         0.5000 
    122 N         -5.4605  -18.0165  -53.8584 N.am      22 UNK        -0.7600 
    123 O         -3.5565  -18.4445  -54.8848 O.2       22 UNK        -0.5000 
    124 C124       -2.0410  -17.5126  -52.5402 C.3       23 UNK        -0.0398 
    125 S125       -1.0540  -17.6081  -51.0061 S.3       23 UNK        -0.2404 
    126 C126        0.4865  -18.3578  -51.6182 C.3       23 UNK        -0.0205 
    127 H127        0.4884  -11.5036  -47.4885 H         1 UNK         0.0600 
    128 H128        1.0608  -13.0919  -46.9957 H         1 UNK         0.0600 
    129 H129        0.0316  -12.9289  -48.4280 H         1 UNK         0.0600 
    130 H130        2.5762  -14.2381  -48.4891 H         1 UNK         0.3000 
    131 H131        3.8432  -12.9138  -50.6686 H         1 UNK         0.0600 
    132 H132        5.3162  -14.8284  -50.7884 H         1 UNK         0.0800 
    133 H133        3.6879  -15.3678  -50.5876 H         1 UNK         0.0800 
    134 H134        3.7299  -16.9218  -46.9576 H         1 UNK         0.0800 
    135 H135        2.7660  -15.8104  -47.8708 H         1 UNK         0.0800 
    136 H136        1.7379  -16.5238  -50.0503 H         1 UNK         0.1150 
    137 H137        1.4097  -20.7462  -50.6740 H         1 UNK         0.1150 
    138 H138        4.0841  -19.2227  -47.6885 H         1 UNK         0.1150 
    139 H139        2.4354  -22.2779  -49.1903 H         1 UNK         0.0800 
    140 H140        4.1171  -21.8185  -49.2341 H         1 UNK         0.0800 
    141 H141        1.3554  -20.4021  -46.9402 H         1 UNK         0.0800 
    142 H142        1.9594  -20.7734  -45.3617 H         1 UNK         0.0800 
    143 H143        1.0382  -23.1148  -45.5525 H         1 UNK         0.0600 
    144 H144       -0.4724  -20.7434  -45.1453 H         1 UNK         0.3000 
    145 H145       -3.5292  -22.2960  -44.1361 H         1 UNK         0.0600 
    146 H146       -3.0961  -20.8656  -42.1637 H         1 UNK         0.0600 
    147 H147       -2.0274  -22.2604  -42.1331 H         1 UNK         0.0600 
    148 H148       -1.4037  -20.6882  -42.6209 H         1 UNK         0.0600 
    149 H149       -2.8266  -19.5590  -44.3283 H         1 UNK         0.3000 
    150 H150       -3.8674  -19.0892  -47.7520 H         1 UNK         0.0600 
    151 H151       -5.8213  -18.9645  -46.1765 H         1 UNK         0.0600 
    152 H152       -5.1867  -17.3674  -46.5388 H         1 UNK         0.0600 
    153 H153       -4.8245  -18.1326  -44.9991 H         1 UNK         0.0600 
    154 H154       -2.7258  -17.2036  -46.0213 H         1 UNK         0.3000 
    155 H155        0.7514  -17.7852  -46.7846 H         1 UNK         0.0600 
    156 H156       -0.2184  -16.2424  -48.4698 H         1 UNK         0.0600 
    157 H157        0.4866  -15.3385  -47.1384 H         1 UNK         0.0600 
    158 H158       -1.2605  -15.5203  -47.2567 H         1 UNK         0.0600 
    159 H159       -0.4132  -16.0147  -44.9116 H         1 UNK         0.3000 
    160 H160       -0.5115  -18.2114  -42.0869 H         1 UNK         0.0600 
    161 H161        1.1586  -15.7422  -42.8095 H         1 UNK         0.0600 
    162 H162        1.7797  -17.2656  -42.1949 H         1 UNK         0.0600 
    163 H163        0.7523  -16.2681  -41.1771 H         1 UNK         0.0600 
    164 H164       -1.3227  -15.4841  -42.6183 H         1 UNK         0.3000 
    165 H165       -4.7280  -16.2314  -43.3542 H         1 UNK         0.0600 
    166 H166       -5.1089  -14.7444  -41.4082 H         1 UNK         0.0600 
    167 H167       -4.6128  -16.3377  -40.8607 H         1 UNK         0.0600 
    168 H168       -3.4590  -15.0092  -40.8434 H         1 UNK         0.0600 
    169 H169       -3.2855  -13.7805  -42.9836 H         1 UNK         0.3000 
    170 H170       -2.0904  -13.4278  -46.3069 H         1 UNK         0.0600 
    171 H171       -4.4802  -12.7289  -46.5082 H         1 UNK         0.0600 
    172 H172       -4.4034  -11.9676  -44.9234 H         1 UNK         0.0600 
    173 H173       -3.4276  -11.3461  -46.2555 H         1 UNK         0.0600 
    174 H174       -2.0588  -11.6211  -44.1295 H         1 UNK         0.3000 
    175 H175        0.0153  -11.1474  -43.1998 H         1 UNK         0.0600 
    176 H176       -0.2316  -13.5665  -41.3162 H         1 UNK         0.0600 
    177 H177        0.1447  -11.9157  -40.8248 H         1 UNK         0.0600 
    178 H178       -1.4307  -12.2916  -41.4998 H         1 UNK         0.0600 
    179 H179        1.9555  -13.0744  -42.2753 H         1 UNK         0.3000 
    180 H180        4.3515  -12.2556  -43.1090 H         1 UNK         0.0600 
    181 H181        4.8714  -14.6501  -43.8449 H         1 UNK         0.0600 
    182 H182        3.2904  -14.7317  -44.6179 H         1 UNK         0.0600 
    183 H183        3.4209  -14.5657  -42.8710 H         1 UNK         0.0600 
    184 H184        3.9053  -11.9885  -45.9076 H         1 UNK         0.3000 
    185 H185        6.2268  -10.9802  -47.0244 H         1 UNK         0.0600 
    186 H186        8.4461  -12.0321  -46.4759 H         1 UNK         0.0600 
    187 H187        7.8431  -13.5989  -47.0074 H         1 UNK         0.0600 
    188 H188        8.0449  -12.2833  -48.1622 H         1 UNK         0.0600 
    189 H189        4.7377  -13.3888  -47.2909 H         1 UNK         0.3000 
    190 H190       -0.8582  -21.0931  -47.8704 H         1 UNK         0.3000 
    191 H191       -0.4341  -22.6857  -50.1457 H         1 UNK         0.0600 
    192 H192       -1.1968  -20.3357  -50.1686 H         1 UNK         0.0600 
    193 H193       -2.2899  -21.3453  -51.0907 H         1 UNK         0.0600 
    194 H194       -2.7479  -20.7984  -49.4792 H         1 UNK         0.0600 
    195 H195       -2.9810  -22.9143  -47.6534 H         1 UNK         0.3000 
    196 H196       -4.6077  -24.8819  -48.8433 H         1 UNK         0.0600 
    197 H197       -5.3855  -25.3004  -46.5226 H         1 UNK         0.0600 
    198 H198       -5.2255  -23.5741  -46.7935 H         1 UNK         0.0600 
    199 H199       -4.0031  -24.4325  -45.8701 H         1 UNK         0.0600 
    200 H200       -1.5847  -25.2108  -46.9622 H         1 UNK         0.3000 
    201 H201       -1.6708  -28.1350  -46.9359 H         1 UNK         0.0600 
    202 H202       -0.6413  -26.8804  -45.0616 H         1 UNK         0.0600 
    203 H203        0.5401  -26.1624  -46.1525 H         1 UNK         0.0600 
    204 H204        0.5538  -27.8962  -45.8550 H         1 UNK         0.0600 
    205 H205        0.1465  -25.5701  -48.6603 H         1 UNK         0.3000 
    206 H206        1.8821  -27.3414  -50.0322 H         1 UNK         0.0600 
    207 H207        2.4573  -24.9955  -49.5016 H         1 UNK         0.0600 
    208 H208        2.5898  -25.2743  -51.2311 H         1 UNK         0.0600 
    209 H209        1.1999  -24.4093  -50.5879 H         1 UNK         0.0600 
    210 H210       -1.1250  -25.7025  -51.1590 H         1 UNK         0.3000 
    211 H211       -1.0242  -27.2854  -53.7022 H         1 UNK         0.0600 
    212 H212       -1.3943  -24.2542  -53.4061 H         1 UNK         0.0600 
    213 H213       -1.4792  -25.1548  -54.9160 H         1 UNK         0.0600 
    214 H214        0.0419  -25.0500  -54.0479 H         1 UNK         0.0600 
    215 H215       -2.8619  -26.6223  -51.0392 H         1 UNK         0.3000 
    216 H216       -4.9932  -26.7287  -50.4462 H         1 UNK         0.0600 
    217 H217       -6.6527  -27.9637  -51.7228 H         1 UNK         0.0600 
    218 H218       -5.1210  -28.8120  -51.8409 H         1 UNK         0.0600 
    219 H219       -5.7075  -27.8486  -53.1971 H         1 UNK         0.0600 
    220 H220       -3.8304  -24.3591  -51.8593 H         1 UNK         0.3000 
    221 H221       -6.1968  -22.9765  -53.0013 H         1 UNK         0.0600 
    222 H222       -3.2272  -22.2428  -52.9057 H         1 UNK         0.0600 
    223 H223       -4.1148  -22.8570  -54.2913 H         1 UNK         0.0600 
    224 H224       -4.4920  -21.2678  -53.6508 H         1 UNK         0.0600 
    225 H225       -6.8315  -23.5069  -50.5678 H         1 UNK         0.3000 
    226 H226       -5.8390  -21.9873  -48.4291 H         1 UNK         0.0600 
    227 H227       -7.2091  -24.0834  -48.2258 H         1 UNK         0.0600 
    228 H228       -7.8902  -22.7814  -47.2630 H         1 UNK         0.0600 
    229 H229       -8.6294  -23.2145  -48.8004 H         1 UNK         0.0600 
    230 H230       -8.0000  -20.9656  -50.9361 H         1 UNK         0.3000 
    231 H231       -9.1688  -18.6849  -49.5464 H         1 UNK         0.0600 
    232 H232       -9.1155  -19.4715  -52.5079 H         1 UNK         0.0600 
    233 H233      -10.0935  -18.1892  -51.8025 H         1 UNK         0.0600 
    234 H234      -10.3930  -19.8603  -51.3560 H         1 UNK         0.0600 
    235 H235       -6.7374  -18.3385  -48.8882 H         1 UNK         0.3000 
    236 H236       -4.9017  -17.0534  -48.8208 H         1 UNK         0.0600 
    237 H237       -6.6920  -15.3708  -48.4351 H         1 UNK         0.0600 
    238 H238       -5.3016  -14.6411  -49.2187 H         1 UNK         0.0600 
    239 H239       -6.7438  -15.0077  -50.1602 H         1 UNK         0.0600 
    240 H240       -4.5383  -18.8281  -50.7966 H         1 UNK         0.3000 
    241 H241       -3.1166  -19.3573  -52.3643 H         1 UNK         0.0600 
    242 H242       -5.9834  -17.8170  -53.0124 H         1 UNK         0.3800 
    243 H243       -5.9339  -17.9932  -54.7471 H         1 UNK         0.3800 
    244 H244       -1.4342  -17.8780  -53.3700 H         1 UNK         0.0800 
    245 H245       -2.2247  -16.4603  -52.7586 H         1 UNK         0.0800 
    246 H246        0.9408  -17.6977  -52.3584 H         1 UNK         0.0800 
    247 H247        0.2493  -19.2899  -52.1335 H         1 UNK         0.0800 
@<TRIPOS>BOND
     1    1    2 1    
     2    1  127 1    
     3    1  128 1    
     4    1  129 1    
     5    2    3 2    
     6    2    4 am   BACKBONE|DICT|INTERRES
     7    4    5 1    
     8    4  130 1    
     9    5    6 1    
    10    5   65 1    
    11    5  131 1    
    12    6    7 1    
    13    6  132 1    
    14    6  133 1    
    15    7    8 1    
    16    8    9 1    
    17    8  134 1    
    18    8  135 1    
    19    9   10 ar   
    20    9   14 ar   
    21   10   11 ar   
    22   10  136 1    
    23   11   12 ar   
    24   11  126 1    
    25   12   13 ar   
    26   12  137 1    
    27   13   14 ar   
    28   13   15 1    
    29   14  138 1    
    30   15   16 1    
    31   15  139 1    
    32   15  140 1    
    33   16   17 1    
    34   17   18 1    
    35   17  141 1    
    36   17  142 1    
    37   18   19 1    
    38   18   67 1    
    39   18  143 1    
    40   19   20 am   BACKBONE|DICT|INTERRES
    41   19  144 1    
    42   20   21 2    
    43   20   22 1    
    44   22   23 1    
    45   22   24 1    
    46   22  145 1    
    47   23  146 1    
    48   23  147 1    
    49   23  148 1    
    50   24   25 am   BACKBONE|DICT|INTERRES
    51   24  149 1    
    52   25   26 2    
    53   25   27 1    
    54   27   28 1    
    55   27   29 1    
    56   27  150 1    
    57   28  151 1    
    58   28  152 1    
    59   28  153 1    
    60   29   30 am   BACKBONE|DICT|INTERRES
    61   29  154 1    
    62   30   31 2    
    63   30   32 1    
    64   32   33 1    
    65   32   34 1    
    66   32  155 1    
    67   33  156 1    
    68   33  157 1    
    69   33  158 1    
    70   34   35 am   BACKBONE|DICT|INTERRES
    71   34  159 1    
    72   35   36 2    
    73   35   37 1    
    74   37   38 1    
    75   37   39 1    
    76   37  160 1    
    77   38  161 1    
    78   38  162 1    
    79   38  163 1    
    80   39   40 am   BACKBONE|DICT|INTERRES
    81   39  164 1    
    82   40   41 2    
    83   40   42 1    
    84   42   43 1    
    85   42   44 1    
    86   42  165 1    
    87   43  166 1    
    88   43  167 1    
    89   43  168 1    
    90   44   45 am   BACKBONE|DICT|INTERRES
    91   44  169 1    
    92   45   46 2    
    93   45   47 1    
    94   47   48 1    
    95   47   49 1    
    96   47  170 1    
    97   48  171 1    
    98   48  172 1    
    99   48  173 1    
   100   49   50 am   BACKBONE|DICT|INTERRES
   101   49  174 1    
   102   50   51 2    
   103   50   52 1    
   104   52   53 1    
   105   52   54 1    
   106   52  175 1    
   107   53  176 1    
   108   53  177 1    
   109   53  178 1    
   110   54   55 am   BACKBONE|DICT|INTERRES
   111   54  179 1    
   112   55   56 2    
   113   55   57 1    
   114   57   58 1    
   115   57   59 1    
   116   57  180 1    
   117   58  181 1    
   118   58  182 1    
   119   58  183 1    
   120   59   60 am   BACKBONE|DICT|INTERRES
   121   59  184 1    
   122   60   61 2    
   123   60   62 1    
   124   62   63 1    
   125   62   64 1    
   126   62  185 1    
   127   63  186 1    
   128   63  187 1    
   129   63  188 1    
   130   64   65 am   BACKBONE|DICT|INTERRES
   131   64  189 1    
   132   65   66 2    
   133   67   68 2    
   134   67   69 am   BACKBONE|DICT|INTERRES
   135   69   70 1    
   136   69  190 1    
   137   70   71 1    
   138   70   72 1    
   139   70  191 1    
   140   71  192 1    
   141   71  193 1    
   142   71  194 1    
   143   72   73 2    
   144   72   74 am   BACKBONE|DICT|INTERRES
   145   74   75 1    
   146   74  195 1    
   147   75   76 1    
   148   75   77 1    
   149   75  196 1    
   150   76  197 1    
   151   76  198 1    
   152   76  199 1    
   153   77   78 2    
   154   77   79 am   BACKBONE|DICT|INTERRES
   155   79   80 1    
   156   79  200 1    
   157   80   81 1    
   158   80   82 1    
   159   80  201 1    
   160   81  202 1    
   161   81  203 1    
   162   81  204 1    
   163   82   83 2    
   164   82   84 am   BACKBONE|DICT|INTERRES
   165   84   85 1    
   166   84  205 1    
   167   85   86 1    
   168   85   87 1    
   169   85  206 1    
   170   86  207 1    
   171   86  208 1    
   172   86  209 1    
   173   87   88 2    
   174   87   89 am   BACKBONE|DICT|INTERRES
   175   89   90 1    
   176   89  210 1    
   177   90   91 1    
   178   90   92 1    
   179   90  211 1    
   180   91  212 1    
   181   91  213 1    
   182   91  214 1    
   183   92   93 2    
   184   92   94 am   BACKBONE|DICT|INTERRES
   185   94   95 1    
   186   94  215 1    
   187   95   96 1    
   188   95   97 1    
   189   95  216 1    
   190   96  217 1    
   191   96  218 1    
   192   96  219 1    
   193   97   98 2    
   194   97   99 am   BACKBONE|DICT|INTERRES
   195   99  100 1    
   196   99  220 1    
   197  100  101 1    
   198  100  102 1    
   199  100  221 1    
   200  101  222 1    
   201  101  223 1    
   202  101  224 1    
   203  102  103 2    
   204  102  104 am   BACKBONE|DICT|INTERRES
   205  104  105 1    
   206  104  225 1    
   207  105  106 1    
   208  105  107 1    
   209  105  226 1    
   210  106  227 1    
   211  106  228 1    
   212  106  229 1    
   213  107  108 2    
   214  107  109 am   BACKBONE|DICT|INTERRES
   215  109  110 1    
   216  109  230 1    
   217  110  111 1    
   218  110  112 1    
   219  110  231 1    
   220  111  232 1    
   221  111  233 1    
   222  111  234 1    
   223  112  113 2    
   224  112  114 am   BACKBONE|DICT|INTERRES
   225  114  115 1    
   226  114  235 1    
   227  115  116 1    
   228  115  117 1    
   229  115  236 1    
   230  116  237 1    
   231  116  238 1    
   232  116  239 1    
   233  117  118 2    
   234  117  119 am   BACKBONE|DICT|INTERRES
   235  119  120 1    
   236  119  240 1    
   237  120  121 1    
   238  120  124 1    
   239  120  241 1    
   240  121  122 am   BACKBONE|DICT|INTERRES
   241  121  123 2    
   242  122  242 1    
   243  122  243 1    
   244  124  125 1    
   245  124  244 1    
   246  124  245 1    
   247  125  126 1    
   248  126  246 1    
   249  126  247 1    
@<TRIPOS>SUBSTRUCTURE
     1 UNK         1 GROUP             0       ****    0 ROOT    
