@<TRIPOS>MOLECULE
3R540
247   249    1
SMALL
USER_CHARGES


@<TRIPOS>ATOM
      1 CA         -1.1802  -12.6222  -46.4597 C.3       0 UNK        -0.1800 
      2 C           0.0531  -12.1733  -47.2271 C.2       0 UNK         0.5000 
      3 O          -0.0415  -11.2820  -48.0718 O.2       0 UNK        -0.5000 
      4 N           1.2151  -12.7662  -46.9272 N.am      1 UNK        -0.5000 
      5 CA          2.5154  -12.4038  -47.4992 C.3       1 UNK         0.1400 
      6 C6          3.4743  -13.6226  -47.5399 C.3       23 UNK        -0.0398 
      7 S7          3.1981  -14.6670  -49.0081 S.3       23 UNK        -0.2404 
      8 C8          1.8610  -15.7629  -48.4468 C.3       23 UNK        -0.0205 
      9 C9          1.4786  -16.7530  -49.5339 C.ar      23 UNK        -0.0193 
     10 C10         0.7070  -16.3345  -50.6212 C.ar      23 UNK        -0.1150 
     11 C11         0.3726  -17.2279  -51.6422 C.ar      23 UNK        -0.0193 
     12 C12         0.7987  -18.5575  -51.5574 C.ar      23 UNK        -0.1150 
     13 C13         1.5718  -18.9909  -50.4748 C.ar      23 UNK        -0.0193 
     14 C14         1.9109  -18.0798  -49.4678 C.ar      23 UNK        -0.1150 
     15 C15         2.0886  -20.4259  -50.4355 C.3       23 UNK        -0.0205 
     16 S16         1.8484  -21.2419  -48.8244 S.3       23 UNK        -0.2404 
     17 C17         0.0318  -21.3347  -48.7425 C.3       23 UNK        -0.0398 
     18 CA         -0.4267  -22.4699  -47.7985 C.3       11 UNK         0.1400 
     19 N          -0.1849  -22.1576  -46.3855 N.am      11 UNK        -0.5000 
     20 C          -0.3189  -23.0381  -45.3836 C.2       10 UNK         0.5000 
     21 O          -0.6436  -24.2130  -45.5473 O.2       10 UNK        -0.5000 
     22 CA         -0.1118  -22.5133  -43.9533 C.3       10 UNK         0.1400 
     23 CB          1.3832  -22.3711  -43.6322 C.3       10 UNK        -0.1800 
     24 N          -0.8021  -21.2459  -43.7151 N.am      10 UNK        -0.5000 
     25 C          -2.1317  -21.0832  -43.7770 C.2       9 UNK         0.5000 
     26 O          -2.9217  -22.0002  -43.9994 O.2       9 UNK        -0.5000 
     27 CA         -2.6711  -19.6504  -43.6154 C.3       9 UNK         0.1400 
     28 CB         -2.7405  -19.2553  -42.1333 C.3       9 UNK        -0.1800 
     29 N          -1.8889  -18.6586  -44.3533 N.am      9 UNK        -0.5000 
     30 C          -1.7117  -18.6614  -45.6826 C.2       8 UNK         0.5000 
     31 O          -2.2042  -19.4976  -46.4417 O.2       8 UNK        -0.5000 
     32 CA         -0.7715  -17.5840  -46.2487 C.3       8 UNK         0.1400 
     33 CB         -1.4605  -16.2126  -46.2797 C.3       8 UNK        -0.1800 
     34 N           0.4761  -17.4923  -45.4899 N.am      8 UNK        -0.5000 
     35 C           1.3657  -18.4896  -45.3811 C.2       7 UNK         0.5000 
     36 O           1.2553  -19.5742  -45.9504 O.2       7 UNK        -0.5000 
     37 CA          2.5449  -18.2522  -44.4240 C.3       7 UNK         0.1400 
     38 CB          3.6315  -17.3958  -45.0915 C.3       7 UNK        -0.1800 
     39 N           2.1144  -17.6257  -43.1726 N.am      7 UNK        -0.5000 
     40 C           1.3458  -18.2319  -42.2548 C.2       6 UNK         0.5000 
     41 O           0.9544  -19.3932  -42.3529 O.2       6 UNK        -0.5000 
     42 CA          0.9066  -17.3928  -41.0412 C.3       6 UNK         0.1400 
     43 CB          1.9591  -17.4679  -39.9255 C.3       6 UNK        -0.1800 
     44 N           0.6566  -15.9911  -41.3751 N.am      6 UNK        -0.5000 
     45 C          -0.2985  -15.5562  -42.2106 C.2       5 UNK         0.5000 
     46 O          -1.1044  -16.2986  -42.7709 O.2       5 UNK        -0.5000 
     47 CA         -0.3176  -14.0434  -42.5038 C.3       5 UNK         0.1400 
     48 CB         -1.2500  -13.3116  -41.5285 C.3       5 UNK        -0.1800 
     49 N           1.0202  -13.4512  -42.4326 N.am      5 UNK        -0.5000 
     50 C           2.0125  -13.7084  -43.2929 C.2       4 UNK         0.5000 
     51 O           1.8588  -14.3426  -44.3405 O.2       4 UNK        -0.5000 
     52 CA          3.3996  -13.1832  -42.8795 C.3       4 UNK         0.1400 
     53 CB          4.5510  -13.8297  -43.6674 C.3       4 UNK        -0.1800 
     54 N           3.4724  -11.7286  -42.9980 N.am      4 UNK        -0.5000 
     55 C           3.0343  -10.8673  -42.0674 C.2       3 UNK         0.5000 
     56 O           2.4997  -11.2268  -41.0168 O.2       3 UNK        -0.5000 
     57 CA          3.2199   -9.3602  -42.3372 C.3       3 UNK         0.1400 
     58 CB          4.4693   -8.8371  -41.6122 C.3       3 UNK        -0.1800 
     59 N           3.3275   -9.0349  -43.7592 N.am      3 UNK        -0.5000 
     60 C           2.3042   -9.0587  -44.6215 C.2       2 UNK         0.5000 
     61 O           1.1415   -9.3013  -44.2937 O.2       2 UNK        -0.5000 
     62 CA          2.6250   -8.8100  -46.1091 C.3       2 UNK         0.1400 
     63 CB          4.0190   -8.1956  -46.3728 C.3       2 UNK        -0.1800 
     64 N           2.4391  -10.0435  -46.8760 N.am      2 UNK        -0.5000 
     65 C           3.0742  -11.2112  -46.6971 C.2       1 UNK         0.5000 
     66 O           4.0039  -11.3701  -45.9043 O.2       1 UNK        -0.5000 
     67 C          -1.8933  -22.8538  -48.0763 C.2       11 UNK         0.5000 
     68 O          -2.1321  -23.7452  -48.8926 O.2       11 UNK        -0.5000 
     69 N          -2.8436  -22.2058  -47.3883 N.am      12 UNK        -0.5000 
     70 CA         -4.2675  -22.5325  -47.4536 C.3       12 UNK         0.1400 
     71 CB         -5.0940  -21.4089  -46.8087 C.3       12 UNK        -0.1800 
     72 C          -4.5776  -23.8935  -46.8051 C.2       12 UNK         0.5000 
     73 O          -5.2861  -24.7004  -47.4067 O.2       12 UNK        -0.5000 
     74 N          -4.0179  -24.1356  -45.6111 N.am      13 UNK        -0.5000 
     75 CA         -4.1769  -25.3748  -44.8467 C.3       13 UNK         0.1400 
     76 CB         -3.5885  -25.1875  -43.4399 C.3       13 UNK        -0.1800 
     77 C          -3.5499  -26.5993  -45.5379 C.2       13 UNK         0.5000 
     78 O          -4.1608  -27.6686  -45.5517 O.2       13 UNK        -0.5000 
     79 N          -2.3546  -26.4180  -46.1148 N.am      14 UNK        -0.5000 
     80 CA         -1.6302  -27.4426  -46.8698 C.3       14 UNK         0.1400 
     81 CB         -0.1525  -27.0318  -46.9728 C.3       14 UNK        -0.1800 
     82 C          -2.2046  -27.6874  -48.2783 C.2       14 UNK         0.5000 
     83 O          -1.8668  -28.7015  -48.8901 O.2       14 UNK        -0.5000 
     84 N          -3.0278  -26.7495  -48.7728 N.am      15 UNK        -0.5000 
     85 CA         -3.5660  -26.6667  -50.1342 C.3       15 UNK         0.1400 
     86 CB         -4.5439  -27.8250  -50.4202 C.3       15 UNK        -0.1800 
     87 C          -2.4412  -26.5343  -51.1828 C.2       15 UNK         0.5000 
     88 O          -2.4529  -27.2155  -52.2096 O.2       15 UNK        -0.5000 
     89 N          -1.4712  -25.6615  -50.8784 N.am      16 UNK        -0.5000 
     90 CA         -0.3267  -25.3471  -51.7335 C.3       16 UNK         0.1400 
     91 CB          0.7814  -24.7180  -50.8753 C.3       16 UNK        -0.1800 
     92 C          -0.7115  -24.4087  -52.8913 C.2       16 UNK         0.5000 
     93 O          -0.0734  -24.4471  -53.9441 O.2       16 UNK        -0.5000 
     94 N          -1.7510  -23.5905  -52.6781 N.am      17 UNK        -0.5000 
     95 CA         -2.3694  -22.7476  -53.6969 C.3       17 UNK         0.1400 
     96 CB         -3.2520  -21.7019  -52.9985 C.3       17 UNK        -0.1800 
     97 C          -3.2066  -23.5972  -54.6701 C.2       17 UNK         0.5000 
     98 O          -3.8374  -24.5692  -54.2464 O.2       17 UNK        -0.5000 
     99 N          -3.2409  -23.1931  -55.9457 N.am      18 UNK        -0.5000 
    100 CA        -3.9660  -23.8617  -57.0315 C.3       18 UNK         0.1400 
    101 CB        -3.3310  -23.4500  -58.3722 C.3       18 UNK        -0.1800 
    102 C         -5.4825  -23.5749  -56.9791 C.2       18 UNK         0.5000 
    103 O         -6.0290  -22.9509  -57.8896 O.2       18 UNK        -0.5000 
    104 N         -6.1181  -23.9957  -55.8762 N.am      19 UNK        -0.5000 
    105 CA        -7.5338  -23.8307  -55.5115 C.3       19 UNK         0.1400 
    106 CB        -8.4570  -24.5074  -56.5455 C.3       19 UNK        -0.1800 
    107 C         -7.9577  -22.3725  -55.2210 C.2       19 UNK         0.5000 
    108 O         -9.1401  -22.1197  -54.9865 O.2       19 UNK        -0.5000 
    109 N         -6.9937  -21.4421  -55.2118 N.am      20 UNK        -0.5000 
    110 CA        -7.1993  -20.0136  -54.9664 C.3       20 UNK         0.1400 
    111 CB        -6.0226  -19.2400  -55.5835 C.3       20 UNK        -0.1800 
    112 C         -7.3437  -19.6629  -53.4727 C.2       20 UNK         0.5000 
    113 O         -7.8001  -18.5626  -53.1610 O.2       20 UNK        -0.5000 
    114 N         -6.9308  -20.5853  -52.5865 N.am      21 UNK        -0.5000 
    115 CA        -6.8899  -20.4540  -51.1229 C.3       21 UNK         0.1400 
    116 CB        -8.3148  -20.3821  -50.5357 C.3       21 UNK        -0.1800 
    117 C         -5.9788  -19.2969  -50.6556 C.2       21 UNK         0.5000 
    118 O         -6.3170  -18.5741  -49.7171 O.2       21 UNK        -0.5000 
    119 N         -4.8383  -19.1454  -51.3432 N.am      22 UNK        -0.5000 
    120 CA        -3.8259  -18.1038  -51.1014 C.3       22 UNK         0.1400 
    121 C         -3.0702  -18.2308  -49.7460 C.2       22 UNK         0.5000 
    122 N         -3.0427  -19.4002  -49.1205 N.am      22 UNK        -0.7600 
    123 O         -2.5394  -17.2491  -49.2395 O.2       22 UNK        -0.5000 
    124 C124       -2.8495  -18.0043  -52.3022 C.3       23 UNK        -0.0398 
    125 S125       -2.1314  -16.3409  -52.5075 S.3       23 UNK        -0.2404 
    126 C126       -0.3904  -16.7356  -52.8652 C.3       23 UNK        -0.0205 
    127 H127       -1.6452  -11.7703  -45.9637 H         1 UNK         0.0600 
    128 H128       -0.9299  -13.3600  -45.7003 H         1 UNK         0.0600 
    129 H129       -1.9079  -13.0639  -47.1405 H         1 UNK         0.0600 
    130 H130        1.2529  -13.4413  -46.1712 H         1 UNK         0.3000 
    131 H131        2.3806  -12.0499  -48.5240 H         1 UNK         0.0600 
    132 H132        3.3914  -14.2276  -46.6371 H         1 UNK         0.0800 
    133 H133        4.5153  -13.2988  -47.5926 H         1 UNK         0.0800 
    134 H134        2.1697  -16.2852  -47.5414 H         1 UNK         0.0800 
    135 H135        0.9876  -15.1671  -48.1863 H         1 UNK         0.0800 
    136 H136        0.3838  -15.3048  -50.6838 H         1 UNK         0.1150 
    137 H137        0.5535  -19.2488  -52.3513 H         1 UNK         0.1150 
    138 H138        2.5195  -18.4037  -48.6351 H         1 UNK         0.1150 
    139 H139        1.6182  -21.0321  -51.2113 H         1 UNK         0.0800 
    140 H140        3.1553  -20.4130  -50.6617 H         1 UNK         0.0800 
    141 H141       -0.3572  -20.3693  -48.4143 H         1 UNK         0.0800 
    142 H142       -0.3454  -21.4902  -49.7552 H         1 UNK         0.0800 
    143 H143        0.1625  -23.3599  -48.0302 H         1 UNK         0.0600 
    144 H144        0.1297  -21.2140  -46.1775 H         1 UNK         0.3000 
    145 H145       -0.5330  -23.2514  -43.2677 H         1 UNK         0.0600 
    146 H146        1.5369  -22.0989  -42.5879 H         1 UNK         0.0600 
    147 H147        1.9106  -23.3102  -43.8038 H         1 UNK         0.0600 
    148 H148        1.8591  -21.6094  -44.2499 H         1 UNK         0.0600 
    149 H149       -0.2178  -20.4506  -43.4744 H         1 UNK         0.3000 
    150 H150       -3.6853  -19.6322  -44.0192 H         1 UNK         0.0600 
    151 H151       -3.3597  -19.9559  -41.5717 H         1 UNK         0.0600 
    152 H152       -3.1753  -18.2633  -42.0091 H         1 UNK         0.0600 
    153 H153       -1.7531  -19.2477  -41.6722 H         1 UNK         0.0600 
    154 H154       -1.4690  -17.9118  -43.8072 H         1 UNK         0.3000 
    155 H155       -0.5248  -17.8652  -47.2751 H         1 UNK         0.0600 
    156 H156       -1.6268  -15.8121  -45.2807 H         1 UNK         0.0600 
    157 H157       -2.4330  -16.2729  -46.7689 H         1 UNK         0.0600 
    158 H158       -0.8655  -15.4934  -46.8384 H         1 UNK         0.0600 
    159 H159        0.6312  -16.6452  -44.9625 H         1 UNK         0.3000 
    160 H160        2.9804  -19.2251  -44.1858 H         1 UNK         0.0600 
    161 H161        3.2756  -16.3908  -45.3165 H         1 UNK         0.0600 
    162 H162        3.9592  -17.8444  -46.0303 H         1 UNK         0.0600 
    163 H163        4.5093  -17.3057  -44.4518 H         1 UNK         0.0600 
    164 H164        2.3692  -16.6599  -43.0337 H         1 UNK         0.3000 
    165 H165       -0.0246  -17.8180  -40.6619 H         1 UNK         0.0600 
    166 H166        2.9090  -17.0306  -40.2358 H         1 UNK         0.0600 
    167 H167        1.6236  -16.9434  -39.0305 H         1 UNK         0.0600 
    168 H168        2.1518  -18.5031  -39.6405 H         1 UNK         0.0600 
    169 H169        1.2653  -15.3088  -40.9488 H         1 UNK         0.3000 
    170 H170       -0.7047  -13.9076  -43.5135 H         1 UNK         0.0600 
    171 H171       -2.2605  -13.7200  -41.5743 H         1 UNK         0.0600 
    172 H172       -0.9056  -13.3999  -40.4974 H         1 UNK         0.0600 
    173 H173       -1.3174  -12.2507  -41.7704 H         1 UNK         0.0600 
    174 H174        1.2233  -12.8598  -41.6347 H         1 UNK         0.3000 
    175 H175        3.5482  -13.4605  -41.8335 H         1 UNK         0.0600 
    176 H176        4.5367  -14.9141  -43.5578 H         1 UNK         0.0600 
    177 H177        4.4991  -13.6074  -44.7305 H         1 UNK         0.0600 
    178 H178        5.5177  -13.4816  -43.3039 H         1 UNK         0.0600 
    179 H179        3.8331  -11.3711  -43.8769 H         1 UNK         0.3000 
    180 H180        2.3487   -8.8436  -41.9288 H         1 UNK         0.0600 
    181 H181        4.5750   -7.7591  -41.7355 H         1 UNK         0.0600 
    182 H182        4.4118   -9.0362  -40.5412 H         1 UNK         0.0600 
    183 H183        5.3789   -9.3096  -41.9855 H         1 UNK         0.0600 
    184 H184        4.2546   -8.8538  -44.1162 H         1 UNK         0.3000 
    185 H185        1.8787   -8.1011  -46.4704 H         1 UNK         0.0600 
    186 H186        4.1500   -7.9779  -47.4328 H         1 UNK         0.0600 
    187 H187        4.1386   -7.2534  -45.8365 H         1 UNK         0.0600 
    188 H188        4.8340   -8.8545  -46.0724 H         1 UNK         0.0600 
    189 H189        1.6320  -10.0550  -47.4899 H         1 UNK         0.3000 
    190 H190       -2.5709  -21.4596  -46.7567 H         1 UNK         0.3000 
    191 H191       -4.5526  -22.5944  -48.5060 H         1 UNK         0.0600 
    192 H192       -6.1606  -21.6308  -46.8607 H         1 UNK         0.0600 
    193 H193       -4.9375  -20.4575  -47.3165 H         1 UNK         0.0600 
    194 H194       -4.8390  -21.2695  -45.7583 H         1 UNK         0.0600 
    195 H195       -3.4753  -23.3990  -45.1666 H         1 UNK         0.3000 
    196 H196       -5.2469  -25.5660  -44.7429 H         1 UNK         0.0600 
    197 H197       -3.7037  -26.0929  -42.8428 H         1 UNK         0.0600 
    198 H198       -4.0915  -24.3803  -42.9074 H         1 UNK         0.0600 
    199 H199       -2.5247  -24.9502  -43.4776 H         1 UNK         0.0600 
    200 H200       -1.8828  -25.5228  -46.0016 H         1 UNK         0.3000 
    201 H201       -1.6861  -28.3849  -46.3209 H         1 UNK         0.0600 
    202 H202       -0.0340  -26.0986  -47.5253 H         1 UNK         0.0600 
    203 H203        0.4327  -27.7945  -47.4879 H         1 UNK         0.0600 
    204 H204        0.2893  -26.8955  -45.9856 H         1 UNK         0.0600 
    205 H205       -3.2290  -25.9537  -48.1824 H         1 UNK         0.3000 
    206 H206       -4.1361  -25.7374  -50.1790 H         1 UNK         0.0600 
    207 H207       -5.3241  -27.8767  -49.6607 H         1 UNK         0.0600 
    208 H208       -5.0367  -27.6877  -51.3833 H         1 UNK         0.0600 
    209 H209       -4.0377  -28.7902  -50.4481 H         1 UNK         0.0600 
    210 H210       -1.5765  -25.1080  -50.0314 H         1 UNK         0.3000 
    211 H211        0.0559  -26.2754  -52.1629 H         1 UNK         0.0600 
    212 H212        0.4691  -23.7623  -50.4559 H         1 UNK         0.0600 
    213 H213        1.6781  -24.5359  -51.4689 H         1 UNK         0.0600 
    214 H214        1.0638  -25.3720  -50.0500 H         1 UNK         0.0600 
    215 H215       -2.2341  -23.6635  -51.7953 H         1 UNK         0.3000 
    216 H216       -1.5824  -22.2321  -54.2517 H         1 UNK         0.0600 
    217 H217       -3.6782  -21.0080  -53.7232 H         1 UNK         0.0600 
    218 H218       -2.6711  -21.1182  -52.2845 H         1 UNK         0.0600 
    219 H219       -4.0764  -22.1684  -52.4572 H         1 UNK         0.0600 
    220 H220       -2.7217  -22.3676  -56.2085 H         1 UNK         0.3000 
    221 H221       -3.8390  -24.9413  -56.9255 H         1 UNK         0.0600 
    222 H222       -3.4037  -22.3748  -58.5410 H         1 UNK         0.0600 
    223 H223       -2.2767  -23.7246  -58.4094 H         1 UNK         0.0600 
    224 H224       -3.8235  -23.9486  -59.2081 H         1 UNK         0.0600 
    225 H225       -5.5378  -24.4463  -55.1726 H         1 UNK         0.3000 
    226 H226       -7.6569  -24.3651  -54.5685 H         1 UNK         0.0600 
    227 H227       -8.1568  -25.5394  -56.7270 H         1 UNK         0.0600 
    228 H228       -9.4890  -24.5292  -56.1934 H         1 UNK         0.0600 
    229 H229       -8.4525  -23.9826  -57.5010 H         1 UNK         0.0600 
    230 H230       -6.0579  -21.7342  -55.4486 H         1 UNK         0.3000 
    231 H231       -8.1163  -19.6984  -55.4688 H         1 UNK         0.0600 
    232 H232       -6.1529  -18.1641  -55.4591 H         1 UNK         0.0600 
    233 H233       -5.9421  -19.4336  -56.6534 H         1 UNK         0.0600 
    234 H234       -5.0726  -19.5098  -55.1215 H         1 UNK         0.0600 
    235 H235       -6.5969  -21.4618  -52.9589 H         1 UNK         0.3000 
    236 H236       -6.4298  -21.3686  -50.7458 H         1 UNK         0.0600 
    237 H237       -8.8250  -19.4608  -50.8180 H         1 UNK         0.0600 
    238 H238       -8.9235  -21.2199  -50.8758 H         1 UNK         0.0600 
    239 H239       -8.2904  -20.4210  -49.4460 H         1 UNK         0.0600 
    240 H240       -4.6558  -19.7793  -52.1042 H         1 UNK         0.3000 
    241 H241       -4.3803  -17.1646  -51.0467 H         1 UNK         0.0600 
    242 H242       -3.5093  -20.2006  -49.5074 H         1 UNK         0.3800 
    243 H243       -2.6406  -19.4422  -48.1878 H         1 UNK         0.3800 
    244 H244       -3.3744  -18.2216  -53.2335 H         1 UNK         0.0800 
    245 H245       -2.0617  -18.7545  -52.2244 H         1 UNK         0.0800 
    246 H246       -0.3442  -17.4660  -53.6745 H         1 UNK         0.0800 
    247 H247        0.0977  -15.8365  -53.2439 H         1 UNK         0.0800 
@<TRIPOS>BOND
     1    1    2 1    
     2    1  127 1    
     3    1  128 1    
     4    1  129 1    
     5    2    3 2    
     6    2    4 am   BACKBONE|DICT|INTERRES
     7    4    5 1    
     8    4  130 1    
     9    5    6 1    
    10    5   65 1    
    11    5  131 1    
    12    6    7 1    
    13    6  132 1    
    14    6  133 1    
    15    7    8 1    
    16    8    9 1    
    17    8  134 1    
    18    8  135 1    
    19    9   10 ar   
    20    9   14 ar   
    21   10   11 ar   
    22   10  136 1    
    23   11   12 ar   
    24   11  126 1    
    25   12   13 ar   
    26   12  137 1    
    27   13   14 ar   
    28   13   15 1    
    29   14  138 1    
    30   15   16 1    
    31   15  139 1    
    32   15  140 1    
    33   16   17 1    
    34   17   18 1    
    35   17  141 1    
    36   17  142 1    
    37   18   19 1    
    38   18   67 1    
    39   18  143 1    
    40   19   20 am   BACKBONE|DICT|INTERRES
    41   19  144 1    
    42   20   21 2    
    43   20   22 1    
    44   22   23 1    
    45   22   24 1    
    46   22  145 1    
    47   23  146 1    
    48   23  147 1    
    49   23  148 1    
    50   24   25 am   BACKBONE|DICT|INTERRES
    51   24  149 1    
    52   25   26 2    
    53   25   27 1    
    54   27   28 1    
    55   27   29 1    
    56   27  150 1    
    57   28  151 1    
    58   28  152 1    
    59   28  153 1    
    60   29   30 am   BACKBONE|DICT|INTERRES
    61   29  154 1    
    62   30   31 2    
    63   30   32 1    
    64   32   33 1    
    65   32   34 1    
    66   32  155 1    
    67   33  156 1    
    68   33  157 1    
    69   33  158 1    
    70   34   35 am   BACKBONE|DICT|INTERRES
    71   34  159 1    
    72   35   36 2    
    73   35   37 1    
    74   37   38 1    
    75   37   39 1    
    76   37  160 1    
    77   38  161 1    
    78   38  162 1    
    79   38  163 1    
    80   39   40 am   BACKBONE|DICT|INTERRES
    81   39  164 1    
    82   40   41 2    
    83   40   42 1    
    84   42   43 1    
    85   42   44 1    
    86   42  165 1    
    87   43  166 1    
    88   43  167 1    
    89   43  168 1    
    90   44   45 am   BACKBONE|DICT|INTERRES
    91   44  169 1    
    92   45   46 2    
    93   45   47 1    
    94   47   48 1    
    95   47   49 1    
    96   47  170 1    
    97   48  171 1    
    98   48  172 1    
    99   48  173 1    
   100   49   50 am   BACKBONE|DICT|INTERRES
   101   49  174 1    
   102   50   51 2    
   103   50   52 1    
   104   52   53 1    
   105   52   54 1    
   106   52  175 1    
   107   53  176 1    
   108   53  177 1    
   109   53  178 1    
   110   54   55 am   BACKBONE|DICT|INTERRES
   111   54  179 1    
   112   55   56 2    
   113   55   57 1    
   114   57   58 1    
   115   57   59 1    
   116   57  180 1    
   117   58  181 1    
   118   58  182 1    
   119   58  183 1    
   120   59   60 am   BACKBONE|DICT|INTERRES
   121   59  184 1    
   122   60   61 2    
   123   60   62 1    
   124   62   63 1    
   125   62   64 1    
   126   62  185 1    
   127   63  186 1    
   128   63  187 1    
   129   63  188 1    
   130   64   65 am   BACKBONE|DICT|INTERRES
   131   64  189 1    
   132   65   66 2    
   133   67   68 2    
   134   67   69 am   BACKBONE|DICT|INTERRES
   135   69   70 1    
   136   69  190 1    
   137   70   71 1    
   138   70   72 1    
   139   70  191 1    
   140   71  192 1    
   141   71  193 1    
   142   71  194 1    
   143   72   73 2    
   144   72   74 am   BACKBONE|DICT|INTERRES
   145   74   75 1    
   146   74  195 1    
   147   75   76 1    
   148   75   77 1    
   149   75  196 1    
   150   76  197 1    
   151   76  198 1    
   152   76  199 1    
   153   77   78 2    
   154   77   79 am   BACKBONE|DICT|INTERRES
   155   79   80 1    
   156   79  200 1    
   157   80   81 1    
   158   80   82 1    
   159   80  201 1    
   160   81  202 1    
   161   81  203 1    
   162   81  204 1    
   163   82   83 2    
   164   82   84 am   BACKBONE|DICT|INTERRES
   165   84   85 1    
   166   84  205 1    
   167   85   86 1    
   168   85   87 1    
   169   85  206 1    
   170   86  207 1    
   171   86  208 1    
   172   86  209 1    
   173   87   88 2    
   174   87   89 am   BACKBONE|DICT|INTERRES
   175   89   90 1    
   176   89  210 1    
   177   90   91 1    
   178   90   92 1    
   179   90  211 1    
   180   91  212 1    
   181   91  213 1    
   182   91  214 1    
   183   92   93 2    
   184   92   94 am   BACKBONE|DICT|INTERRES
   185   94   95 1    
   186   94  215 1    
   187   95   96 1    
   188   95   97 1    
   189   95  216 1    
   190   96  217 1    
   191   96  218 1    
   192   96  219 1    
   193   97   98 2    
   194   97   99 am   BACKBONE|DICT|INTERRES
   195   99  100 1    
   196   99  220 1    
   197  100  101 1    
   198  100  102 1    
   199  100  221 1    
   200  101  222 1    
   201  101  223 1    
   202  101  224 1    
   203  102  103 2    
   204  102  104 am   BACKBONE|DICT|INTERRES
   205  104  105 1    
   206  104  225 1    
   207  105  106 1    
   208  105  107 1    
   209  105  226 1    
   210  106  227 1    
   211  106  228 1    
   212  106  229 1    
   213  107  108 2    
   214  107  109 am   BACKBONE|DICT|INTERRES
   215  109  110 1    
   216  109  230 1    
   217  110  111 1    
   218  110  112 1    
   219  110  231 1    
   220  111  232 1    
   221  111  233 1    
   222  111  234 1    
   223  112  113 2    
   224  112  114 am   BACKBONE|DICT|INTERRES
   225  114  115 1    
   226  114  235 1    
   227  115  116 1    
   228  115  117 1    
   229  115  236 1    
   230  116  237 1    
   231  116  238 1    
   232  116  239 1    
   233  117  118 2    
   234  117  119 am   BACKBONE|DICT|INTERRES
   235  119  120 1    
   236  119  240 1    
   237  120  121 1    
   238  120  124 1    
   239  120  241 1    
   240  121  122 am   BACKBONE|DICT|INTERRES
   241  121  123 2    
   242  122  242 1    
   243  122  243 1    
   244  124  125 1    
   245  124  244 1    
   246  124  245 1    
   247  125  126 1    
   248  126  246 1    
   249  126  247 1    
@<TRIPOS>SUBSTRUCTURE
     1 UNK         1 GROUP             0       ****    0 ROOT    
