@<TRIPOS>MOLECULE
3R540
247   249    1
SMALL
USER_CHARGES


@<TRIPOS>ATOM
      1 CA          3.8428  -14.1613  -53.4689 C.3       0 UNK        -0.1800 
      2 C           3.8702  -14.0454  -51.9519 C.2       0 UNK         0.5000 
      3 O           3.5707  -12.9805  -51.4107 O.2       0 UNK        -0.5000 
      4 N           4.2111  -15.1403  -51.2582 N.am      1 UNK        -0.5000 
      5 CA          4.3072  -15.2107  -49.7933 C.3       1 UNK         0.1400 
      6 C6          5.1527  -16.4193  -49.3203 C.3       23 UNK        -0.0398 
      7 S7          4.4288  -18.0496  -49.7162 S.3       23 UNK        -0.2404 
      8 C8          3.7424  -18.4849  -48.0883 C.3       23 UNK        -0.0205 
      9 C9          2.8874  -19.7364  -48.1513 C.ar      23 UNK        -0.0193 
     10 C10         1.6292  -19.6951  -48.7585 C.ar      23 UNK        -0.1150 
     11 C11         0.8145  -20.8296  -48.7812 C.ar      23 UNK        -0.0193 
     12 C12         1.2638  -22.0040  -48.1716 C.ar      23 UNK        -0.1150 
     13 C13         2.5270  -22.0642  -47.5723 C.ar      23 UNK        -0.0193 
     14 C14         3.3386  -20.9269  -47.5770 C.ar      23 UNK        -0.1150 
     15 C15         3.0102  -23.3570  -46.9228 C.3       23 UNK        -0.0205 
     16 S16         3.5671  -23.1673  -45.1913 S.3       23 UNK        -0.2404 
     17 C17         2.1974  -22.2433  -44.4125 C.3       23 UNK        -0.0398 
     18 CA          1.1649  -23.1145  -43.6572 C.3       11 UNK         0.1400 
     19 N           0.2499  -22.2853  -42.8711 N.am      11 UNK        -0.5000 
     20 C          -0.5390  -22.7235  -41.8806 C.2       10 UNK         0.5000 
     21 O          -0.5291  -23.8807  -41.4600 O.2       10 UNK        -0.5000 
     22 CA         -1.4995  -21.6988  -41.2453 C.3       10 UNK         0.1400 
     23 CB         -0.8337  -21.0207  -40.0384 C.3       10 UNK        -0.1800 
     24 N          -1.9495  -20.6744  -42.1897 N.am      10 UNK        -0.5000 
     25 C          -2.8149  -20.8914  -43.1908 C.2       9 UNK         0.5000 
     26 O          -3.4030  -21.9586  -43.3615 O.2       9 UNK        -0.5000 
     27 CA         -3.0452  -19.7359  -44.1863 C.3       9 UNK         0.1400 
     28 CB         -4.1818  -18.8219  -43.7072 C.3       9 UNK        -0.1800 
     29 N          -1.8487  -18.9298  -44.4330 N.am      9 UNK        -0.5000 
     30 C          -0.7099  -19.3966  -44.9627 C.2       8 UNK         0.5000 
     31 O          -0.5404  -20.5719  -45.2844 O.2       8 UNK        -0.5000 
     32 CA          0.4599  -18.4038  -45.0658 C.3       8 UNK         0.1400 
     33 CB          0.2776  -17.4323  -46.2408 C.3       8 UNK        -0.1800 
     34 N           0.6224  -17.6524  -43.8215 N.am      8 UNK        -0.5000 
     35 C           1.0927  -18.1798  -42.6825 C.2       7 UNK         0.5000 
     36 O           1.5118  -19.3331  -42.5880 O.2       7 UNK        -0.5000 
     37 CA          1.0497  -17.2859  -41.4290 C.3       7 UNK         0.1400 
     38 CB          2.3295  -16.4497  -41.3047 C.3       7 UNK        -0.1800 
     39 N          -0.1152  -16.3998  -41.4080 N.am      7 UNK        -0.5000 
     40 C          -1.3680  -16.8276  -41.1966 C.2       6 UNK         0.5000 
     41 O          -1.6579  -18.0038  -40.9846 O.2       6 UNK        -0.5000 
     42 CA         -2.4926  -15.7792  -41.2766 C.3       6 UNK         0.1400 
     43 CB         -2.7039  -15.1103  -39.9105 C.3       6 UNK        -0.1800 
     44 N          -2.2661  -14.7471  -42.2893 N.am      6 UNK        -0.5000 
     45 C          -2.0922  -14.9727  -43.5985 C.2       5 UNK         0.5000 
     46 O          -2.0837  -16.0973  -44.0975 O.2       5 UNK        -0.5000 
     47 CA         -1.8767  -13.7481  -44.5055 C.3       5 UNK         0.1400 
     48 CB         -2.3985  -12.4252  -43.9023 C.3       5 UNK        -0.1800 
     49 N          -0.4822  -13.5938  -44.9243 N.am      5 UNK        -0.5000 
     50 C           0.6047  -13.4523  -44.1472 C.2       4 UNK         0.5000 
     51 O           0.5905  -13.5859  -42.9222 O.2       4 UNK        -0.5000 
     52 CA          1.9368  -13.0845  -44.8419 C.3       4 UNK         0.1400 
     53 CB          2.9504  -14.2332  -44.7300 C.3       4 UNK        -0.1800 
     54 N           1.7845  -12.7234  -46.2538 N.am      4 UNK        -0.5000 
     55 C           1.2256  -11.5896  -46.7077 C.2       3 UNK         0.5000 
     56 O           0.8815  -10.6641  -45.9721 O.2       3 UNK        -0.5000 
     57 CA          0.9688  -11.4751  -48.2284 C.3       3 UNK         0.1400 
     58 CB          2.0253  -10.5736  -48.8845 C.3       3 UNK        -0.1800 
     59 N           0.9485  -12.7595  -48.9334 N.am      3 UNK        -0.5000 
     60 C           0.1233  -13.7863  -48.6774 C.2       2 UNK         0.5000 
     61 O          -0.8146  -13.7165  -47.8834 O.2       2 UNK        -0.5000 
     62 CA          0.4464  -15.1332  -49.3605 C.3       2 UNK         0.1400 
     63 CB         -0.4987  -15.3805  -50.5429 C.3       2 UNK        -0.1800 
     64 N           1.8325  -15.2582  -49.8270 N.am      2 UNK        -0.5000 
     65 C           2.9387  -15.1366  -49.0757 C.2       1 UNK         0.5000 
     66 O           2.9082  -14.9390  -47.8614 O.2       1 UNK        -0.5000 
     67 C           0.3686  -24.0497  -44.5903 C.2       11 UNK         0.5000 
     68 O           0.5457  -25.2664  -44.5188 O.2       11 UNK        -0.5000 
     69 N          -0.5089  -23.4643  -45.4213 N.am      12 UNK        -0.5000 
     70 CA         -1.5122  -24.0767  -46.3089 C.3       12 UNK         0.1400 
     71 CB         -2.5736  -24.8250  -45.4825 C.3       12 UNK        -0.1800 
     72 C          -0.9939  -24.9925  -47.4414 C.2       12 UNK         0.5000 
     73 O          -1.6031  -25.0155  -48.5096 O.2       12 UNK        -0.5000 
     74 N           0.0995  -25.7263  -47.2041 N.am      13 UNK        -0.5000 
     75 CA          0.6414  -26.8166  -48.0228 C.3       13 UNK         0.1400 
     76 CB          1.9136  -27.3506  -47.3467 C.3       13 UNK        -0.1800 
     77 C           0.9230  -26.4938  -49.5039 C.2       13 UNK         0.5000 
     78 O           0.8064  -27.3894  -50.3413 O.2       13 UNK        -0.5000 
     79 N           1.2771  -25.2378  -49.8120 N.am      14 UNK        -0.5000 
     80 CA          1.5121  -24.7662  -51.1822 C.3       14 UNK         0.1400 
     81 CB          2.3464  -23.4764  -51.1472 C.3       14 UNK        -0.1800 
     82 C           0.2126  -24.5472  -51.9858 C.2       14 UNK         0.5000 
     83 O           0.2830  -24.3955  -53.2061 O.2       14 UNK        -0.5000 
     84 N          -0.9392  -24.5209  -51.2977 N.am      15 UNK        -0.5000 
     85 CA         -2.3196  -24.4048  -51.7808 C.3       15 UNK         0.1400 
     86 CB         -2.6901  -25.5856  -52.6976 C.3       15 UNK        -0.1800 
     87 C          -2.6895  -23.0647  -52.4415 C.2       15 UNK         0.5000 
     88 O          -3.7949  -22.5826  -52.2096 O.2       15 UNK        -0.5000 
     89 N          -1.7971  -22.5070  -53.2725 N.am      16 UNK        -0.5000 
     90 CA         -1.9543  -21.2792  -54.0700 C.3       16 UNK         0.1400 
     91 CB         -2.0025  -20.0398  -53.1546 C.3       16 UNK        -0.1800 
     92 C          -3.1472  -21.3212  -55.0540 C.2       16 UNK         0.5000 
     93 O          -3.6718  -20.2730  -55.4290 O.2       16 UNK        -0.5000 
     94 N          -3.5618  -22.5396  -55.4324 N.am      17 UNK        -0.5000 
     95 CA         -4.7244  -22.9053  -56.2515 C.3       17 UNK         0.1400 
     96 CB         -4.6613  -22.2499  -57.6466 C.3       17 UNK        -0.1800 
     97 C          -6.0978  -22.6856  -55.5762 C.2       17 UNK         0.5000 
     98 O          -7.1067  -23.0950  -56.1531 O.2       17 UNK        -0.5000 
     99 N          -6.1353  -22.0959  -54.3743 N.am      18 UNK        -0.5000 
    100 CA        -7.3333  -21.8528  -53.5771 C.3       18 UNK         0.1400 
    101 CB        -8.2266  -20.7799  -54.2322 C.3       18 UNK        -0.1800 
    102 C         -6.9083  -21.3855  -52.1818 C.2       18 UNK         0.5000 
    103 O         -6.0157  -20.5427  -52.0689 O.2       18 UNK        -0.5000 
    104 N         -7.6017  -21.8675  -51.1423 N.am      19 UNK        -0.5000 
    105 CA        -7.3774  -21.4705  -49.7471 C.3       19 UNK         0.1400 
    106 CB        -8.2725  -22.3125  -48.8264 C.3       19 UNK        -0.1800 
    107 C         -7.6065  -19.9660  -49.4995 C.2       19 UNK         0.5000 
    108 O         -6.9070  -19.3695  -48.6814 O.2       19 UNK        -0.5000 
    109 N         -8.5413  -19.3731  -50.2553 N.am      20 UNK        -0.5000 
    110 CA        -8.8214  -17.9373  -50.2727 C.3       20 UNK         0.1400 
    111 CB       -10.1448  -17.6991  -51.0161 C.3       20 UNK        -0.1800 
    112 C         -7.6915  -17.0984  -50.9042 C.2       20 UNK         0.5000 
    113 O         -7.5567  -15.9240  -50.5591 O.2       20 UNK        -0.5000 
    114 N         -6.9046  -17.7015  -51.8080 N.am      21 UNK        -0.5000 
    115 CA        -5.7228  -17.0814  -52.4069 C.3       21 UNK         0.1400 
    116 CB        -5.4484  -17.6965  -53.7881 C.3       21 UNK        -0.1800 
    117 C         -4.4978  -17.2141  -51.4864 C.2       21 UNK         0.5000 
    118 O         -3.7080  -16.2745  -51.4054 O.2       21 UNK        -0.5000 
    119 N         -4.3743  -18.3596  -50.8002 N.am      22 UNK        -0.5000 
    120 CA        -3.3675  -18.6048  -49.7568 C.3       22 UNK         0.1400 
    121 C         -3.5807  -17.7144  -48.4976 C.2       22 UNK         0.5000 
    122 N         -4.7840  -17.6603  -47.9396 N.am      22 UNK        -0.7600 
    123 O         -2.6553  -17.0534  -48.0381 O.2       22 UNK        -0.5000 
    124 C124       -3.2800  -20.1157  -49.4130 C.3       23 UNK        -0.0398 
    125 S125       -1.8938  -20.5440  -48.3058 S.3       23 UNK        -0.2404 
    126 C126       -0.5353  -20.7906  -49.4845 C.3       23 UNK        -0.0205 
    127 H127        4.5402  -13.4501  -53.9115 H         1 UNK         0.0600 
    128 H128        2.8437  -13.9395  -53.8440 H         1 UNK         0.0600 
    129 H129        4.1182  -15.1616  -53.8042 H         1 UNK         0.0600 
    130 H130        4.4318  -15.9957  -51.7494 H         1 UNK         0.3000 
    131 H131        4.8473  -14.3164  -49.4743 H         1 UNK         0.0600 
    132 H132        5.3400  -16.3509  -48.2471 H         1 UNK         0.0800 
    133 H133        6.1389  -16.3730  -49.7841 H         1 UNK         0.0800 
    134 H134        4.5604  -18.6127  -47.3775 H         1 UNK         0.0800 
    135 H135        3.1316  -17.6671  -47.7068 H         1 UNK         0.0800 
    136 H136        1.2870  -18.7762  -49.2140 H         1 UNK         0.1150 
    137 H137        0.6246  -22.8706  -48.1785 H         1 UNK         0.1150 
    138 H138        4.3133  -20.9650  -47.1112 H         1 UNK         0.1150 
    139 H139        2.2283  -24.1125  -46.9468 H         1 UNK         0.0800 
    140 H140        3.8355  -23.7569  -47.5132 H         1 UNK         0.0800 
    141 H141        1.7140  -21.6033  -45.1458 H         1 UNK         0.0800 
    142 H142        2.6615  -21.5560  -43.7041 H         1 UNK         0.0800 
    143 H143        1.7174  -23.7439  -42.9561 H         1 UNK         0.0600 
    144 H144        0.1678  -21.3186  -43.1571 H         1 UNK         0.3000 
    145 H145       -2.3754  -22.2437  -40.8871 H         1 UNK         0.0600 
    146 H146       -1.5323  -20.3625  -39.5216 H         1 UNK         0.0600 
    147 H147       -0.4888  -21.7597  -39.3141 H         1 UNK         0.0600 
    148 H148        0.0295  -20.4251  -40.3379 H         1 UNK         0.0600 
    149 H149       -1.5852  -19.7377  -42.0532 H         1 UNK         0.3000 
    150 H150       -3.3413  -20.1772  -45.1405 H         1 UNK         0.0600 
    151 H151       -5.1045  -19.3863  -43.5679 H         1 UNK         0.0600 
    152 H152       -4.3868  -18.0347  -44.4332 H         1 UNK         0.0600 
    153 H153       -3.9392  -18.3472  -42.7564 H         1 UNK         0.0600 
    154 H154       -1.9148  -17.9361  -44.2231 H         1 UNK         0.3000 
    155 H155        1.3696  -18.9802  -45.2488 H         1 UNK         0.0600 
    156 H156        1.1696  -16.8258  -46.3943 H         1 UNK         0.0600 
    157 H157       -0.5635  -16.7564  -46.0907 H         1 UNK         0.0600 
    158 H158        0.0854  -17.9757  -47.1658 H         1 UNK         0.0600 
    159 H159        0.2223  -16.7256  -43.7969 H         1 UNK         0.3000 
    160 H160        0.9954  -17.9445  -40.5594 H         1 UNK         0.0600 
    161 H161        2.4113  -15.7283  -42.1151 H         1 UNK         0.0600 
    162 H162        3.2174  -17.0827  -41.3328 H         1 UNK         0.0600 
    163 H163        2.3505  -15.8994  -40.3640 H         1 UNK         0.0600 
    164 H164        0.0413  -15.4207  -41.6154 H         1 UNK         0.3000 
    165 H165       -3.4118  -16.3034  -41.5439 H         1 UNK         0.0600 
    166 H166       -3.5597  -14.4352  -39.9293 H         1 UNK         0.0600 
    167 H167       -2.8962  -15.8550  -39.1368 H         1 UNK         0.0600 
    168 H168       -1.8287  -14.5362  -39.6038 H         1 UNK         0.0600 
    169 H169       -2.2209  -13.7936  -41.9607 H         1 UNK         0.3000 
    170 H170       -2.4484  -13.9418  -45.4145 H         1 UNK         0.0600 
    171 H171       -3.4451  -12.5121  -43.6074 H         1 UNK         0.0600 
    172 H172       -1.8284  -12.1140  -43.0263 H         1 UNK         0.0600 
    173 H173       -2.3381  -11.6185  -44.6332 H         1 UNK         0.0600 
    174 H174       -0.3578  -13.5328  -45.9296 H         1 UNK         0.3000 
    175 H175        2.3483  -12.2196  -44.3178 H         1 UNK         0.0600 
    176 H176        2.5390  -15.1747  -45.0959 H         1 UNK         0.0600 
    177 H177        3.8562  -14.0205  -45.2982 H         1 UNK         0.0600 
    178 H178        3.2547  -14.3802  -43.6949 H         1 UNK         0.0600 
    179 H179        2.0693  -13.4334  -46.9226 H         1 UNK         0.3000 
    180 H180       -0.0110  -11.0115  -48.3583 H         1 UNK         0.0600 
    181 H181        1.8083  -10.4150  -49.9411 H         1 UNK         0.0600 
    182 H182        3.0239  -11.0064  -48.8094 H         1 UNK         0.0600 
    183 H183        2.0546   -9.5924  -48.4087 H         1 UNK         0.0600 
    184 H184        1.6904  -12.9092  -49.6037 H         1 UNK         0.3000 
    185 H185        0.2755  -15.9167  -48.6216 H         1 UNK         0.0600 
    186 H186       -0.3429  -14.6573  -51.3441 H         1 UNK         0.0600 
    187 H187       -0.3653  -16.3806  -50.9559 H         1 UNK         0.0600 
    188 H188       -1.5387  -15.3005  -50.2248 H         1 UNK         0.0600 
    189 H189        1.9589  -15.4168  -50.8157 H         1 UNK         0.3000 
    190 H190       -0.5419  -22.4455  -45.4034 H         1 UNK         0.3000 
    191 H191       -2.0103  -23.2385  -46.7982 H         1 UNK         0.0600 
    192 H192       -3.3750  -25.1986  -46.1213 H         1 UNK         0.0600 
    193 H193       -3.0306  -24.1715  -44.7411 H         1 UNK         0.0600 
    194 H194       -2.1497  -25.6809  -44.9564 H         1 UNK         0.0600 
    195 H195        0.4747  -25.6556  -46.2601 H         1 UNK         0.3000 
    196 H196       -0.1048  -27.6134  -48.0115 H         1 UNK         0.0600 
    197 H197        2.6897  -26.5866  -47.2892 H         1 UNK         0.0600 
    198 H198        1.7073  -27.6946  -46.3329 H         1 UNK         0.0600 
    199 H199        2.3260  -28.1970  -47.8976 H         1 UNK         0.0600 
    200 H200        1.3591  -24.5605  -49.0712 H         1 UNK         0.3000 
    201 H201        2.0961  -25.5246  -51.7079 H         1 UNK         0.0600 
    202 H202        1.7652  -22.6274  -50.7912 H         1 UNK         0.0600 
    203 H203        2.7020  -23.2215  -52.1462 H         1 UNK         0.0600 
    204 H204        3.2235  -23.5809  -50.5081 H         1 UNK         0.0600 
    205 H205       -0.8819  -24.6572  -50.2927 H         1 UNK         0.3000 
    206 H206       -2.9419  -24.4832  -50.8878 H         1 UNK         0.0600 
    207 H207       -2.5193  -26.5389  -52.1971 H         1 UNK         0.0600 
    208 H208       -3.7448  -25.5483  -52.9735 H         1 UNK         0.0600 
    209 H209       -2.1114  -25.5843  -53.6216 H         1 UNK         0.0600 
    210 H210       -0.9315  -23.0238  -53.4144 H         1 UNK         0.3000 
    211 H211       -1.0575  -21.2010  -54.6859 H         1 UNK         0.0600 
    212 H212       -1.9629  -19.1179  -53.7359 H         1 UNK         0.0600 
    213 H213       -1.1579  -20.0232  -52.4680 H         1 UNK         0.0600 
    214 H214       -2.9212  -20.0127  -52.5699 H         1 UNK         0.0600 
    215 H215       -3.0521  -23.3227  -55.0492 H         1 UNK         0.3000 
    216 H216       -4.6416  -23.9830  -56.3997 H         1 UNK         0.0600 
    217 H217       -5.4258  -22.6633  -58.3053 H         1 UNK         0.0600 
    218 H218       -4.8256  -21.1733  -57.5999 H         1 UNK         0.0600 
    219 H219       -3.6963  -22.4239  -58.1225 H         1 UNK         0.0600 
    220 H220       -5.2706  -21.8104  -53.9278 H         1 UNK         0.3000 
    221 H221       -7.8895  -22.7880  -53.4868 H         1 UNK         0.0600 
    222 H222       -8.6220  -21.1139  -55.1910 H         1 UNK         0.0600 
    223 H223       -7.6779  -19.8529  -54.4033 H         1 UNK         0.0600 
    224 H224       -9.0835  -20.5426  -53.6005 H         1 UNK         0.0600 
    225 H225       -8.3321  -22.5455  -51.3066 H         1 UNK         0.3000 
    226 H226       -6.3355  -21.6886  -49.5041 H         1 UNK         0.0600 
    227 H227       -9.3306  -22.1597  -49.0423 H         1 UNK         0.0600 
    228 H228       -8.0574  -23.3760  -48.9319 H         1 UNK         0.0600 
    229 H229       -8.1097  -22.0520  -47.7796 H         1 UNK         0.0600 
    230 H230       -9.0698  -19.9453  -50.8967 H         1 UNK         0.3000 
    231 H231       -8.9427  -17.6023  -49.2404 H         1 UNK         0.0600 
    232 H232      -10.0895  -18.0325  -52.0533 H         1 UNK         0.0600 
    233 H233      -10.4024  -16.6392  -51.0253 H         1 UNK         0.0600 
    234 H234      -10.9684  -18.2279  -50.5359 H         1 UNK         0.0600 
    235 H235       -7.0340  -18.6868  -51.9964 H         1 UNK         0.3000 
    236 H236       -5.9157  -16.0167  -52.5549 H         1 UNK         0.0600 
    237 H237       -4.6023  -17.2053  -54.2699 H         1 UNK         0.0600 
    238 H238       -5.2092  -18.7573  -53.7245 H         1 UNK         0.0600 
    239 H239       -6.3082  -17.5857  -54.4485 H         1 UNK         0.0600 
    240 H240       -5.0409  -19.1019  -50.9789 H         1 UNK         0.3000 
    241 H241       -2.4048  -18.3174  -50.1842 H         1 UNK         0.0600 
    242 H242       -4.9209  -17.0741  -47.1335 H         1 UNK         0.3800 
    243 H243       -5.5535  -18.2325  -48.2821 H         1 UNK         0.3800 
    244 H244       -3.1875  -20.7072  -50.3237 H         1 UNK         0.0800 
    245 H245       -4.2047  -20.4466  -48.9386 H         1 UNK         0.0800 
    246 H246       -0.5433  -19.9821  -50.2155 H         1 UNK         0.0800 
    247 H247       -0.6980  -21.7153  -50.0400 H         1 UNK         0.0800 
@<TRIPOS>BOND
     1    1    2 1    
     2    1  127 1    
     3    1  128 1    
     4    1  129 1    
     5    2    3 2    
     6    2    4 am   BACKBONE|DICT|INTERRES
     7    4    5 1    
     8    4  130 1    
     9    5    6 1    
    10    5   65 1    
    11    5  131 1    
    12    6    7 1    
    13    6  132 1    
    14    6  133 1    
    15    7    8 1    
    16    8    9 1    
    17    8  134 1    
    18    8  135 1    
    19    9   10 ar   
    20    9   14 ar   
    21   10   11 ar   
    22   10  136 1    
    23   11   12 ar   
    24   11  126 1    
    25   12   13 ar   
    26   12  137 1    
    27   13   14 ar   
    28   13   15 1    
    29   14  138 1    
    30   15   16 1    
    31   15  139 1    
    32   15  140 1    
    33   16   17 1    
    34   17   18 1    
    35   17  141 1    
    36   17  142 1    
    37   18   19 1    
    38   18   67 1    
    39   18  143 1    
    40   19   20 am   BACKBONE|DICT|INTERRES
    41   19  144 1    
    42   20   21 2    
    43   20   22 1    
    44   22   23 1    
    45   22   24 1    
    46   22  145 1    
    47   23  146 1    
    48   23  147 1    
    49   23  148 1    
    50   24   25 am   BACKBONE|DICT|INTERRES
    51   24  149 1    
    52   25   26 2    
    53   25   27 1    
    54   27   28 1    
    55   27   29 1    
    56   27  150 1    
    57   28  151 1    
    58   28  152 1    
    59   28  153 1    
    60   29   30 am   BACKBONE|DICT|INTERRES
    61   29  154 1    
    62   30   31 2    
    63   30   32 1    
    64   32   33 1    
    65   32   34 1    
    66   32  155 1    
    67   33  156 1    
    68   33  157 1    
    69   33  158 1    
    70   34   35 am   BACKBONE|DICT|INTERRES
    71   34  159 1    
    72   35   36 2    
    73   35   37 1    
    74   37   38 1    
    75   37   39 1    
    76   37  160 1    
    77   38  161 1    
    78   38  162 1    
    79   38  163 1    
    80   39   40 am   BACKBONE|DICT|INTERRES
    81   39  164 1    
    82   40   41 2    
    83   40   42 1    
    84   42   43 1    
    85   42   44 1    
    86   42  165 1    
    87   43  166 1    
    88   43  167 1    
    89   43  168 1    
    90   44   45 am   BACKBONE|DICT|INTERRES
    91   44  169 1    
    92   45   46 2    
    93   45   47 1    
    94   47   48 1    
    95   47   49 1    
    96   47  170 1    
    97   48  171 1    
    98   48  172 1    
    99   48  173 1    
   100   49   50 am   BACKBONE|DICT|INTERRES
   101   49  174 1    
   102   50   51 2    
   103   50   52 1    
   104   52   53 1    
   105   52   54 1    
   106   52  175 1    
   107   53  176 1    
   108   53  177 1    
   109   53  178 1    
   110   54   55 am   BACKBONE|DICT|INTERRES
   111   54  179 1    
   112   55   56 2    
   113   55   57 1    
   114   57   58 1    
   115   57   59 1    
   116   57  180 1    
   117   58  181 1    
   118   58  182 1    
   119   58  183 1    
   120   59   60 am   BACKBONE|DICT|INTERRES
   121   59  184 1    
   122   60   61 2    
   123   60   62 1    
   124   62   63 1    
   125   62   64 1    
   126   62  185 1    
   127   63  186 1    
   128   63  187 1    
   129   63  188 1    
   130   64   65 am   BACKBONE|DICT|INTERRES
   131   64  189 1    
   132   65   66 2    
   133   67   68 2    
   134   67   69 am   BACKBONE|DICT|INTERRES
   135   69   70 1    
   136   69  190 1    
   137   70   71 1    
   138   70   72 1    
   139   70  191 1    
   140   71  192 1    
   141   71  193 1    
   142   71  194 1    
   143   72   73 2    
   144   72   74 am   BACKBONE|DICT|INTERRES
   145   74   75 1    
   146   74  195 1    
   147   75   76 1    
   148   75   77 1    
   149   75  196 1    
   150   76  197 1    
   151   76  198 1    
   152   76  199 1    
   153   77   78 2    
   154   77   79 am   BACKBONE|DICT|INTERRES
   155   79   80 1    
   156   79  200 1    
   157   80   81 1    
   158   80   82 1    
   159   80  201 1    
   160   81  202 1    
   161   81  203 1    
   162   81  204 1    
   163   82   83 2    
   164   82   84 am   BACKBONE|DICT|INTERRES
   165   84   85 1    
   166   84  205 1    
   167   85   86 1    
   168   85   87 1    
   169   85  206 1    
   170   86  207 1    
   171   86  208 1    
   172   86  209 1    
   173   87   88 2    
   174   87   89 am   BACKBONE|DICT|INTERRES
   175   89   90 1    
   176   89  210 1    
   177   90   91 1    
   178   90   92 1    
   179   90  211 1    
   180   91  212 1    
   181   91  213 1    
   182   91  214 1    
   183   92   93 2    
   184   92   94 am   BACKBONE|DICT|INTERRES
   185   94   95 1    
   186   94  215 1    
   187   95   96 1    
   188   95   97 1    
   189   95  216 1    
   190   96  217 1    
   191   96  218 1    
   192   96  219 1    
   193   97   98 2    
   194   97   99 am   BACKBONE|DICT|INTERRES
   195   99  100 1    
   196   99  220 1    
   197  100  101 1    
   198  100  102 1    
   199  100  221 1    
   200  101  222 1    
   201  101  223 1    
   202  101  224 1    
   203  102  103 2    
   204  102  104 am   BACKBONE|DICT|INTERRES
   205  104  105 1    
   206  104  225 1    
   207  105  106 1    
   208  105  107 1    
   209  105  226 1    
   210  106  227 1    
   211  106  228 1    
   212  106  229 1    
   213  107  108 2    
   214  107  109 am   BACKBONE|DICT|INTERRES
   215  109  110 1    
   216  109  230 1    
   217  110  111 1    
   218  110  112 1    
   219  110  231 1    
   220  111  232 1    
   221  111  233 1    
   222  111  234 1    
   223  112  113 2    
   224  112  114 am   BACKBONE|DICT|INTERRES
   225  114  115 1    
   226  114  235 1    
   227  115  116 1    
   228  115  117 1    
   229  115  236 1    
   230  116  237 1    
   231  116  238 1    
   232  116  239 1    
   233  117  118 2    
   234  117  119 am   BACKBONE|DICT|INTERRES
   235  119  120 1    
   236  119  240 1    
   237  120  121 1    
   238  120  124 1    
   239  120  241 1    
   240  121  122 am   BACKBONE|DICT|INTERRES
   241  121  123 2    
   242  122  242 1    
   243  122  243 1    
   244  124  125 1    
   245  124  244 1    
   246  124  245 1    
   247  125  126 1    
   248  126  246 1    
   249  126  247 1    
@<TRIPOS>SUBSTRUCTURE
     1 UNK         1 GROUP             0       ****    0 ROOT    
