@<TRIPOS>MOLECULE
3R540
247   249    1
SMALL
USER_CHARGES


@<TRIPOS>ATOM
      1 CA         -0.5396  -16.2158  -53.3058 C.3       0 UNK        -0.1800 
      2 C           0.0897  -15.4273  -52.1683 C.2       0 UNK         0.5000 
      3 O           1.0474  -14.6877  -52.3946 O.2       0 UNK        -0.5000 
      4 N          -0.4381  -15.5980  -50.9527 N.am      1 UNK        -0.5000 
      5 CA          0.0647  -14.9960  -49.7140 C.3       1 UNK         0.1400 
      6 C6          0.5615  -16.0948  -48.7385 C.3       23 UNK        -0.0398 
      7 S7          2.2124  -15.7637  -48.0490 S.3       23 UNK        -0.2404 
      8 C8          3.3052  -16.4050  -49.3588 C.3       23 UNK        -0.0205 
      9 C9          3.2258  -17.9178  -49.5328 C.ar      23 UNK        -0.0193 
     10 C10         2.4802  -18.4616  -50.5822 C.ar      23 UNK        -0.1150 
     11 C11         2.4416  -19.8432  -50.7929 C.ar      23 UNK        -0.0193 
     12 C12         3.1844  -20.6809  -49.9539 C.ar      23 UNK        -0.1150 
     13 C13         3.9516  -20.1541  -48.9079 C.ar      23 UNK        -0.0193 
     14 C14         3.9520  -18.7703  -48.6947 C.ar      23 UNK        -0.1150 
     15 C15         4.8713  -21.0477  -48.0750 C.3       23 UNK        -0.0205 
     16 S16         4.1406  -22.6394  -47.5555 S.3       23 UNK        -0.2404 
     17 C17         3.0477  -22.0975  -46.2011 C.3       23 UNK        -0.0398 
     18 CA          1.6582  -22.7811  -46.1658 C.3       11 UNK         0.1400 
     19 N           0.8985  -22.3407  -44.9900 N.am      11 UNK        -0.5000 
     20 C          -0.3018  -22.8060  -44.6166 C.2       10 UNK         0.5000 
     21 O          -0.8851  -23.7262  -45.1852 O.2       10 UNK        -0.5000 
     22 CA         -0.9935  -22.0916  -43.4425 C.3       10 UNK         0.1400 
     23 CB         -0.4591  -22.6108  -42.0998 C.3       10 UNK        -0.1800 
     24 N          -0.8581  -20.6347  -43.5104 N.am      10 UNK        -0.5000 
     25 C          -1.3798  -19.8703  -44.4827 C.2       9 UNK         0.5000 
     26 O          -2.0801  -20.3124  -45.3923 O.2       9 UNK        -0.5000 
     27 CA         -1.0140  -18.3742  -44.4748 C.3       9 UNK         0.1400 
     28 CB         -1.8807  -17.5927  -43.4771 C.3       9 UNK        -0.1800 
     29 N           0.3978  -18.1530  -44.1713 N.am      9 UNK        -0.5000 
     30 C           1.4168  -18.5648  -44.9361 C.2       8 UNK         0.5000 
     31 O           1.2696  -19.1248  -46.0209 O.2       8 UNK        -0.5000 
     32 CA          2.8304  -18.3850  -44.3553 C.3       8 UNK         0.1400 
     33 CB          3.3607  -16.9638  -44.5847 C.3       8 UNK        -0.1800 
     34 N           2.8694  -18.6848  -42.9250 N.am      8 UNK        -0.5000 
     35 C           2.7972  -19.9167  -42.4066 C.2       7 UNK         0.5000 
     36 O           2.6979  -20.9375  -43.0872 O.2       7 UNK        -0.5000 
     37 CA          2.8148  -20.0212  -40.8699 C.3       7 UNK         0.1400 
     38 CB          4.2574  -19.9950  -40.3434 C.3       7 UNK        -0.1800 
     39 N           2.0405  -18.9640  -40.2152 N.am      7 UNK        -0.5000 
     40 C           0.7056  -18.8686  -40.2756 C.2       6 UNK         0.5000 
     41 O          -0.0073  -19.6588  -40.8923 O.2       6 UNK        -0.5000 
     42 CA          0.0563  -17.6647  -39.5666 C.3       6 UNK         0.1400 
     43 CB         -0.0732  -17.9334  -38.0596 C.3       6 UNK        -0.1800 
     44 N           0.7240  -16.3734  -39.7748 N.am      6 UNK        -0.5000 
     45 C           1.0644  -15.8550  -40.9621 C.2       5 UNK         0.5000 
     46 O           1.0325  -16.4847  -42.0203 O.2       5 UNK        -0.5000 
     47 CA          1.5319  -14.3865  -40.9755 C.3       5 UNK         0.1400 
     48 CB          3.0424  -14.3080  -40.7068 C.3       5 UNK        -0.1800 
     49 N           1.2473  -13.7476  -42.2639 N.am      5 UNK        -0.5000 
     50 C           0.0216  -13.5916  -42.7845 C.2       4 UNK         0.5000 
     51 O          -1.0176  -13.8045  -42.1523 O.2       4 UNK        -0.5000 
     52 CA         -0.0338  -13.1591  -44.2641 C.3       4 UNK         0.1400 
     53 CB          0.7201  -14.1539  -45.1634 C.3       4 UNK        -0.1800 
     54 N          -1.4078  -13.0760  -44.7496 N.am      4 UNK        -0.5000 
     55 C          -2.2506  -12.0581  -44.5580 C.2       3 UNK         0.5000 
     56 O          -1.9297  -11.0020  -44.0084 O.2       3 UNK        -0.5000 
     57 CA         -3.6860  -12.2626  -45.0937 C.3       3 UNK         0.1400 
     58 CB         -4.5908  -11.0405  -44.8524 C.3       3 UNK        -0.1800 
     59 N          -3.7096  -12.5861  -46.5231 N.am      3 UNK        -0.5000 
     60 C          -3.4044  -13.7698  -47.0716 C.2       2 UNK         0.5000 
     61 O          -3.0727  -14.7569  -46.4106 O.2       2 UNK        -0.5000 
     62 CA         -3.4784  -13.8862  -48.6092 C.3       2 UNK         0.1400 
     63 CB         -3.7717  -12.5562  -49.3410 C.3       2 UNK        -0.1800 
     64 N          -2.2830  -14.5292  -49.1622 N.am      2 UNK        -0.5000 
     65 C          -1.0126  -14.1044  -49.0677 C.2       1 UNK         0.5000 
     66 O          -0.6784  -13.0510  -48.5246 O.2       1 UNK        -0.5000 
     67 C           0.8599  -22.5674  -47.4714 C.2       11 UNK         0.5000 
     68 O           0.7693  -23.4777  -48.2959 O.2       11 UNK        -0.5000 
     69 N           0.2583  -21.3814  -47.6079 N.am      12 UNK        -0.5000 
     70 CA         -0.5686  -20.9985  -48.7459 C.3       12 UNK         0.1400 
     71 CB         -0.8007  -19.4899  -48.6707 C.3       12 UNK        -0.1800 
     72 C          -1.8945  -21.7767  -48.8180 C.2       12 UNK         0.5000 
     73 O          -2.3129  -22.1664  -49.9080 O.2       12 UNK        -0.5000 
     74 N          -2.5184  -22.0284  -47.6595 N.am      13 UNK        -0.5000 
     75 CA         -3.7064  -22.8723  -47.5335 C.3       13 UNK         0.1400 
     76 CB         -4.3026  -22.7243  -46.1271 C.3       13 UNK        -0.1800 
     77 C          -3.4111  -24.3494  -47.8549 C.2       13 UNK         0.5000 
     78 O          -4.2158  -24.9995  -48.5197 O.2       13 UNK        -0.5000 
     79 N          -2.2444  -24.8493  -47.4290 N.am      14 UNK        -0.5000 
     80 CA         -1.7684  -26.2021  -47.7237 C.3       14 UNK         0.1400 
     81 CB         -0.5351  -26.5106  -46.8606 C.3       14 UNK        -0.1800 
     82 C          -1.4645  -26.4453  -49.2162 C.2       14 UNK         0.5000 
     83 O          -1.4535  -27.6027  -49.6376 O.2       14 UNK        -0.5000 
     84 N          -1.2280  -25.3725  -49.9871 N.am      15 UNK        -0.5000 
     85 CA         -0.9736  -25.4299  -51.4249 C.3       15 UNK         0.1400 
     86 CB         -0.4213  -24.0844  -51.9242 C.3       15 UNK        -0.1800 
     87 C          -2.2182  -25.8646  -52.2211 C.2       15 UNK         0.5000 
     88 O          -2.1370  -26.8479  -52.9592 O.2       15 UNK        -0.5000 
     89 N          -3.3433  -25.1516  -52.0503 N.am      16 UNK        -0.5000 
     90 CA         -4.5945  -25.4161  -52.7727 C.3       16 UNK         0.1400 
     91 CB         -4.4455  -25.0694  -54.2717 C.3       16 UNK        -0.1800 
     92 C          -5.8085  -24.7005  -52.1467 C.2       16 UNK         0.5000 
     93 O          -6.6952  -24.2642  -52.8832 O.2       16 UNK        -0.5000 
     94 N          -5.8417  -24.5695  -50.8117 N.am      17 UNK        -0.5000 
     95 CA         -6.8884  -23.9528  -49.9759 C.3       17 UNK         0.1400 
     96 CB         -8.2468  -24.6592  -50.1497 C.3       17 UNK        -0.1800 
     97 C          -7.0305  -22.4257  -50.1316 C.2       17 UNK         0.5000 
     98 O          -7.1177  -21.7198  -49.1259 O.2       17 UNK        -0.5000 
     99 N          -7.0444  -21.9390  -51.3761 N.am      18 UNK        -0.5000 
    100 CA        -7.1218  -20.5336  -51.7588 C.3       18 UNK         0.1400 
    101 CB        -7.5458  -20.4495  -53.2359 C.3       18 UNK        -0.1800 
    102 C         -5.7836  -19.8192  -51.5010 C.2       18 UNK         0.5000 
    103 O         -5.0099  -19.6003  -52.4341 O.2       18 UNK        -0.5000 
    104 N         -5.5295  -19.4625  -50.2360 N.am      19 UNK        -0.5000 
    105 CA        -4.2983  -18.8268  -49.7524 C.3       19 UNK         0.1400 
    106 CB        -4.3931  -18.6546  -48.2283 C.3       19 UNK        -0.1800 
    107 C         -3.9422  -17.4831  -50.4224 C.2       19 UNK         0.5000 
    108 O         -2.7829  -17.0701  -50.3807 O.2       19 UNK        -0.5000 
    109 N         -4.9315  -16.8220  -51.0343 N.am      20 UNK        -0.5000 
    110 CA        -4.7613  -15.6071  -51.8303 C.3       20 UNK         0.1400 
    111 CB        -6.1167  -14.8908  -51.9275 C.3       20 UNK        -0.1800 
    112 C         -4.1735  -15.8571  -53.2347 C.2       20 UNK         0.5000 
    113 O         -3.7589  -14.8910  -53.8756 O.2       20 UNK        -0.5000 
    114 N         -4.1532  -17.1164  -53.6956 N.am      21 UNK        -0.5000 
    115 CA        -3.6905  -17.5033  -55.0306 C.3       21 UNK         0.1400 
    116 CB        -4.9098  -17.9052  -55.8768 C.3       21 UNK        -0.1800 
    117 C         -2.6582  -18.6447  -55.0100 C.2       21 UNK         0.5000 
    118 O         -1.8190  -18.6964  -55.9093 O.2       21 UNK        -0.5000 
    119 N         -2.7473  -19.5454  -54.0204 N.am      22 UNK        -0.5000 
    120 CA        -1.9796  -20.8023  -53.9083 C.3       22 UNK         0.1400 
    121 C         -2.3317  -21.8629  -54.9997 C.2       22 UNK         0.5000 
    122 N         -3.4357  -21.7295  -55.7257 N.am      22 UNK        -0.7600 
    123 O         -1.6132  -22.8425  -55.1767 O.2       22 UNK        -0.5000 
    124 C124       -0.4443  -20.5924  -53.7685 C.3       23 UNK        -0.0398 
    125 S125        0.0296  -19.7061  -52.2480 S.3       23 UNK        -0.2404 
    126 C126        1.6796  -20.4381  -51.9732 C.3       23 UNK        -0.0205 
    127 H127       -1.0031  -15.5408  -54.0248 H         1 UNK         0.0600 
    128 H128       -1.3000  -16.9046  -52.9382 H         1 UNK         0.0600 
    129 H129        0.2193  -16.8020  -53.8242 H         1 UNK         0.0600 
    130 H130       -1.2355  -16.2213  -50.8436 H         1 UNK         0.3000 
    131 H131        0.8978  -14.3315  -49.9520 H         1 UNK         0.0600 
    132 H132        0.6141  -17.0465  -49.2571 H         1 UNK         0.0800 
    133 H133       -0.1293  -16.2663  -47.9102 H         1 UNK         0.0800 
    134 H134        4.3323  -16.1259  -49.1202 H         1 UNK         0.0800 
    135 H135        3.0686  -15.9012  -50.2976 H         1 UNK         0.0800 
    136 H136        1.9397  -17.8041  -51.2481 H         1 UNK         0.1150 
    137 H137        3.1944  -21.7460  -50.1377 H         1 UNK         0.1150 
    138 H138        4.5519  -18.3472  -47.9013 H         1 UNK         0.1150 
    139 H139        5.7585  -21.2609  -48.6724 H         1 UNK         0.0800 
    140 H140        5.2242  -20.5182  -47.1885 H         1 UNK         0.0800 
    141 H141        2.9316  -21.0169  -46.2577 H         1 UNK         0.0800 
    142 H142        3.5740  -22.2916  -45.2658 H         1 UNK         0.0800 
    143 H143        1.8163  -23.8560  -46.0572 H         1 UNK         0.0600 
    144 H144        1.3300  -21.6167  -44.4254 H         1 UNK         0.3000 
    145 H145       -2.0581  -22.3280  -43.4935 H         1 UNK         0.0600 
    146 H146       -1.0199  -22.1908  -41.2648 H         1 UNK         0.0600 
    147 H147        0.5919  -22.3586  -41.9584 H         1 UNK         0.0600 
    148 H148       -0.5486  -23.6959  -42.0366 H         1 UNK         0.0600 
    149 H149       -0.3430  -20.1920  -42.7555 H         1 UNK         0.3000 
    150 H150       -1.2061  -17.9784  -45.4745 H         1 UNK         0.0600 
    151 H151       -2.9411  -17.7196  -43.6984 H         1 UNK         0.0600 
    152 H152       -1.6640  -16.5248  -43.5205 H         1 UNK         0.0600 
    153 H153       -1.7138  -17.9252  -42.4522 H         1 UNK         0.0600 
    154 H154        0.6109  -17.6609  -43.3051 H         1 UNK         0.3000 
    155 H155        3.4974  -19.0784  -44.8714 H         1 UNK         0.0600 
    156 H156        3.4212  -16.7414  -45.6487 H         1 UNK         0.0600 
    157 H157        4.3638  -16.8461  -44.1748 H         1 UNK         0.0600 
    158 H158        2.7203  -16.2133  -44.1223 H         1 UNK         0.0600 
    159 H159        2.8466  -17.8932  -42.2976 H         1 UNK         0.3000 
    160 H160        2.3733  -20.9828  -40.5995 H         1 UNK         0.0600 
    161 H161        4.7487  -19.0451  -40.5580 H         1 UNK         0.0600 
    162 H162        4.8543  -20.7845  -40.8020 H         1 UNK         0.0600 
    163 H163        4.2863  -20.1523  -39.2650 H         1 UNK         0.0600 
    164 H164        2.5546  -18.2634  -39.7017 H         1 UNK         0.3000 
    165 H165       -0.9513  -17.5642  -39.9748 H         1 UNK         0.0600 
    166 H166       -0.6555  -17.1540  -37.5678 H         1 UNK         0.0600 
    167 H167       -0.5802  -18.8811  -37.8728 H         1 UNK         0.0600 
    168 H168        0.9021  -17.9813  -37.5738 H         1 UNK         0.0600 
    169 H169        0.8138  -15.7903  -38.9554 H         1 UNK         0.3000 
    170 H170        0.9991  -13.8385  -40.1958 H         1 UNK         0.0600 
    171 H171        3.6145  -14.8398  -41.4685 H         1 UNK         0.0600 
    172 H172        3.3870  -13.2739  -40.6887 H         1 UNK         0.0600 
    173 H173        3.2928  -14.7490  -39.7411 H         1 UNK         0.0600 
    174 H174        2.0470  -13.5670  -42.8518 H         1 UNK         0.3000 
    175 H175        0.4362  -12.1776  -44.3527 H         1 UNK         0.0600 
    176 H176        0.3519  -15.1735  -45.0380 H         1 UNK         0.0600 
    177 H177        0.6128  -13.8884  -46.2148 H         1 UNK         0.0600 
    178 H178        1.7883  -14.1577  -44.9481 H         1 UNK         0.0600 
    179 H179       -1.7763  -13.9000  -45.2135 H         1 UNK         0.3000 
    180 H180       -4.1136  -13.1022  -44.5416 H         1 UNK         0.0600 
    181 H181       -5.6109  -11.2332  -45.1852 H         1 UNK         0.0600 
    182 H182       -4.2262  -10.1585  -45.3805 H         1 UNK         0.0600 
    183 H183       -4.6398  -10.7927  -43.7913 H         1 UNK         0.0600 
    184 H184       -3.9302  -11.8207  -47.1434 H         1 UNK         0.3000 
    185 H185       -4.3089  -14.5630  -48.8143 H         1 UNK         0.0600 
    186 H186       -3.0117  -11.8001  -49.1410 H         1 UNK         0.0600 
    187 H187       -3.8085  -12.7027  -50.4203 H         1 UNK         0.0600 
    188 H188       -4.7383  -12.1466  -49.0455 H         1 UNK         0.0600 
    189 H189       -2.4454  -15.4363  -49.5891 H         1 UNK         0.3000 
    190 H190        0.4254  -20.6639  -46.9082 H         1 UNK         0.3000 
    191 H191       -0.0031  -21.2170  -49.6528 H         1 UNK         0.0600 
    192 H192       -1.4532  -19.2170  -47.8424 H         1 UNK         0.0600 
    193 H193       -1.2328  -19.1074  -49.5934 H         1 UNK         0.0600 
    194 H194        0.1505  -18.9862  -48.5186 H         1 UNK         0.0600 
    195 H195       -2.1584  -21.6106  -46.8055 H         1 UNK         0.3000 
    196 H196       -4.4466  -22.5161  -48.2528 H         1 UNK         0.0600 
    197 H197       -4.5692  -21.6877  -45.9203 H         1 UNK         0.0600 
    198 H198       -3.6034  -23.0501  -45.3569 H         1 UNK         0.0600 
    199 H199       -5.2097  -23.3209  -46.0235 H         1 UNK         0.0600 
    200 H200       -1.6524  -24.2809  -46.8284 H         1 UNK         0.3000 
    201 H201       -2.5587  -26.9000  -47.4398 H         1 UNK         0.0600 
    202 H202       -0.7694  -26.4378  -45.7985 H         1 UNK         0.0600 
    203 H203        0.2853  -25.8245  -47.0705 H         1 UNK         0.0600 
    204 H204       -0.1716  -27.5225  -47.0431 H         1 UNK         0.0600 
    205 H205       -1.2235  -24.4588  -49.5544 H         1 UNK         0.3000 
    206 H206       -0.1962  -26.1795  -51.5882 H         1 UNK         0.0600 
    207 H207       -0.0944  -24.1641  -52.9616 H         1 UNK         0.0600 
    208 H208       -1.1676  -23.2927  -51.8854 H         1 UNK         0.0600 
    209 H209        0.4381  -23.7651  -51.3342 H         1 UNK         0.0600 
    210 H210       -3.3353  -24.3588  -51.4222 H         1 UNK         0.3000 
    211 H211       -4.8065  -26.4840  -52.6923 H         1 UNK         0.0600 
    212 H212       -4.2994  -23.9998  -54.4107 H         1 UNK         0.0600 
    213 H213       -5.3368  -25.3531  -54.8326 H         1 UNK         0.0600 
    214 H214       -3.6064  -25.5839  -54.7382 H         1 UNK         0.0600 
    215 H215       -5.0723  -24.9480  -50.2662 H         1 UNK         0.3000 
    216 H216       -6.5833  -24.1215  -48.9431 H         1 UNK         0.0600 
    217 H217       -8.9778  -24.2717  -49.4390 H         1 UNK         0.0600 
    218 H218       -8.1584  -25.7309  -49.9719 H         1 UNK         0.0600 
    219 H219       -8.6612  -24.5171  -51.1479 H         1 UNK         0.0600 
    220 H220       -6.9576  -22.6152  -52.1313 H         1 UNK         0.3000 
    221 H221       -7.8907  -20.0437  -51.1580 H         1 UNK         0.0600 
    222 H222       -6.8417  -20.9675  -53.8888 H         1 UNK         0.0600 
    223 H223       -8.5294  -20.8940  -53.3882 H         1 UNK         0.0600 
    224 H224       -7.6023  -19.4124  -53.5692 H         1 UNK         0.0600 
    225 H225       -6.1947  -19.7512  -49.5287 H         1 UNK         0.3000 
    226 H226       -3.4812  -19.5129  -49.9754 H         1 UNK         0.0600 
    227 H227       -4.4473  -19.6206  -47.7256 H         1 UNK         0.0600 
    228 H228       -3.5231  -18.1314  -47.8297 H         1 UNK         0.0600 
    229 H229       -5.2738  -18.0774  -47.9446 H         1 UNK         0.0600 
    230 H230       -5.8581  -17.2213  -51.0092 H         1 UNK         0.3000 
    231 H231       -4.0661  -14.9444  -51.3150 H         1 UNK         0.0600 
    232 H232       -6.0277  -13.9567  -52.4837 H         1 UNK         0.0600 
    233 H233       -6.5021  -14.6411  -50.9387 H         1 UNK         0.0600 
    234 H234       -6.8611  -15.5057  -52.4348 H         1 UNK         0.0600 
    235 H235       -4.5066  -17.8636  -53.1071 H         1 UNK         0.3000 
    236 H236       -3.2019  -16.6600  -55.5231 H         1 UNK         0.0600 
    237 H237       -5.4585  -18.7318  -55.4234 H         1 UNK         0.0600 
    238 H238       -5.6002  -17.0694  -55.9906 H         1 UNK         0.0600 
    239 H239       -4.6091  -18.2164  -56.8781 H         1 UNK         0.0600 
    240 H240       -3.5160  -19.4669  -53.3587 H         1 UNK         0.3000 
    241 H241       -2.3231  -21.2588  -52.9790 H         1 UNK         0.0600 
    242 H242       -4.0521  -20.9469  -55.5845 H         1 UNK         0.3800 
    243 H243       -3.6524  -22.4219  -56.4245 H         1 UNK         0.3800 
    244 H244        0.0636  -21.5577  -53.7517 H         1 UNK         0.0800 
    245 H245       -0.0372  -20.0605  -54.6284 H         1 UNK         0.0800 
    246 H246        2.2822  -20.3026  -52.8721 H         1 UNK         0.0800 
    247 H247        1.5599  -21.5137  -51.8355 H         1 UNK         0.0800 
@<TRIPOS>BOND
     1    1    2 1    
     2    1  127 1    
     3    1  128 1    
     4    1  129 1    
     5    2    3 2    
     6    2    4 am   BACKBONE|DICT|INTERRES
     7    4    5 1    
     8    4  130 1    
     9    5    6 1    
    10    5   65 1    
    11    5  131 1    
    12    6    7 1    
    13    6  132 1    
    14    6  133 1    
    15    7    8 1    
    16    8    9 1    
    17    8  134 1    
    18    8  135 1    
    19    9   10 ar   
    20    9   14 ar   
    21   10   11 ar   
    22   10  136 1    
    23   11   12 ar   
    24   11  126 1    
    25   12   13 ar   
    26   12  137 1    
    27   13   14 ar   
    28   13   15 1    
    29   14  138 1    
    30   15   16 1    
    31   15  139 1    
    32   15  140 1    
    33   16   17 1    
    34   17   18 1    
    35   17  141 1    
    36   17  142 1    
    37   18   19 1    
    38   18   67 1    
    39   18  143 1    
    40   19   20 am   BACKBONE|DICT|INTERRES
    41   19  144 1    
    42   20   21 2    
    43   20   22 1    
    44   22   23 1    
    45   22   24 1    
    46   22  145 1    
    47   23  146 1    
    48   23  147 1    
    49   23  148 1    
    50   24   25 am   BACKBONE|DICT|INTERRES
    51   24  149 1    
    52   25   26 2    
    53   25   27 1    
    54   27   28 1    
    55   27   29 1    
    56   27  150 1    
    57   28  151 1    
    58   28  152 1    
    59   28  153 1    
    60   29   30 am   BACKBONE|DICT|INTERRES
    61   29  154 1    
    62   30   31 2    
    63   30   32 1    
    64   32   33 1    
    65   32   34 1    
    66   32  155 1    
    67   33  156 1    
    68   33  157 1    
    69   33  158 1    
    70   34   35 am   BACKBONE|DICT|INTERRES
    71   34  159 1    
    72   35   36 2    
    73   35   37 1    
    74   37   38 1    
    75   37   39 1    
    76   37  160 1    
    77   38  161 1    
    78   38  162 1    
    79   38  163 1    
    80   39   40 am   BACKBONE|DICT|INTERRES
    81   39  164 1    
    82   40   41 2    
    83   40   42 1    
    84   42   43 1    
    85   42   44 1    
    86   42  165 1    
    87   43  166 1    
    88   43  167 1    
    89   43  168 1    
    90   44   45 am   BACKBONE|DICT|INTERRES
    91   44  169 1    
    92   45   46 2    
    93   45   47 1    
    94   47   48 1    
    95   47   49 1    
    96   47  170 1    
    97   48  171 1    
    98   48  172 1    
    99   48  173 1    
   100   49   50 am   BACKBONE|DICT|INTERRES
   101   49  174 1    
   102   50   51 2    
   103   50   52 1    
   104   52   53 1    
   105   52   54 1    
   106   52  175 1    
   107   53  176 1    
   108   53  177 1    
   109   53  178 1    
   110   54   55 am   BACKBONE|DICT|INTERRES
   111   54  179 1    
   112   55   56 2    
   113   55   57 1    
   114   57   58 1    
   115   57   59 1    
   116   57  180 1    
   117   58  181 1    
   118   58  182 1    
   119   58  183 1    
   120   59   60 am   BACKBONE|DICT|INTERRES
   121   59  184 1    
   122   60   61 2    
   123   60   62 1    
   124   62   63 1    
   125   62   64 1    
   126   62  185 1    
   127   63  186 1    
   128   63  187 1    
   129   63  188 1    
   130   64   65 am   BACKBONE|DICT|INTERRES
   131   64  189 1    
   132   65   66 2    
   133   67   68 2    
   134   67   69 am   BACKBONE|DICT|INTERRES
   135   69   70 1    
   136   69  190 1    
   137   70   71 1    
   138   70   72 1    
   139   70  191 1    
   140   71  192 1    
   141   71  193 1    
   142   71  194 1    
   143   72   73 2    
   144   72   74 am   BACKBONE|DICT|INTERRES
   145   74   75 1    
   146   74  195 1    
   147   75   76 1    
   148   75   77 1    
   149   75  196 1    
   150   76  197 1    
   151   76  198 1    
   152   76  199 1    
   153   77   78 2    
   154   77   79 am   BACKBONE|DICT|INTERRES
   155   79   80 1    
   156   79  200 1    
   157   80   81 1    
   158   80   82 1    
   159   80  201 1    
   160   81  202 1    
   161   81  203 1    
   162   81  204 1    
   163   82   83 2    
   164   82   84 am   BACKBONE|DICT|INTERRES
   165   84   85 1    
   166   84  205 1    
   167   85   86 1    
   168   85   87 1    
   169   85  206 1    
   170   86  207 1    
   171   86  208 1    
   172   86  209 1    
   173   87   88 2    
   174   87   89 am   BACKBONE|DICT|INTERRES
   175   89   90 1    
   176   89  210 1    
   177   90   91 1    
   178   90   92 1    
   179   90  211 1    
   180   91  212 1    
   181   91  213 1    
   182   91  214 1    
   183   92   93 2    
   184   92   94 am   BACKBONE|DICT|INTERRES
   185   94   95 1    
   186   94  215 1    
   187   95   96 1    
   188   95   97 1    
   189   95  216 1    
   190   96  217 1    
   191   96  218 1    
   192   96  219 1    
   193   97   98 2    
   194   97   99 am   BACKBONE|DICT|INTERRES
   195   99  100 1    
   196   99  220 1    
   197  100  101 1    
   198  100  102 1    
   199  100  221 1    
   200  101  222 1    
   201  101  223 1    
   202  101  224 1    
   203  102  103 2    
   204  102  104 am   BACKBONE|DICT|INTERRES
   205  104  105 1    
   206  104  225 1    
   207  105  106 1    
   208  105  107 1    
   209  105  226 1    
   210  106  227 1    
   211  106  228 1    
   212  106  229 1    
   213  107  108 2    
   214  107  109 am   BACKBONE|DICT|INTERRES
   215  109  110 1    
   216  109  230 1    
   217  110  111 1    
   218  110  112 1    
   219  110  231 1    
   220  111  232 1    
   221  111  233 1    
   222  111  234 1    
   223  112  113 2    
   224  112  114 am   BACKBONE|DICT|INTERRES
   225  114  115 1    
   226  114  235 1    
   227  115  116 1    
   228  115  117 1    
   229  115  236 1    
   230  116  237 1    
   231  116  238 1    
   232  116  239 1    
   233  117  118 2    
   234  117  119 am   BACKBONE|DICT|INTERRES
   235  119  120 1    
   236  119  240 1    
   237  120  121 1    
   238  120  124 1    
   239  120  241 1    
   240  121  122 am   BACKBONE|DICT|INTERRES
   241  121  123 2    
   242  122  242 1    
   243  122  243 1    
   244  124  125 1    
   245  124  244 1    
   246  124  245 1    
   247  125  126 1    
   248  126  246 1    
   249  126  247 1    
@<TRIPOS>SUBSTRUCTURE
     1 UNK         1 GROUP             0       ****    0 ROOT    
