@<TRIPOS>MOLECULE
3R540
247   249    1
SMALL
USER_CHARGES


@<TRIPOS>ATOM
      1 CA         -1.3403  -12.9704  -43.8848 C.3       0 UNK        -0.1800 
      2 C          -0.9231  -12.2510  -45.1597 C.2       0 UNK         0.5000 
      3 O          -1.7041  -11.4668  -45.6990 O.2       0 UNK        -0.5000 
      4 N           0.2996  -12.5069  -45.6334 N.am      1 UNK        -0.5000 
      5 CA          0.9143  -11.8409  -46.7840 C.3       1 UNK         0.1400 
      6 C6          0.8844  -12.7314  -48.0572 C.3       23 UNK        -0.0398 
      7 S7          2.0321  -14.1543  -48.0430 S.3       23 UNK        -0.2404 
      8 C8          1.7765  -14.8598  -49.7014 C.3       23 UNK        -0.0205 
      9 C9          0.8742  -16.0835  -49.6588 C.ar      23 UNK        -0.0193 
     10 C10        -0.5055  -15.9326  -49.4965 C.ar      23 UNK        -0.1150 
     11 C11        -1.3393  -17.0516  -49.4495 C.ar      23 UNK        -0.0193 
     12 C12        -0.7884  -18.3284  -49.5838 C.ar      23 UNK        -0.1150 
     13 C13         0.5864  -18.4942  -49.7713 C.ar      23 UNK        -0.0193 
     14 C14         1.4145  -17.3673  -49.7991 C.ar      23 UNK        -0.1150 
     15 C15         1.1640  -19.8908  -49.9695 C.3       23 UNK        -0.0205 
     16 S16         2.1865  -20.4564  -48.5688 S.3       23 UNK        -0.2404 
     17 C17         1.0238  -20.3608  -47.1685 C.3       23 UNK        -0.0398 
     18 CA          0.3659  -21.7087  -46.7916 C.3       11 UNK         0.1400 
     19 N          -0.1097  -21.6909  -45.4073 N.am      11 UNK        -0.5000 
     20 C          -0.6448  -22.7262  -44.7474 C.2       10 UNK         0.5000 
     21 O          -0.7264  -23.8641  -45.2065 O.2       10 UNK        -0.5000 
     22 CA         -1.2402  -22.4201  -43.3622 C.3       10 UNK         0.1400 
     23 CB         -0.1642  -22.4990  -42.2688 C.3       10 UNK        -0.1800 
     24 N          -1.8851  -21.1059  -43.3298 N.am      10 UNK        -0.5000 
     25 C          -3.0394  -20.8172  -43.9476 C.2       9 UNK         0.5000 
     26 O          -3.7090  -21.6484  -44.5615 O.2       9 UNK        -0.5000 
     27 CA         -3.4947  -19.3449  -43.9094 C.3       9 UNK         0.1400 
     28 CB         -4.1672  -19.0170  -42.5683 C.3       9 UNK        -0.1800 
     29 N          -2.3923  -18.4089  -44.1393 N.am      9 UNK        -0.5000 
     30 C          -1.7253  -18.2999  -45.2980 C.2       8 UNK         0.5000 
     31 O          -2.0199  -18.9343  -46.3092 O.2       8 UNK        -0.5000 
     32 CA         -0.4954  -17.3681  -45.3235 C.3       8 UNK         0.1400 
     33 CB         -0.9133  -15.9675  -45.7826 C.3       8 UNK        -0.1800 
     34 N           0.2097  -17.2748  -44.0407 N.am      8 UNK        -0.5000 
     35 C           0.6860  -18.3142  -43.3389 C.2       7 UNK         0.5000 
     36 O           0.6470  -19.4733  -43.7495 O.2       7 UNK        -0.5000 
     37 CA          1.2643  -18.0464  -41.9351 C.3       7 UNK         0.1400 
     38 CB          2.7857  -18.2578  -41.9149 C.3       7 UNK        -0.1800 
     39 N           0.9678  -16.7236  -41.3865 N.am      7 UNK        -0.5000 
     40 C          -0.2349  -16.2236  -41.0789 C.2       6 UNK         0.5000 
     41 O          -1.2878  -16.8404  -41.2473 O.2       6 UNK        -0.5000 
     42 CA         -0.2749  -14.7783  -40.5314 C.3       6 UNK         0.1400 
     43 CB         -0.1740  -14.7636  -38.9947 C.3       6 UNK        -0.1800 
     44 N           0.7044  -13.8660  -41.1488 N.am      6 UNK        -0.5000 
     45 C           2.0431  -13.8953  -41.0841 C.2       5 UNK         0.5000 
     46 O           2.6861  -14.6809  -40.3849 O.2       5 UNK        -0.5000 
     47 CA          2.7953  -12.9599  -42.0466 C.3       5 UNK         0.1400 
     48 CB          3.7301  -12.0070  -41.2865 C.3       5 UNK        -0.1800 
     49 N           3.5761  -13.7445  -43.0049 N.am      5 UNK        -0.5000 
     50 C           3.0497  -14.5639  -43.9242 C.2       4 UNK         0.5000 
     51 O           1.8372  -14.6809  -44.1175 O.2       4 UNK        -0.5000 
     52 CA          4.0527  -15.3301  -44.7961 C.3       4 UNK         0.1400 
     53 CB          3.4324  -16.5577  -45.4970 C.3       4 UNK        -0.1800 
     54 N           4.5886  -14.4095  -45.7917 N.am      4 UNK        -0.5000 
     55 C           5.7685  -14.5421  -46.4089 C.2       3 UNK         0.5000 
     56 O           6.5906  -15.4125  -46.1190 O.2       3 UNK        -0.5000 
     57 CA          6.0873  -13.5679  -47.5606 C.3       3 UNK         0.1400 
     58 CB          5.9837  -14.2941  -48.9115 C.3       3 UNK        -0.1800 
     59 N           5.2024  -12.4021  -47.5931 N.am      3 UNK        -0.5000 
     60 C           5.4318  -11.2523  -46.9452 C.2       2 UNK         0.5000 
     61 O           6.4258  -11.0462  -46.2479 O.2       2 UNK        -0.5000 
     62 CA          4.3681  -10.1445  -47.0977 C.3       2 UNK         0.1400 
     63 CB          4.7336   -9.2062  -48.2580 C.3       2 UNK        -0.1800 
     64 N           3.0074  -10.6538  -47.3038 N.am      2 UNK        -0.5000 
     65 C           2.3259  -11.3588  -46.3910 C.2       1 UNK         0.5000 
     66 O           2.7876  -11.6404  -45.2835 O.2       1 UNK        -0.5000 
     67 C          -0.7646  -22.0948  -47.7704 C.2       11 UNK         0.5000 
     68 O          -0.5747  -22.9920  -48.5896 O.2       11 UNK        -0.5000 
     69 N          -1.9369  -21.4568  -47.6309 N.am      12 UNK        -0.5000 
     70 CA         -3.1475  -21.7617  -48.3955 C.3       12 UNK         0.1400 
     71 CB         -4.2351  -20.7266  -48.0840 C.3       12 UNK        -0.1800 
     72 C          -3.6751  -23.1851  -48.1471 C.2       12 UNK         0.5000 
     73 O          -4.0929  -23.8441  -49.0984 O.2       12 UNK        -0.5000 
     74 N          -3.6197  -23.6459  -46.8889 N.am      13 UNK        -0.5000 
     75 CA         -3.9877  -25.0067  -46.4941 C.3       13 UNK         0.1400 
     76 CB         -4.0410  -25.1130  -44.9629 C.3       13 UNK        -0.1800 
     77 C          -3.0471  -26.0687  -47.0936 C.2       13 UNK         0.5000 
     78 O          -3.5280  -27.0737  -47.6172 O.2       13 UNK        -0.5000 
     79 N          -1.7319  -25.8082  -47.0614 N.am      14 UNK        -0.5000 
     80 CA         -0.6984  -26.6352  -47.6937 C.3       14 UNK         0.1400 
     81 CB          0.6895  -26.1312  -47.2701 C.3       14 UNK        -0.1800 
     82 C          -0.8221  -26.6719  -49.2301 C.2       14 UNK         0.5000 
     83 O          -0.5848  -27.7144  -49.8403 O.2       14 UNK        -0.5000 
     84 N          -1.2458  -25.5454  -49.8158 N.am      15 UNK        -0.5000 
     85 CA         -1.5872  -25.3782  -51.2287 C.3       15 UNK         0.1400 
     86 CB         -1.5159  -23.8798  -51.5576 C.3       15 UNK        -0.1800 
     87 C          -2.9693  -25.9556  -51.6113 C.2       15 UNK         0.5000 
     88 O          -3.3802  -25.8076  -52.7661 O.2       15 UNK        -0.5000 
     89 N          -3.6771  -26.5614  -50.6431 N.am      16 UNK        -0.5000 
     90 CA         -4.9943  -27.2034  -50.7397 C.3       16 UNK         0.1400 
     91 CB         -4.9043  -28.4641  -51.6242 C.3       16 UNK        -0.1800 
     92 C          -6.1255  -26.2536  -51.1877 C.2       16 UNK         0.5000 
     93 O          -7.1322  -26.7165  -51.7265 O.2       16 UNK        -0.5000 
     94 N          -5.9212  -24.9412  -50.9936 N.am      17 UNK        -0.5000 
     95 CA         -6.7154  -23.8232  -51.5145 C.3       17 UNK         0.1400 
     96 CB         -8.0892  -23.7621  -50.8165 C.3       17 UNK        -0.1800 
     97 C          -6.8266  -23.8128  -53.0594 C.2       17 UNK         0.5000 
     98 O          -7.7781  -23.2438  -53.5977 O.2       17 UNK        -0.5000 
     99 N          -5.8718  -24.4616  -53.7420 N.am      18 UNK        -0.5000 
    100 CA        -5.8709  -24.6871  -55.1844 C.3       18 UNK         0.1400 
    101 CB        -5.8885  -26.2004  -55.4564 C.3       18 UNK        -0.1800 
    102 C         -4.6499  -24.0279  -55.8358 C.2       18 UNK         0.5000 
    103 O         -4.8120  -23.2789  -56.7998 O.2       18 UNK        -0.5000 
    104 N         -3.4516  -24.2943  -55.2945 N.am      19 UNK        -0.5000 
    105 CA        -2.1943  -23.7129  -55.7791 C.3       19 UNK         0.1400 
    106 CB        -1.0237  -24.6396  -55.4111 C.3       19 UNK        -0.1800 
    107 C         -1.9680  -22.2685  -55.2834 C.2       19 UNK         0.5000 
    108 O         -1.1344  -21.5578  -55.8461 O.2       19 UNK        -0.5000 
    109 N         -2.7292  -21.8538  -54.2655 N.am      20 UNK        -0.5000 
    110 CA        -2.8234  -20.4959  -53.7510 C.3       20 UNK         0.1400 
    111 CB        -1.8138  -20.2833  -52.6095 C.3       20 UNK        -0.1800 
    112 C         -4.2664  -20.3197  -53.2670 C.2       20 UNK         0.5000 
    113 O         -4.7741  -21.1964  -52.5650 O.2       20 UNK        -0.5000 
    114 N         -4.9041  -19.2158  -53.6606 N.am      21 UNK        -0.5000 
    115 CA        -6.2882  -18.8877  -53.3401 C.3       21 UNK         0.1400 
    116 CB        -7.2280  -19.5359  -54.3738 C.3       21 UNK        -0.1800 
    117 C         -6.4041  -17.3533  -53.3408 C.2       21 UNK         0.5000 
    118 O         -6.3563  -16.7696  -54.4237 O.2       21 UNK        -0.5000 
    119 N         -6.5120  -16.6619  -52.1968 N.am      22 UNK        -0.5000 
    120 CA        -6.5545  -17.1274  -50.7935 C.3       22 UNK         0.1400 
    121 C         -7.8749  -17.8466  -50.3801 C.2       22 UNK         0.5000 
    122 N         -8.9419  -17.7645  -51.1652 N.am      22 UNK        -0.7600 
    123 O         -7.9407  -18.4776  -49.3296 O.2       22 UNK        -0.5000 
    124 C124       -5.2827  -17.8876  -50.3100 C.3       23 UNK        -0.0398 
    125 S125       -3.7080  -17.1265  -50.8363 S.3       23 UNK        -0.2404 
    126 C126       -2.8366  -16.8913  -49.2575 C.3       23 UNK        -0.0205 
    127 H127       -1.3688  -12.2690  -43.0513 H         1 UNK         0.0600 
    128 H128       -0.6532  -13.7780  -43.6364 H         1 UNK         0.0600 
    129 H129       -2.3357  -13.3986  -44.0024 H         1 UNK         0.0600 
    130 H130        0.9162  -13.1418  -45.1342 H         1 UNK         0.3000 
    131 H131        0.3556  -10.9302  -47.0091 H         1 UNK         0.0600 
    132 H132       -0.1287  -13.1026  -48.2128 H         1 UNK         0.0800 
    133 H133        1.1104  -12.1237  -48.9344 H         1 UNK         0.0800 
    134 H134        1.3555  -14.1124  -50.3751 H         1 UNK         0.0800 
    135 H135        2.7486  -15.1261  -50.1183 H         1 UNK         0.0800 
    136 H136       -0.9302  -14.9442  -49.4006 H         1 UNK         0.1150 
    137 H137       -1.4380  -19.1919  -49.5545 H         1 UNK         0.1150 
    138 H138        2.4794  -17.4928  -49.9355 H         1 UNK         0.1150 
    139 H139        0.3683  -20.6162  -50.1465 H         1 UNK         0.0800 
    140 H140        1.7766  -19.8940  -50.8719 H         1 UNK         0.0800 
    141 H141        0.2710  -19.5997  -47.3566 H         1 UNK         0.0800 
    142 H142        1.6066  -19.9900  -46.3240 H         1 UNK         0.0800 
    143 H143        1.1280  -22.4890  -46.8452 H         1 UNK         0.0600 
    144 H144       -0.0227  -20.8100  -44.9081 H         1 UNK         0.3000 
    145 H145       -1.9958  -23.1781  -43.1467 H         1 UNK         0.0600 
    146 H146       -0.5910  -22.3186  -41.2822 H         1 UNK         0.0600 
    147 H147        0.2947  -23.4883  -42.2482 H         1 UNK         0.0600 
    148 H148        0.6335  -21.7732  -42.4272 H         1 UNK         0.0600 
    149 H149       -1.3584  -20.3548  -42.9079 H         1 UNK         0.3000 
    150 H150       -4.2307  -19.2044  -44.7040 H         1 UNK         0.0600 
    151 H151       -4.5684  -18.0033  -42.5672 H         1 UNK         0.0600 
    152 H152       -3.4683  -19.1002  -41.7349 H         1 UNK         0.0600 
    153 H153       -4.9982  -19.6956  -42.3713 H         1 UNK         0.0600 
    154 H154       -2.0846  -17.8581  -43.3483 H         1 UNK         0.3000 
    155 H155        0.2125  -17.7586  -46.0541 H         1 UNK         0.0600 
    156 H156       -1.4315  -16.0068  -46.7399 H         1 UNK         0.0600 
    157 H157       -0.0470  -15.3207  -45.9146 H         1 UNK         0.0600 
    158 H158       -1.5909  -15.5026  -45.0682 H         1 UNK         0.0600 
    159 H159        0.3611  -16.3432  -43.6768 H         1 UNK         0.3000 
    160 H160        0.8127  -18.7850  -41.2701 H         1 UNK         0.0600 
    161 H161        3.1649  -18.2614  -40.8928 H         1 UNK         0.0600 
    162 H162        3.3104  -17.4720  -42.4575 H         1 UNK         0.0600 
    163 H163        3.0607  -19.2131  -42.3643 H         1 UNK         0.0600 
    164 H164        1.7672  -16.1355  -41.1698 H         1 UNK         0.3000 
    165 H165       -1.2548  -14.3780  -40.7965 H         1 UNK         0.0600 
    166 H166       -0.2507  -13.7489  -38.6043 H         1 UNK         0.0600 
    167 H167       -0.9815  -15.3455  -38.5486 H         1 UNK         0.0600 
    168 H168        0.7648  -15.1900  -38.6408 H         1 UNK         0.0600 
    169 H169        0.2971  -13.1941  -41.7822 H         1 UNK         0.3000 
    170 H170        2.0748  -12.3583  -42.6051 H         1 UNK         0.0600 
    171 H171        4.2302  -11.3202  -41.9700 H         1 UNK         0.0600 
    172 H172        3.1718  -11.4035  -40.5699 H         1 UNK         0.0600 
    173 H173        4.4978  -12.5491  -40.7328 H         1 UNK         0.0600 
    174 H174        4.5798  -13.6863  -42.9195 H         1 UNK         0.3000 
    175 H175        4.8593  -15.6757  -44.1460 H         1 UNK         0.0600 
    176 H176        2.5852  -16.2855  -46.1262 H         1 UNK         0.0600 
    177 H177        4.1609  -17.0682  -46.1266 H         1 UNK         0.0600 
    178 H178        3.0746  -17.2853  -44.7715 H         1 UNK         0.0600 
    179 H179        3.9841  -13.6388  -46.0443 H         1 UNK         0.3000 
    180 H180        7.1207  -13.2378  -47.4348 H         1 UNK         0.0600 
    181 H181        4.9776  -14.6755  -49.0871 H         1 UNK         0.0600 
    182 H182        6.6668  -15.1435  -48.9527 H         1 UNK         0.0600 
    183 H183        6.2416  -13.6313  -49.7376 H         1 UNK         0.0600 
    184 H184        4.3571  -12.4899  -48.1384 H         1 UNK         0.3000 
    185 H185        4.3714   -9.5605  -46.1748 H         1 UNK         0.0600 
    186 H186        4.7226   -9.7273  -49.2162 H         1 UNK         0.0600 
    187 H187        4.0393   -8.3682  -48.3222 H         1 UNK         0.0600 
    188 H188        5.7324   -8.7887  -48.1231 H         1 UNK         0.0600 
    189 H189        2.5789  -10.4420  -48.1932 H         1 UNK         0.3000 
    190 H190       -2.0047  -20.6873  -46.9691 H         1 UNK         0.3000 
    191 H191       -2.8998  -21.6754  -49.4546 H         1 UNK         0.0600 
    192 H192       -4.5172  -20.7385  -47.0309 H         1 UNK         0.0600 
    193 H193       -5.1352  -20.9139  -48.6712 H         1 UNK         0.0600 
    194 H194       -3.8927  -19.7236  -48.3252 H         1 UNK         0.0600 
    195 H195       -3.3129  -23.0208  -46.1525 H         1 UNK         0.3000 
    196 H196       -4.9917  -25.2006  -46.8777 H         1 UNK         0.0600 
    197 H197       -4.3796  -26.1026  -44.6542 H         1 UNK         0.0600 
    198 H198       -4.7341  -24.3851  -44.5407 H         1 UNK         0.0600 
    199 H199       -3.0644  -24.9467  -44.5099 H         1 UNK         0.0600 
    200 H200       -1.4097  -24.9806  -46.5649 H         1 UNK         0.3000 
    201 H201       -0.8170  -27.6567  -47.3270 H         1 UNK         0.0600 
    202 H202        0.8081  -26.1690  -46.1871 H         1 UNK         0.0600 
    203 H203        0.8589  -25.1022  -47.5881 H         1 UNK         0.0600 
    204 H204        1.4785  -26.7449  -47.7063 H         1 UNK         0.0600 
    205 H205       -1.3346  -24.7143  -49.2389 H         1 UNK         0.3000 
    206 H206       -0.8418  -25.8987  -51.8328 H         1 UNK         0.0600 
    207 H207       -0.5255  -23.4732  -51.3524 H         1 UNK         0.0600 
    208 H208       -1.7299  -23.6918  -52.6049 H         1 UNK         0.0600 
    209 H209       -2.2400  -23.3092  -50.9792 H         1 UNK         0.0600 
    210 H210       -3.2726  -26.5798  -49.7151 H         1 UNK         0.3000 
    211 H211       -5.2526  -27.5236  -49.7299 H         1 UNK         0.0600 
    212 H212       -5.8304  -29.0385  -51.5865 H         1 UNK         0.0600 
    213 H213       -4.1028  -29.1230  -51.2901 H         1 UNK         0.0600 
    214 H214       -4.7182  -28.2117  -52.6688 H         1 UNK         0.0600 
    215 H215       -5.0913  -24.6659  -50.4718 H         1 UNK         0.3000 
    216 H216       -6.1717  -22.9202  -51.2384 H         1 UNK         0.0600 
    217 H217       -8.6229  -22.8492  -51.0829 H         1 UNK         0.0600 
    218 H218       -7.9796  -23.7668  -49.7320 H         1 UNK         0.0600 
    219 H219       -8.7225  -24.6048  -51.0946 H         1 UNK         0.0600 
    220 H220       -5.1191  -24.8984  -53.2206 H         1 UNK         0.3000 
    221 H221       -6.7615  -24.2536  -55.6437 H         1 UNK         0.0600 
    222 H222       -5.8735  -26.4063  -56.5273 H         1 UNK         0.0600 
    223 H223       -5.0299  -26.7043  -55.0105 H         1 UNK         0.0600 
    224 H224       -6.7892  -26.6595  -55.0483 H         1 UNK         0.0600 
    225 H225       -3.3910  -24.9189  -54.4951 H         1 UNK         0.3000 
    226 H226       -2.2321  -23.6631  -56.8695 H         1 UNK         0.0600 
    227 H227       -1.1225  -25.6043  -55.9088 H         1 UNK         0.0600 
    228 H228       -0.0707  -24.2116  -55.7246 H         1 UNK         0.0600 
    229 H229       -0.9623  -24.8290  -54.3416 H         1 UNK         0.0600 
    230 H230       -3.4181  -22.4884  -53.8837 H         1 UNK         0.3000 
    231 H231       -2.6207  -19.7832  -54.5534 H         1 UNK         0.0600 
    232 H232       -2.0186  -20.9357  -51.7605 H         1 UNK         0.0600 
    233 H233       -0.7935  -20.4759  -52.9409 H         1 UNK         0.0600 
    234 H234       -1.8501  -19.2551  -52.2486 H         1 UNK         0.0600 
    235 H235       -4.4178  -18.5220  -54.2130 H         1 UNK         0.3000 
    236 H236       -6.5601  -19.2961  -52.3698 H         1 UNK         0.0600 
    237 H237       -6.9983  -19.2161  -55.3908 H         1 UNK         0.0600 
    238 H238       -7.1546  -20.6230  -54.3441 H         1 UNK         0.0600 
    239 H239       -8.2674  -19.2756  -54.1710 H         1 UNK         0.0600 
    240 H240       -6.5708  -15.6582  -52.2837 H         1 UNK         0.3000 
    241 H241       -6.5799  -16.2019  -50.2173 H         1 UNK         0.0600 
    242 H242       -9.7951  -18.2239  -50.8866 H         1 UNK         0.3800 
    243 H243       -8.9262  -17.2094  -52.0063 H         1 UNK         0.3800 
    244 H244       -5.3025  -17.9419  -49.2210 H         1 UNK         0.0800 
    245 H245       -5.2775  -18.9246  -50.6427 H         1 UNK         0.0800 
    246 H246       -3.1691  -17.6102  -48.5104 H         1 UNK         0.0800 
    247 H247       -3.0765  -15.9045  -48.8590 H         1 UNK         0.0800 
@<TRIPOS>BOND
     1    1    2 1    
     2    1  127 1    
     3    1  128 1    
     4    1  129 1    
     5    2    3 2    
     6    2    4 am   BACKBONE|DICT|INTERRES
     7    4    5 1    
     8    4  130 1    
     9    5    6 1    
    10    5   65 1    
    11    5  131 1    
    12    6    7 1    
    13    6  132 1    
    14    6  133 1    
    15    7    8 1    
    16    8    9 1    
    17    8  134 1    
    18    8  135 1    
    19    9   10 ar   
    20    9   14 ar   
    21   10   11 ar   
    22   10  136 1    
    23   11   12 ar   
    24   11  126 1    
    25   12   13 ar   
    26   12  137 1    
    27   13   14 ar   
    28   13   15 1    
    29   14  138 1    
    30   15   16 1    
    31   15  139 1    
    32   15  140 1    
    33   16   17 1    
    34   17   18 1    
    35   17  141 1    
    36   17  142 1    
    37   18   19 1    
    38   18   67 1    
    39   18  143 1    
    40   19   20 am   BACKBONE|DICT|INTERRES
    41   19  144 1    
    42   20   21 2    
    43   20   22 1    
    44   22   23 1    
    45   22   24 1    
    46   22  145 1    
    47   23  146 1    
    48   23  147 1    
    49   23  148 1    
    50   24   25 am   BACKBONE|DICT|INTERRES
    51   24  149 1    
    52   25   26 2    
    53   25   27 1    
    54   27   28 1    
    55   27   29 1    
    56   27  150 1    
    57   28  151 1    
    58   28  152 1    
    59   28  153 1    
    60   29   30 am   BACKBONE|DICT|INTERRES
    61   29  154 1    
    62   30   31 2    
    63   30   32 1    
    64   32   33 1    
    65   32   34 1    
    66   32  155 1    
    67   33  156 1    
    68   33  157 1    
    69   33  158 1    
    70   34   35 am   BACKBONE|DICT|INTERRES
    71   34  159 1    
    72   35   36 2    
    73   35   37 1    
    74   37   38 1    
    75   37   39 1    
    76   37  160 1    
    77   38  161 1    
    78   38  162 1    
    79   38  163 1    
    80   39   40 am   BACKBONE|DICT|INTERRES
    81   39  164 1    
    82   40   41 2    
    83   40   42 1    
    84   42   43 1    
    85   42   44 1    
    86   42  165 1    
    87   43  166 1    
    88   43  167 1    
    89   43  168 1    
    90   44   45 am   BACKBONE|DICT|INTERRES
    91   44  169 1    
    92   45   46 2    
    93   45   47 1    
    94   47   48 1    
    95   47   49 1    
    96   47  170 1    
    97   48  171 1    
    98   48  172 1    
    99   48  173 1    
   100   49   50 am   BACKBONE|DICT|INTERRES
   101   49  174 1    
   102   50   51 2    
   103   50   52 1    
   104   52   53 1    
   105   52   54 1    
   106   52  175 1    
   107   53  176 1    
   108   53  177 1    
   109   53  178 1    
   110   54   55 am   BACKBONE|DICT|INTERRES
   111   54  179 1    
   112   55   56 2    
   113   55   57 1    
   114   57   58 1    
   115   57   59 1    
   116   57  180 1    
   117   58  181 1    
   118   58  182 1    
   119   58  183 1    
   120   59   60 am   BACKBONE|DICT|INTERRES
   121   59  184 1    
   122   60   61 2    
   123   60   62 1    
   124   62   63 1    
   125   62   64 1    
   126   62  185 1    
   127   63  186 1    
   128   63  187 1    
   129   63  188 1    
   130   64   65 am   BACKBONE|DICT|INTERRES
   131   64  189 1    
   132   65   66 2    
   133   67   68 2    
   134   67   69 am   BACKBONE|DICT|INTERRES
   135   69   70 1    
   136   69  190 1    
   137   70   71 1    
   138   70   72 1    
   139   70  191 1    
   140   71  192 1    
   141   71  193 1    
   142   71  194 1    
   143   72   73 2    
   144   72   74 am   BACKBONE|DICT|INTERRES
   145   74   75 1    
   146   74  195 1    
   147   75   76 1    
   148   75   77 1    
   149   75  196 1    
   150   76  197 1    
   151   76  198 1    
   152   76  199 1    
   153   77   78 2    
   154   77   79 am   BACKBONE|DICT|INTERRES
   155   79   80 1    
   156   79  200 1    
   157   80   81 1    
   158   80   82 1    
   159   80  201 1    
   160   81  202 1    
   161   81  203 1    
   162   81  204 1    
   163   82   83 2    
   164   82   84 am   BACKBONE|DICT|INTERRES
   165   84   85 1    
   166   84  205 1    
   167   85   86 1    
   168   85   87 1    
   169   85  206 1    
   170   86  207 1    
   171   86  208 1    
   172   86  209 1    
   173   87   88 2    
   174   87   89 am   BACKBONE|DICT|INTERRES
   175   89   90 1    
   176   89  210 1    
   177   90   91 1    
   178   90   92 1    
   179   90  211 1    
   180   91  212 1    
   181   91  213 1    
   182   91  214 1    
   183   92   93 2    
   184   92   94 am   BACKBONE|DICT|INTERRES
   185   94   95 1    
   186   94  215 1    
   187   95   96 1    
   188   95   97 1    
   189   95  216 1    
   190   96  217 1    
   191   96  218 1    
   192   96  219 1    
   193   97   98 2    
   194   97   99 am   BACKBONE|DICT|INTERRES
   195   99  100 1    
   196   99  220 1    
   197  100  101 1    
   198  100  102 1    
   199  100  221 1    
   200  101  222 1    
   201  101  223 1    
   202  101  224 1    
   203  102  103 2    
   204  102  104 am   BACKBONE|DICT|INTERRES
   205  104  105 1    
   206  104  225 1    
   207  105  106 1    
   208  105  107 1    
   209  105  226 1    
   210  106  227 1    
   211  106  228 1    
   212  106  229 1    
   213  107  108 2    
   214  107  109 am   BACKBONE|DICT|INTERRES
   215  109  110 1    
   216  109  230 1    
   217  110  111 1    
   218  110  112 1    
   219  110  231 1    
   220  111  232 1    
   221  111  233 1    
   222  111  234 1    
   223  112  113 2    
   224  112  114 am   BACKBONE|DICT|INTERRES
   225  114  115 1    
   226  114  235 1    
   227  115  116 1    
   228  115  117 1    
   229  115  236 1    
   230  116  237 1    
   231  116  238 1    
   232  116  239 1    
   233  117  118 2    
   234  117  119 am   BACKBONE|DICT|INTERRES
   235  119  120 1    
   236  119  240 1    
   237  120  121 1    
   238  120  124 1    
   239  120  241 1    
   240  121  122 am   BACKBONE|DICT|INTERRES
   241  121  123 2    
   242  122  242 1    
   243  122  243 1    
   244  124  125 1    
   245  124  244 1    
   246  124  245 1    
   247  125  126 1    
   248  126  246 1    
   249  126  247 1    
@<TRIPOS>SUBSTRUCTURE
     1 UNK         1 GROUP             0       ****    0 ROOT    
