@<TRIPOS>MOLECULE
3R540
247   249    1
SMALL
USER_CHARGES


@<TRIPOS>ATOM
      1 CA         -1.6300  -12.8090  -48.8087 C.3       0 UNK        -0.1800 
      2 C          -0.2121  -12.8534  -48.2596 C.2       0 UNK         0.5000 
      3 O          -0.0284  -13.0789  -47.0639 O.2       0 UNK        -0.5000 
      4 N           0.7888  -12.6483  -49.1268 N.am      1 UNK        -0.5000 
      5 CA          2.2258  -12.6480  -48.8205 C.3       1 UNK         0.1400 
      6 C6          2.7667  -14.0411  -48.3879 C.3       23 UNK        -0.0398 
      7 S7          2.4937  -15.3482  -49.6329 S.3       23 UNK        -0.2404 
      8 C8          1.1774  -16.3061  -48.8208 C.3       23 UNK        -0.0205 
      9 C9          0.9682  -17.6588  -49.4787 C.ar      23 UNK        -0.0193 
     10 C10        -0.0658  -17.8553  -50.3986 C.ar      23 UNK        -0.1150 
     11 C11        -0.2791  -19.1175  -50.9614 C.ar      23 UNK        -0.0193 
     12 C12         0.5334  -20.1879  -50.5781 C.ar      23 UNK        -0.1150 
     13 C13         1.5661  -20.0088  -49.6537 C.ar      23 UNK        -0.0193 
     14 C14         1.7950  -18.7299  -49.1324 C.ar      23 UNK        -0.1150 
     15 C15         2.4127  -21.2164  -49.2537 C.3       23 UNK        -0.0205 
     16 S16         3.1160  -21.1764  -47.5653 S.3       23 UNK        -0.2404 
     17 C17         1.6832  -20.7869  -46.5020 C.3       23 UNK        -0.0398 
     18 CA          0.8597  -22.0260  -46.0807 C.3       11 UNK         0.1400 
     19 N           0.3059  -21.8630  -44.7364 N.am      11 UNK        -0.5000 
     20 C          -0.3362  -22.8112  -44.0431 C.2       10 UNK         0.5000 
     21 O          -0.4917  -23.9655  -44.4396 O.2       10 UNK        -0.5000 
     22 CA         -0.9499  -22.3750  -42.7026 C.3       10 UNK         0.1400 
     23 CB          0.0977  -22.4176  -41.5800 C.3       10 UNK        -0.1800 
     24 N          -1.5282  -21.0330  -42.7857 N.am      10 UNK        -0.5000 
     25 C          -2.6454  -20.7352  -43.4639 C.2       9 UNK         0.5000 
     26 O          -3.3273  -21.5707  -44.0579 O.2       9 UNK        -0.5000 
     27 CA         -3.0406  -19.2476  -43.5201 C.3       9 UNK         0.1400 
     28 CB         -3.7446  -18.8209  -42.2233 C.3       9 UNK        -0.1800 
     29 N          -1.8972  -18.3659  -43.7672 N.am      9 UNK        -0.5000 
     30 C          -1.1921  -18.3518  -44.9068 C.2       8 UNK         0.5000 
     31 O          -1.4382  -19.0732  -45.8697 O.2       8 UNK        -0.5000 
     32 CA          0.0190  -17.4080  -44.9771 C.3       8 UNK         0.1400 
     33 CB         -0.4129  -16.0172  -45.4605 C.3       8 UNK        -0.1800 
     34 N           0.7656  -17.2745  -43.7252 N.am      8 UNK        -0.5000 
     35 C           1.3184  -18.2812  -43.0305 C.2       7 UNK         0.5000 
     36 O           1.1230  -19.4726  -43.2784 O.2       7 UNK        -0.5000 
     37 CA          2.2751  -17.8650  -41.8936 C.3       7 UNK         0.1400 
     38 CB          3.0925  -19.0422  -41.3238 C.3       7 UNK        -0.1800 
     39 N           3.1481  -16.7621  -42.3099 N.am      7 UNK        -0.5000 
     40 C           4.0169  -16.7502  -43.3342 C.2       6 UNK         0.5000 
     41 O           4.3349  -17.7485  -43.9808 O.2       6 UNK        -0.5000 
     42 CA          4.5949  -15.3817  -43.7436 C.3       6 UNK         0.1400 
     43 CB          4.0020  -14.9464  -45.0937 C.3       6 UNK        -0.1800 
     44 N           4.3155  -14.3392  -42.7537 N.am      6 UNK        -0.5000 
     45 C           5.1250  -14.0201  -41.7347 C.2       5 UNK         0.5000 
     46 O           6.2422  -14.5103  -41.5686 O.2       5 UNK        -0.5000 
     47 CA          4.5871  -13.0008  -40.7114 C.3       5 UNK         0.1400 
     48 CB          5.0903  -11.5862  -41.0339 C.3       5 UNK        -0.1800 
     49 N           3.1230  -12.9968  -40.6308 N.am      5 UNK        -0.5000 
     50 C           2.4053  -13.9706  -40.0499 C.2       4 UNK         0.5000 
     51 O           2.9098  -14.9559  -39.5121 O.2       4 UNK        -0.5000 
     52 CA          0.8696  -13.8602  -40.1078 C.3       4 UNK         0.1400 
     53 CB          0.3304  -13.1995  -38.8305 C.3       4 UNK        -0.1800 
     54 N           0.3663  -13.1300  -41.2716 N.am      4 UNK        -0.5000 
     55 C           0.5304  -13.4958  -42.5492 C.2       3 UNK         0.5000 
     56 O           1.1536  -14.5035  -42.8927 O.2       3 UNK        -0.5000 
     57 CA         -0.0757  -12.5780  -43.6309 C.3       3 UNK         0.1400 
     58 CB         -0.9128  -11.4031  -43.0771 C.3       3 UNK        -0.1800 
     59 N           0.9448  -12.0809  -44.5554 N.am      3 UNK        -0.5000 
     60 C           2.0510  -11.3847  -44.2459 C.2       2 UNK         0.5000 
     61 O           2.3612  -11.0845  -43.0917 O.2       2 UNK        -0.5000 
     62 CA          2.9679  -10.9698  -45.4150 C.3       2 UNK         0.1400 
     63 CB          4.4527  -10.9247  -45.0101 C.3       2 UNK        -0.1800 
     64 N           2.7994  -11.8792  -46.5486 N.am      2 UNK        -0.5000 
     65 C           2.5523  -11.5182  -47.8142 C.2       1 UNK         0.5000 
     66 O           2.5377  -10.3486  -48.2023 O.2       1 UNK        -0.5000 
     67 C          -0.2419  -22.3577  -47.1105 C.2       11 UNK         0.5000 
     68 O          -0.0909  -23.3081  -47.8766 O.2       11 UNK        -0.5000 
     69 N          -1.3537  -21.6090  -47.0737 N.am      12 UNK        -0.5000 
     70 CA         -2.5297  -21.8256  -47.9152 C.3       12 UNK         0.1400 
     71 CB         -3.5178  -20.6632  -47.7442 C.3       12 UNK        -0.1800 
     72 C          -3.2226  -23.1699  -47.6429 C.2       12 UNK         0.5000 
     73 O          -3.6595  -23.8217  -48.5910 O.2       12 UNK        -0.5000 
     74 N          -3.2775  -23.5805  -46.3672 N.am      13 UNK        -0.5000 
     75 CA         -3.7781  -24.8888  -45.9450 C.3       13 UNK         0.1400 
     76 CB         -3.9272  -24.9265  -44.4171 C.3       13 UNK        -0.1800 
     77 C          -2.8920  -26.0440  -46.4465 C.2       13 UNK         0.5000 
     78 O          -3.4233  -27.0378  -46.9414 O.2       13 UNK        -0.5000 
     79 N          -1.5635  -25.8768  -46.3668 N.am      14 UNK        -0.5000 
     80 CA         -0.5719  -26.8117  -46.9086 C.3       14 UNK         0.1400 
     81 CB          0.8314  -26.4114  -46.4288 C.3       14 UNK        -0.1800 
     82 C          -0.6226  -26.9122  -48.4467 C.2       14 UNK         0.5000 
     83 O          -0.4601  -28.0042  -48.9917 O.2       14 UNK        -0.5000 
     84 N          -0.8998  -25.7830  -49.1124 N.am      15 UNK        -0.5000 
     85 CA         -1.1546  -25.6803  -50.5518 C.3       15 UNK         0.1400 
     86 CB         -0.9433  -24.2203  -50.9885 C.3       15 UNK        -0.1800 
     87 C          -2.5575  -26.1754  -50.9704 C.2       15 UNK         0.5000 
     88 O          -2.8552  -26.1812  -52.1653 O.2       15 UNK        -0.5000 
     89 N          -3.3991  -26.5547  -49.9955 N.am      16 UNK        -0.5000 
     90 CA         -4.7738  -27.0500  -50.1277 C.3       16 UNK         0.1400 
     91 CB         -4.7863  -28.4216  -50.8340 C.3       16 UNK        -0.1800 
     92 C          -5.7443  -26.0371  -50.7733 C.2       16 UNK         0.5000 
     93 O          -6.7390  -26.4467  -51.3747 O.2       16 UNK        -0.5000 
     94 N          -5.4364  -24.7371  -50.6367 N.am      17 UNK        -0.5000 
     95 CA         -6.1453  -23.5846  -51.2040 C.3       17 UNK         0.1400 
     96 CB         -7.4668  -23.3492  -50.4454 C.3       17 UNK        -0.1800 
     97 C          -6.3343  -23.6785  -52.7362 C.2       17 UNK         0.5000 
     98 O          -7.4045  -23.3493  -53.2510 O.2       17 UNK        -0.5000 
     99 N          -5.3005  -24.1705  -53.4335 N.am      18 UNK        -0.5000 
    100 CA        -5.3006  -24.3909  -54.8781 C.3       18 UNK         0.1400 
    101 CB        -4.0592  -25.2117  -55.2588 C.3       18 UNK        -0.1800 
    102 C         -5.3465  -23.0741  -55.6755 C.2       18 UNK         0.5000 
    103 O         -4.5426  -22.1771  -55.4118 O.2       18 UNK        -0.5000 
    104 N         -6.2581  -23.0201  -56.6581 N.am      19 UNK        -0.5000 
    105 CA        -6.5274  -21.9187  -57.5923 C.3       19 UNK         0.1400 
    106 CB        -5.2769  -21.6098  -58.4436 C.3       19 UNK        -0.1800 
    107 C         -7.0778  -20.6421  -56.9219 C.2       19 UNK         0.5000 
    108 O         -7.0866  -20.5143  -55.6960 O.2       19 UNK        -0.5000 
    109 N         -7.5110  -19.6825  -57.7510 N.am      20 UNK        -0.5000 
    110 CA        -8.0266  -18.3740  -57.3249 C.3       20 UNK         0.1400 
    111 CB        -8.5744  -17.6312  -58.5532 C.3       20 UNK        -0.1800 
    112 C         -6.9886  -17.5026  -56.5846 C.2       20 UNK         0.5000 
    113 O         -7.3698  -16.5893  -55.8521 O.2       20 UNK        -0.5000 
    114 N         -5.7003  -17.8146  -56.7762 N.am      21 UNK        -0.5000 
    115 CA        -4.5650  -17.1974  -56.0964 C.3       21 UNK         0.1400 
    116 CB        -3.2880  -17.5321  -56.8839 C.3       21 UNK        -0.1800 
    117 C         -4.4096  -17.6242  -54.6216 C.2       21 UNK         0.5000 
    118 O         -3.6794  -16.9491  -53.8945 O.2       21 UNK        -0.5000 
    119 N         -5.0590  -18.7211  -54.2033 N.am      22 UNK        -0.5000 
    120 CA        -4.9329  -19.2845  -52.8484 C.3       22 UNK         0.1400 
    121 C         -6.2690  -19.7652  -52.2171 C.2       22 UNK         0.5000 
    122 N         -7.3237  -20.0207  -52.9785 N.am      22 UNK        -0.7600 
    123 O         -6.3614  -19.8893  -50.9997 O.2       22 UNK        -0.5000 
    124 C124       -3.8321  -20.3794  -52.7938 C.3       23 UNK        -0.0398 
    125 S125       -2.7815  -20.2502  -51.3126 S.3       23 UNK        -0.2404 
    126 C126       -1.3706  -19.3302  -51.9977 C.3       23 UNK        -0.0205 
    127 H127       -1.6444  -12.6095  -49.8804 H         1 UNK         0.0600 
    128 H128       -2.2009  -12.0274  -48.3077 H         1 UNK         0.0600 
    129 H129       -2.1276  -13.7627  -48.6328 H         1 UNK         0.0600 
    130 H130        0.5625  -12.4483  -50.0907 H         1 UNK         0.3000 
    131 H131        2.7327  -12.3782  -49.7483 H         1 UNK         0.0600 
    132 H132        3.8427  -13.9858  -48.2138 H         1 UNK         0.0800 
    133 H133        2.3221  -14.3572  -47.4445 H         1 UNK         0.0800 
    134 H134        1.4338  -16.4628  -47.7725 H         1 UNK         0.0800 
    135 H135        0.2502  -15.7323  -48.8293 H         1 UNK         0.0800 
    136 H136       -0.7020  -17.0268  -50.6770 H         1 UNK         0.1150 
    137 H137        0.3550  -21.1664  -51.0023 H         1 UNK         0.1150 
    138 H138        2.5993  -18.5665  -48.4294 H         1 UNK         0.1150 
    139 H139        1.8260  -22.1303  -49.3544 H         1 UNK         0.0800 
    140 H140        3.2349  -21.3064  -49.9643 H         1 UNK         0.0800 
    141 H141        1.0507  -20.0171  -46.9428 H         1 UNK         0.0800 
    142 H142        2.1154  -20.3167  -45.6178 H         1 UNK         0.0800 
    143 H143        1.5295  -22.8872  -46.0299 H         1 UNK         0.0600 
    144 H144        0.4276  -20.9533  -44.3001 H         1 UNK         0.3000 
    145 H145       -1.7462  -23.0789  -42.4518 H         1 UNK         0.0600 
    146 H146       -0.3425  -22.1496  -40.6194 H         1 UNK         0.0600 
    147 H147        0.5163  -23.4196  -41.4776 H         1 UNK         0.0600 
    148 H148        0.9262  -21.7352  -41.7718 H         1 UNK         0.0600 
    149 H149       -0.9858  -20.2802  -42.3870 H         1 UNK         0.3000 
    150 H150       -3.7455  -19.1245  -44.3453 H         1 UNK         0.0600 
    151 H151       -4.6100  -19.4542  -42.0232 H         1 UNK         0.0600 
    152 H152       -4.1037  -17.7937  -42.2898 H         1 UNK         0.0600 
    153 H153       -3.0807  -18.8896  -41.3607 H         1 UNK         0.0600 
    154 H154       -1.6192  -17.7476  -43.0197 H         1 UNK         0.3000 
    155 H155        0.7091  -17.8217  -45.7146 H         1 UNK         0.0600 
    156 H156        0.4460  -15.3582  -45.5865 H         1 UNK         0.0600 
    157 H157       -1.0979  -15.5447  -44.7564 H         1 UNK         0.0600 
    158 H158       -0.9214  -16.0751  -46.4237 H         1 UNK         0.0600 
    159 H159        0.9738  -16.3229  -43.4333 H         1 UNK         0.3000 
    160 H160        1.6485  -17.4761  -41.0898 H         1 UNK         0.0600 
    161 H161        3.6934  -19.5310  -42.0911 H         1 UNK         0.0600 
    162 H162        2.4358  -19.7992  -40.8940 H         1 UNK         0.0600 
    163 H163        3.7641  -18.7082  -40.5329 H         1 UNK         0.0600 
    164 H164        2.9665  -15.8782  -41.8565 H         1 UNK         0.3000 
    165 H165        5.6729  -15.5033  -43.8679 H         1 UNK         0.0600 
    166 H166        2.9312  -14.7546  -45.0177 H         1 UNK         0.0600 
    167 H167        4.4888  -14.0444  -45.4611 H         1 UNK         0.0600 
    168 H168        4.1439  -15.7165  -45.8534 H         1 UNK         0.0600 
    169 H169        3.4010  -13.9095  -42.7972 H         1 UNK         0.3000 
    170 H170        4.9823  -13.2796  -39.7321 H         1 UNK         0.0600 
    171 H171        6.1804  -11.5506  -41.0279 H         1 UNK         0.0600 
    172 H172        4.7598  -11.2537  -42.0168 H         1 UNK         0.0600 
    173 H173        4.7373  -10.8634  -40.2983 H         1 UNK         0.0600 
    174 H174        2.6423  -12.2357  -41.0952 H         1 UNK         0.3000 
    175 H175        0.4729  -14.8763  -40.1599 H         1 UNK         0.0600 
    176 H176        0.6699  -12.1671  -38.7377 H         1 UNK         0.0600 
    177 H177       -0.7597  -13.1981  -38.8162 H         1 UNK         0.0600 
    178 H178        0.6645  -13.7362  -37.9414 H         1 UNK         0.0600 
    179 H179       -0.1349  -12.2743  -41.0821 H         1 UNK         0.3000 
    180 H180       -0.7437  -13.2054  -44.2215 H         1 UNK         0.0600 
    181 H181       -0.3147  -10.7126  -42.4813 H         1 UNK         0.0600 
    182 H182       -1.7348  -11.7603  -42.4555 H         1 UNK         0.0600 
    183 H183       -1.3578  -10.8304  -43.8910 H         1 UNK         0.0600 
    184 H184        0.7631  -12.3058  -45.5308 H         1 UNK         0.3000 
    185 H185        2.6605   -9.9606  -45.6957 H         1 UNK         0.0600 
    186 H186        5.0873  -10.6822  -45.8625 H         1 UNK         0.0600 
    187 H187        4.6264  -10.1598  -44.2526 H         1 UNK         0.0600 
    188 H188        4.7909  -11.8756  -44.5986 H         1 UNK         0.0600 
    189 H189        2.7472  -12.8579  -46.3104 H         1 UNK         0.3000 
    190 H190       -1.3908  -20.8008  -46.4562 H         1 UNK         0.3000 
    191 H191       -2.1896  -21.8354  -48.9509 H         1 UNK         0.0600 
    192 H192       -3.0624  -19.7167  -48.0366 H         1 UNK         0.0600 
    193 H193       -4.3992  -20.8040  -48.3717 H         1 UNK         0.0600 
    194 H194       -3.8560  -20.5694  -46.7118 H         1 UNK         0.0600 
    195 H195       -2.9452  -22.9599  -45.6381 H         1 UNK         0.3000 
    196 H196       -4.7704  -25.0201  -46.3816 H         1 UNK         0.0600 
    197 H197       -4.3389  -25.8819  -44.0898 H         1 UNK         0.0600 
    198 H198       -4.6021  -24.1448  -44.0680 H         1 UNK         0.0600 
    199 H199       -2.9713  -24.7922  -43.9119 H         1 UNK         0.0600 
    200 H200       -1.2012  -25.0508  -45.8986 H         1 UNK         0.3000 
    201 H201       -0.7957  -27.8019  -46.5065 H         1 UNK         0.0600 
    202 H202        0.8874  -26.4020  -45.3401 H         1 UNK         0.0600 
    203 H203        1.1145  -25.4212  -46.7854 H         1 UNK         0.0600 
    204 H204        1.5822  -27.1163  -46.7878 H         1 UNK         0.0600 
    205 H205       -0.9281  -24.9127  -48.5882 H         1 UNK         0.3000 
    206 H206       -0.4241  -26.2999  -51.0756 H         1 UNK         0.0600 
    207 H207        0.0511  -23.8655  -50.7168 H         1 UNK         0.0600 
    208 H208       -1.0410  -24.1142  -52.0695 H         1 UNK         0.0600 
    209 H209       -1.6729  -23.5541  -50.5289 H         1 UNK         0.0600 
    210 H210       -3.0692  -26.4799  -49.0417 H         1 UNK         0.3000 
    211 H211       -5.1374  -27.2015  -49.1109 H         1 UNK         0.0600 
    212 H212       -4.5015  -28.3387  -51.8833 H         1 UNK         0.0600 
    213 H213       -5.7786  -28.8725  -50.7992 H         1 UNK         0.0600 
    214 H214       -4.0990  -29.1179  -50.3533 H         1 UNK         0.0600 
    215 H215       -4.6305  -24.5067  -50.0588 H         1 UNK         0.3000 
    216 H216       -5.5065  -22.7182  -51.0270 H         1 UNK         0.0600 
    217 H217       -7.2926  -23.2548  -49.3736 H         1 UNK         0.0600 
    218 H218       -8.1736  -24.1646  -50.6017 H         1 UNK         0.0600 
    219 H219       -7.9477  -22.4279  -50.7760 H         1 UNK         0.0600 
    220 H220       -4.4676  -24.4548  -52.9361 H         1 UNK         0.3000 
    221 H221       -6.1845  -24.9841  -55.1219 H         1 UNK         0.0600 
    222 H222       -3.1374  -24.6948  -54.9882 H         1 UNK         0.0600 
    223 H223       -4.0583  -26.1802  -54.7581 H         1 UNK         0.0600 
    224 H224       -4.0283  -25.4004  -56.3326 H         1 UNK         0.0600 
    225 H225       -6.8797  -23.8104  -56.7560 H         1 UNK         0.3000 
    226 H226       -7.3087  -22.2821  -58.2614 H         1 UNK         0.0600 
    227 H227       -4.8710  -22.5177  -58.8901 H         1 UNK         0.0600 
    228 H228       -5.5115  -20.9294  -59.2626 H         1 UNK         0.0600 
    229 H229       -4.4856  -21.1458  -57.8540 H         1 UNK         0.0600 
    230 H230       -7.4822  -19.8468  -58.7471 H         1 UNK         0.3000 
    231 H231       -8.8533  -18.5496  -56.6333 H         1 UNK         0.0600 
    232 H232       -8.9945  -16.6648  -58.2710 H         1 UNK         0.0600 
    233 H233       -9.3690  -18.1995  -59.0369 H         1 UNK         0.0600 
    234 H234       -7.7938  -17.4464  -59.2924 H         1 UNK         0.0600 
    235 H235       -5.4886  -18.5770  -57.4021 H         1 UNK         0.3000 
    236 H236       -4.7026  -16.1142  -56.1109 H         1 UNK         0.0600 
    237 H237       -3.3527  -17.1758  -57.9122 H         1 UNK         0.0600 
    238 H238       -2.4141  -17.0598  -56.4330 H         1 UNK         0.0600 
    239 H239       -3.1027  -18.6068  -56.9105 H         1 UNK         0.0600 
    240 H240       -5.6493  -19.2328  -54.8478 H         1 UNK         0.3000 
    241 H241       -4.6304  -18.4664  -52.1917 H         1 UNK         0.0600 
    242 H242       -7.2523  -20.0746  -53.9928 H         1 UNK         0.3800 
    243 H243       -8.1759  -20.3237  -52.5369 H         1 UNK         0.3800 
    244 H244       -3.1886  -20.3264  -53.6732 H         1 UNK         0.0800 
    245 H245       -4.2619  -21.3810  -52.8287 H         1 UNK         0.0800 
    246 H246       -0.9555  -19.8773  -52.8454 H         1 UNK         0.0800 
    247 H247       -1.7218  -18.3735  -52.3878 H         1 UNK         0.0800 
@<TRIPOS>BOND
     1    1    2 1    
     2    1  127 1    
     3    1  128 1    
     4    1  129 1    
     5    2    3 2    
     6    2    4 am   BACKBONE|DICT|INTERRES
     7    4    5 1    
     8    4  130 1    
     9    5    6 1    
    10    5   65 1    
    11    5  131 1    
    12    6    7 1    
    13    6  132 1    
    14    6  133 1    
    15    7    8 1    
    16    8    9 1    
    17    8  134 1    
    18    8  135 1    
    19    9   10 ar   
    20    9   14 ar   
    21   10   11 ar   
    22   10  136 1    
    23   11   12 ar   
    24   11  126 1    
    25   12   13 ar   
    26   12  137 1    
    27   13   14 ar   
    28   13   15 1    
    29   14  138 1    
    30   15   16 1    
    31   15  139 1    
    32   15  140 1    
    33   16   17 1    
    34   17   18 1    
    35   17  141 1    
    36   17  142 1    
    37   18   19 1    
    38   18   67 1    
    39   18  143 1    
    40   19   20 am   BACKBONE|DICT|INTERRES
    41   19  144 1    
    42   20   21 2    
    43   20   22 1    
    44   22   23 1    
    45   22   24 1    
    46   22  145 1    
    47   23  146 1    
    48   23  147 1    
    49   23  148 1    
    50   24   25 am   BACKBONE|DICT|INTERRES
    51   24  149 1    
    52   25   26 2    
    53   25   27 1    
    54   27   28 1    
    55   27   29 1    
    56   27  150 1    
    57   28  151 1    
    58   28  152 1    
    59   28  153 1    
    60   29   30 am   BACKBONE|DICT|INTERRES
    61   29  154 1    
    62   30   31 2    
    63   30   32 1    
    64   32   33 1    
    65   32   34 1    
    66   32  155 1    
    67   33  156 1    
    68   33  157 1    
    69   33  158 1    
    70   34   35 am   BACKBONE|DICT|INTERRES
    71   34  159 1    
    72   35   36 2    
    73   35   37 1    
    74   37   38 1    
    75   37   39 1    
    76   37  160 1    
    77   38  161 1    
    78   38  162 1    
    79   38  163 1    
    80   39   40 am   BACKBONE|DICT|INTERRES
    81   39  164 1    
    82   40   41 2    
    83   40   42 1    
    84   42   43 1    
    85   42   44 1    
    86   42  165 1    
    87   43  166 1    
    88   43  167 1    
    89   43  168 1    
    90   44   45 am   BACKBONE|DICT|INTERRES
    91   44  169 1    
    92   45   46 2    
    93   45   47 1    
    94   47   48 1    
    95   47   49 1    
    96   47  170 1    
    97   48  171 1    
    98   48  172 1    
    99   48  173 1    
   100   49   50 am   BACKBONE|DICT|INTERRES
   101   49  174 1    
   102   50   51 2    
   103   50   52 1    
   104   52   53 1    
   105   52   54 1    
   106   52  175 1    
   107   53  176 1    
   108   53  177 1    
   109   53  178 1    
   110   54   55 am   BACKBONE|DICT|INTERRES
   111   54  179 1    
   112   55   56 2    
   113   55   57 1    
   114   57   58 1    
   115   57   59 1    
   116   57  180 1    
   117   58  181 1    
   118   58  182 1    
   119   58  183 1    
   120   59   60 am   BACKBONE|DICT|INTERRES
   121   59  184 1    
   122   60   61 2    
   123   60   62 1    
   124   62   63 1    
   125   62   64 1    
   126   62  185 1    
   127   63  186 1    
   128   63  187 1    
   129   63  188 1    
   130   64   65 am   BACKBONE|DICT|INTERRES
   131   64  189 1    
   132   65   66 2    
   133   67   68 2    
   134   67   69 am   BACKBONE|DICT|INTERRES
   135   69   70 1    
   136   69  190 1    
   137   70   71 1    
   138   70   72 1    
   139   70  191 1    
   140   71  192 1    
   141   71  193 1    
   142   71  194 1    
   143   72   73 2    
   144   72   74 am   BACKBONE|DICT|INTERRES
   145   74   75 1    
   146   74  195 1    
   147   75   76 1    
   148   75   77 1    
   149   75  196 1    
   150   76  197 1    
   151   76  198 1    
   152   76  199 1    
   153   77   78 2    
   154   77   79 am   BACKBONE|DICT|INTERRES
   155   79   80 1    
   156   79  200 1    
   157   80   81 1    
   158   80   82 1    
   159   80  201 1    
   160   81  202 1    
   161   81  203 1    
   162   81  204 1    
   163   82   83 2    
   164   82   84 am   BACKBONE|DICT|INTERRES
   165   84   85 1    
   166   84  205 1    
   167   85   86 1    
   168   85   87 1    
   169   85  206 1    
   170   86  207 1    
   171   86  208 1    
   172   86  209 1    
   173   87   88 2    
   174   87   89 am   BACKBONE|DICT|INTERRES
   175   89   90 1    
   176   89  210 1    
   177   90   91 1    
   178   90   92 1    
   179   90  211 1    
   180   91  212 1    
   181   91  213 1    
   182   91  214 1    
   183   92   93 2    
   184   92   94 am   BACKBONE|DICT|INTERRES
   185   94   95 1    
   186   94  215 1    
   187   95   96 1    
   188   95   97 1    
   189   95  216 1    
   190   96  217 1    
   191   96  218 1    
   192   96  219 1    
   193   97   98 2    
   194   97   99 am   BACKBONE|DICT|INTERRES
   195   99  100 1    
   196   99  220 1    
   197  100  101 1    
   198  100  102 1    
   199  100  221 1    
   200  101  222 1    
   201  101  223 1    
   202  101  224 1    
   203  102  103 2    
   204  102  104 am   BACKBONE|DICT|INTERRES
   205  104  105 1    
   206  104  225 1    
   207  105  106 1    
   208  105  107 1    
   209  105  226 1    
   210  106  227 1    
   211  106  228 1    
   212  106  229 1    
   213  107  108 2    
   214  107  109 am   BACKBONE|DICT|INTERRES
   215  109  110 1    
   216  109  230 1    
   217  110  111 1    
   218  110  112 1    
   219  110  231 1    
   220  111  232 1    
   221  111  233 1    
   222  111  234 1    
   223  112  113 2    
   224  112  114 am   BACKBONE|DICT|INTERRES
   225  114  115 1    
   226  114  235 1    
   227  115  116 1    
   228  115  117 1    
   229  115  236 1    
   230  116  237 1    
   231  116  238 1    
   232  116  239 1    
   233  117  118 2    
   234  117  119 am   BACKBONE|DICT|INTERRES
   235  119  120 1    
   236  119  240 1    
   237  120  121 1    
   238  120  124 1    
   239  120  241 1    
   240  121  122 am   BACKBONE|DICT|INTERRES
   241  121  123 2    
   242  122  242 1    
   243  122  243 1    
   244  124  125 1    
   245  124  244 1    
   246  124  245 1    
   247  125  126 1    
   248  126  246 1    
   249  126  247 1    
@<TRIPOS>SUBSTRUCTURE
     1 UNK         1 GROUP             0       ****    0 ROOT    
