@<TRIPOS>MOLECULE
3R540
247   249    1
SMALL
USER_CHARGES


@<TRIPOS>ATOM
      1 CA          5.8019  -16.1781  -47.1170 C.3       0 UNK        -0.1800 
      2 C           4.4181  -15.6712  -47.4963 C.2       0 UNK         0.5000 
      3 O           3.4756  -15.8392  -46.7244 O.2       0 UNK        -0.5000 
      4 N           4.3017  -15.0449  -48.6759 N.am      1 UNK        -0.5000 
      5 CA          3.0481  -14.5600  -49.2727 C.3       1 UNK         0.1400 
      6 C6          3.2680  -13.9840  -50.6949 C.3       23 UNK        -0.0398 
      7 S7          3.9043  -15.2144  -51.8822 S.3       23 UNK        -0.2404 
      8 C8          2.3918  -15.6383  -52.8056 C.3       23 UNK        -0.0205 
      9 C9          1.4417  -16.4686  -51.9583 C.ar      23 UNK        -0.0193 
     10 C10         0.4051  -15.8581  -51.2450 C.ar      23 UNK        -0.1150 
     11 C11        -0.4307  -16.6196  -50.4249 C.ar      23 UNK        -0.0193 
     12 C12        -0.2537  -18.0031  -50.3530 C.ar      23 UNK        -0.1150 
     13 C13         0.7764  -18.6233  -51.0645 C.ar      23 UNK        -0.0193 
     14 C14         1.6201  -17.8512  -51.8662 C.ar      23 UNK        -0.1150 
     15 C15         0.9785  -20.1259  -50.9735 C.3       23 UNK        -0.0205 
     16 S16         2.2356  -20.5743  -49.7301 S.3       23 UNK        -0.2404 
     17 C17         1.3838  -20.2266  -48.1504 C.3       23 UNK        -0.0398 
     18 CA          0.7088  -21.4767  -47.5394 C.3       11 UNK         0.1400 
     19 N           0.4054  -21.2968  -46.1186 N.am      11 UNK        -0.5000 
     20 C          -0.0106  -22.2771  -45.3047 C.2       10 UNK         0.5000 
     21 O          -0.1220  -23.4519  -45.6510 O.2       10 UNK        -0.5000 
     22 CA         -0.4213  -21.8753  -43.8795 C.3       10 UNK         0.1400 
     23 CB          0.8123  -21.7603  -42.9724 C.3       10 UNK        -0.1800 
     24 N          -1.1944  -20.6325  -43.8458 N.am      10 UNK        -0.5000 
     25 C          -2.3946  -20.4731  -44.4228 C.2       9 UNK         0.5000 
     26 O          -2.9883  -21.3734  -45.0146 O.2       9 UNK        -0.5000 
     27 CA         -3.0274  -19.0717  -44.3619 C.3       9 UNK         0.1400 
     28 CB         -3.6991  -18.8385  -43.0009 C.3       9 UNK        -0.1800 
     29 N          -2.0693  -17.9995  -44.6291 N.am      9 UNK        -0.5000 
     30 C          -1.4279  -17.8221  -45.7936 C.2       8 UNK         0.5000 
     31 O          -1.5910  -18.5357  -46.7849 O.2       8 UNK        -0.5000 
     32 CA         -0.3872  -16.6865  -45.8353 C.3       8 UNK         0.1400 
     33 CB         -1.0647  -15.3078  -45.8997 C.3       8 UNK        -0.1800 
     34 N           0.5151  -16.7206  -44.6860 N.am      8 UNK        -0.5000 
     35 C           1.3247  -17.7425  -44.3751 C.2       7 UNK         0.5000 
     36 O           1.4379  -18.7657  -45.0514 O.2       7 UNK        -0.5000 
     37 CA          2.0832  -17.6253  -43.0424 C.3       7 UNK         0.1400 
     38 CB          3.3194  -16.7234  -43.1875 C.3       7 UNK        -0.1800 
     39 N           1.2220  -17.1272  -41.9661 N.am      7 UNK        -0.5000 
     40 C           0.1955  -17.8137  -41.4415 C.2       6 UNK         0.5000 
     41 O          -0.1186  -18.9473  -41.7961 O.2       6 UNK        -0.5000 
     42 CA         -0.6468  -17.1072  -40.3647 C.3       6 UNK         0.1400 
     43 CB          0.0190  -17.2354  -38.9866 C.3       6 UNK        -0.1800 
     44 N          -0.8725  -15.6950  -40.6639 N.am      6 UNK        -0.5000 
     45 C          -1.5866  -15.2373  -41.7025 C.2       5 UNK         0.5000 
     46 O          -2.1813  -15.9616  -42.4999 O.2       5 UNK        -0.5000 
     47 CA         -1.5727  -13.7113  -41.9159 C.3       5 UNK         0.1400 
     48 CB         -2.6689  -13.0351  -41.0796 C.3       5 UNK        -0.1800 
     49 N          -0.2707  -13.1180  -41.5917 N.am      5 UNK        -0.5000 
     50 C           0.8605  -13.4079  -42.2458 C.2       4 UNK         0.5000 
     51 O           0.9082  -14.1537  -43.2298 O.2       4 UNK        -0.5000 
     52 CA          2.1594  -12.8283  -41.6729 C.3       4 UNK         0.1400 
     53 CB          2.6411  -13.6680  -40.4734 C.3       4 UNK        -0.1800 
     54 N           3.1433  -12.8535  -42.7440 N.am      4 UNK        -0.5000 
     55 C           4.3424  -12.2650  -42.7665 C.2       3 UNK         0.5000 
     56 O           4.8236  -11.6349  -41.8243 O.2       3 UNK        -0.5000 
     57 CA          5.1204  -12.3823  -44.0912 C.3       3 UNK         0.1400 
     58 CB          5.9884  -13.6495  -44.0980 C.3       3 UNK        -0.1800 
     59 N           4.2338  -12.3988  -45.2597 N.am      3 UNK        -0.5000 
     60 C           3.5274  -11.3405  -45.6866 C.2       2 UNK         0.5000 
     61 O           3.5992  -10.2253  -45.1682 O.2       2 UNK        -0.5000 
     62 CA          2.5940  -11.5671  -46.8891 C.3       2 UNK         0.1400 
     63 CB          2.3838  -10.2967  -47.7355 C.3       2 UNK        -0.1800 
     64 N           3.0898  -12.6477  -47.7395 N.am      2 UNK        -0.5000 
     65 C           2.3177  -13.5110  -48.4094 C.2       1 UNK         0.5000 
     66 O           1.0869  -13.4981  -48.3812 O.2       1 UNK        -0.5000 
     67 C          -0.5428  -21.9077  -48.3327 C.2       11 UNK         0.5000 
     68 O          -0.4691  -22.8692  -49.0979 O.2       11 UNK        -0.5000 
     69 N          -1.6753  -21.2243  -48.1086 N.am      12 UNK        -0.5000 
     70 CA         -2.9657  -21.5454  -48.7241 C.3       12 UNK         0.1400 
     71 CB         -3.9991  -20.4795  -48.3314 C.3       12 UNK        -0.1800 
     72 C          -3.4669  -22.9576  -48.3626 C.2       12 UNK         0.5000 
     73 O          -3.9574  -23.6723  -49.2383 O.2       12 UNK        -0.5000 
     74 N          -3.2958  -23.3447  -47.0903 N.am      13 UNK        -0.5000 
     75 CA         -3.6007  -24.6759  -46.5690 C.3       13 UNK         0.1400 
     76 CB         -3.5342  -24.6593  -45.0347 C.3       13 UNK        -0.1800 
     77 C          -2.6809  -25.7668  -47.1452 C.2       13 UNK         0.5000 
     78 O          -3.1754  -26.8289  -47.5214 O.2       13 UNK        -0.5000 
     79 N          -1.3735  -25.4847  -47.2462 N.am      14 UNK        -0.5000 
     80 CA         -0.3732  -26.3708  -47.8520 C.3       14 UNK         0.1400 
     81 CB          1.0356  -25.8113  -47.6034 C.3       14 UNK        -0.1800 
     82 C          -0.6106  -26.6001  -49.3567 C.2       14 UNK         0.5000 
     83 O          -0.4085  -27.7124  -49.8444 O.2       14 UNK        -0.5000 
     84 N          -1.0863  -25.5579  -50.0499 N.am      15 UNK        -0.5000 
     85 CA         -1.5405  -25.6004  -51.4405 C.3       15 UNK         0.1400 
     86 CB         -1.5062  -24.1729  -52.0084 C.3       15 UNK        -0.1800 
     87 C          -2.9445  -26.2224  -51.6107 C.2       15 UNK         0.5000 
     88 O          -3.4184  -26.3268  -52.7429 O.2       15 UNK        -0.5000 
     89 N          -3.6031  -26.5923  -50.4997 N.am      16 UNK        -0.5000 
     90 CA         -4.9383  -27.1953  -50.3970 C.3       16 UNK         0.1400 
     91 CB         -4.9185  -28.6286  -50.9667 C.3       16 UNK        -0.1800 
     92 C          -6.0592  -26.3300  -51.0115 C.2       16 UNK         0.5000 
     93 O          -7.0814  -26.8666  -51.4420 O.2       16 UNK        -0.5000 
     94 N          -5.8273  -25.0094  -51.0718 N.am      17 UNK        -0.5000 
     95 CA         -6.6333  -23.9877  -51.7458 C.3       17 UNK         0.1400 
     96 CB         -7.9726  -23.7850  -51.0080 C.3       17 UNK        -0.1800 
     97 C          -6.8184  -24.2193  -53.2659 C.2       17 UNK         0.5000 
     98 O          -7.7283  -23.6364  -53.8574 O.2       17 UNK        -0.5000 
     99 N          -5.9582  -25.0429  -53.8872 N.am      18 UNK        -0.5000 
    100 CA        -5.9781  -25.3229  -55.3270 C.3       18 UNK         0.1400 
    101 CB        -5.1815  -26.6059  -55.6072 C.3       18 UNK        -0.1800 
    102 C         -5.4242  -24.1474  -56.1535 C.2       18 UNK         0.5000 
    103 O         -5.8474  -23.9397  -57.2912 O.2       18 UNK        -0.5000 
    104 N         -4.5090  -23.3890  -55.5460 N.am      19 UNK        -0.5000 
    105 CA        -3.9588  -22.1293  -56.0185 C.3       19 UNK         0.1400 
    106 CB        -2.7484  -22.3911  -56.9300 C.3       19 UNK        -0.1800 
    107 C         -3.5597  -21.3314  -54.7711 C.2       19 UNK         0.5000 
    108 O         -3.2454  -21.9412  -53.7456 O.2       19 UNK        -0.5000 
    109 N         -3.5858  -19.9954  -54.8781 N.am      20 UNK        -0.5000 
    110 CA        -3.2554  -19.0310  -53.8194 C.3       20 UNK         0.1400 
    111 CB        -1.7369  -19.0226  -53.5574 C.3       20 UNK        -0.1800 
    112 C         -4.0888  -19.2463  -52.5364 C.2       20 UNK         0.5000 
    113 O         -3.5427  -19.3328  -51.4356 O.2       20 UNK        -0.5000 
    114 N         -5.4126  -19.3559  -52.7147 N.am      21 UNK        -0.5000 
    115 CA        -6.4067  -19.6047  -51.6682 C.3       21 UNK         0.1400 
    116 CB        -7.6781  -20.1643  -52.3303 C.3       21 UNK        -0.1800 
    117 C         -6.6869  -18.3497  -50.8116 C.2       21 UNK         0.5000 
    118 O         -7.8195  -17.8653  -50.7656 O.2       21 UNK        -0.5000 
    119 N         -5.6328  -17.8260  -50.1812 N.am      22 UNK        -0.5000 
    120 CA        -5.6369  -16.6398  -49.3158 C.3       22 UNK         0.1400 
    121 C         -6.5035  -16.8210  -48.0381 C.2       22 UNK         0.5000 
    122 N         -7.1984  -15.7796  -47.6005 N.am      22 UNK        -0.7600 
    123 O         -6.5157  -17.8801  -47.4149 O.2       22 UNK        -0.5000 
    124 C124       -4.1959  -16.2272  -48.9275 C.3       23 UNK        -0.0398 
    125 S125       -3.1177  -15.9519  -50.3766 S.3       23 UNK        -0.2404 
    126 C126       -1.4909  -15.9522  -49.5698 C.3       23 UNK        -0.0205 
    127 H127        5.8328  -17.2650  -47.1922 H         1 UNK         0.0600 
    128 H128        6.0387  -15.9032  -46.0899 H         1 UNK         0.0600 
    129 H129        6.5757  -15.7673  -47.7658 H         1 UNK         0.0600 
    130 H130        5.1178  -14.9557  -49.2646 H         1 UNK         0.3000 
    131 H131        2.3841  -15.4230  -49.3445 H         1 UNK         0.0600 
    132 H132        2.3441  -13.5593  -51.0914 H         1 UNK         0.0800 
    133 H133        3.9785  -13.1562  -50.6610 H         1 UNK         0.0800 
    134 H134        2.6703  -16.2001  -53.6984 H         1 UNK         0.0800 
    135 H135        1.9019  -14.7303  -53.1605 H         1 UNK         0.0800 
    136 H136        0.2674  -14.7876  -51.2997 H         1 UNK         0.1150 
    137 H137       -0.9153  -18.5933  -49.7334 H         1 UNK         0.1150 
    138 H138        2.4256  -18.3257  -52.4092 H         1 UNK         0.1150 
    139 H139        0.0318  -20.6236  -50.7633 H         1 UNK         0.0800 
    140 H140        1.3004  -20.5057  -51.9442 H         1 UNK         0.0800 
    141 H141        0.6794  -19.4025  -48.2500 H         1 UNK         0.0800 
    142 H142        2.1520  -19.8630  -47.4667 H         1 UNK         0.0800 
    143 H143        1.4251  -22.2993  -47.5967 H         1 UNK         0.0600 
    144 H144        0.5132  -20.3588  -45.7424 H         1 UNK         0.3000 
    145 H145       -1.0564  -22.6701  -43.4833 H         1 UNK         0.0600 
    146 H146        0.5235  -21.5916  -41.9351 H         1 UNK         0.0600 
    147 H147        1.4037  -22.6764  -42.9982 H         1 UNK         0.0600 
    148 H148        1.4624  -20.9403  -43.2780 H         1 UNK         0.0600 
    149 H149       -0.7885  -19.8627  -43.3205 H         1 UNK         0.3000 
    150 H150       -3.7996  -19.0240  -45.1327 H         1 UNK         0.0600 
    151 H151       -4.4280  -19.6206  -42.7852 H         1 UNK         0.0600 
    152 H152       -4.2288  -17.8860  -42.9818 H         1 UNK         0.0600 
    153 H153       -2.9714  -18.8327  -42.1887 H         1 UNK         0.0600 
    154 H154       -1.9018  -17.3447  -43.8707 H         1 UNK         0.3000 
    155 H155        0.2149  -16.8171  -46.7372 H         1 UNK         0.0600 
    156 H156       -1.5912  -15.0735  -44.9752 H         1 UNK         0.0600 
    157 H157       -1.7949  -15.2542  -46.7063 H         1 UNK         0.0600 
    158 H158       -0.3304  -14.5203  -46.0715 H         1 UNK         0.0600 
    159 H159        0.5186  -15.9011  -44.0869 H         1 UNK         0.3000 
    160 H160        2.4265  -18.6240  -42.7646 H         1 UNK         0.0600 
    161 H161        3.0509  -15.7096  -43.4819 H         1 UNK         0.0600 
    162 H162        3.9936  -17.1119  -43.9520 H         1 UNK         0.0600 
    163 H163        3.8817  -16.6665  -42.2556 H         1 UNK         0.0600 
    164 H164        1.3814  -16.1815  -41.6566 H         1 UNK         0.3000 
    165 H165       -1.6187  -17.6034  -40.3227 H         1 UNK         0.0600 
    166 H166       -0.6080  -16.8067  -38.2045 H         1 UNK         0.0600 
    167 H167        0.1855  -18.2826  -38.7303 H         1 UNK         0.0600 
    168 H168        0.9861  -16.7319  -38.9559 H         1 UNK         0.0600 
    169 H169       -0.4243  -15.0244  -40.0581 H         1 UNK         0.3000 
    170 H170       -1.7798  -13.5205  -42.9709 H         1 UNK         0.0600 
    171 H171       -3.6501  -13.4492  -41.3159 H         1 UNK         0.0600 
    172 H172       -2.5039  -13.1711  -40.0101 H         1 UNK         0.0600 
    173 H173       -2.7130  -11.9643  -41.2795 H         1 UNK         0.0600 
    174 H174       -0.2396  -12.4966  -40.7959 H         1 UNK         0.3000 
    175 H175        1.9861  -11.7947  -41.3674 H         1 UNK         0.0600 
    176 H176        2.8648  -14.6948  -40.7642 H         1 UNK         0.0600 
    177 H177        3.5423  -13.2468  -40.0283 H         1 UNK         0.0600 
    178 H178        1.8861  -13.7043  -39.6873 H         1 UNK         0.0600 
    179 H179        2.8140  -13.3356  -43.5714 H         1 UNK         0.3000 
    180 H180        5.7796  -11.5151  -44.1695 H         1 UNK         0.0600 
    181 H181        5.3818  -14.5545  -44.0489 H         1 UNK         0.0600 
    182 H182        6.6664  -13.6625  -43.2436 H         1 UNK         0.0600 
    183 H183        6.6013  -13.7013  -44.9979 H         1 UNK         0.0600 
    184 H184        4.0916  -13.2900  -45.7131 H         1 UNK         0.3000 
    185 H185        1.6312  -11.8566  -46.4623 H         1 UNK         0.0600 
    186 H186        1.9649   -9.4872  -47.1367 H         1 UNK         0.0600 
    187 H187        3.3224   -9.9416  -48.1623 H         1 UNK         0.0600 
    188 H188        1.6904  -10.4796  -48.5564 H         1 UNK         0.0600 
    189 H189        4.0939  -12.7236  -47.8271 H         1 UNK         0.3000 
    190 H190       -1.6580  -20.4277  -47.4789 H         1 UNK         0.3000 
    191 H191       -2.8328  -21.5081  -49.8074 H         1 UNK         0.0600 
    192 H192       -4.1692  -20.4536  -47.2554 H         1 UNK         0.0600 
    193 H193       -4.9598  -20.6706  -48.8097 H         1 UNK         0.0600 
    194 H194       -3.6726  -19.4865  -48.6392 H         1 UNK         0.0600 
    195 H195       -2.9440  -22.6656  -46.4203 H         1 UNK         0.3000 
    196 H196       -4.6249  -24.9192  -46.8595 H         1 UNK         0.0600 
    197 H197       -3.7824  -25.6378  -44.6220 H         1 UNK         0.0600 
    198 H198       -4.2408  -23.9413  -44.6180 H         1 UNK         0.0600 
    199 H199       -2.5393  -24.3940  -44.6769 H         1 UNK         0.0600 
    200 H200       -1.0274  -24.6090  -46.8622 H         1 UNK         0.3000 
    201 H201       -0.4446  -27.3407  -47.3555 H         1 UNK         0.0600 
    202 H202        1.2437  -25.7284  -46.5366 H         1 UNK         0.0600 
    203 H203        1.1605  -24.8232  -48.0467 H         1 UNK         0.0600 
    204 H204        1.7969  -26.4633  -48.0332 H         1 UNK         0.0600 
    205 H205       -1.1486  -24.6565  -49.5843 H         1 UNK         0.3000 
    206 H206       -0.8435  -26.2118  -52.0168 H         1 UNK         0.0600 
    207 H207       -0.5139  -23.7317  -51.9136 H         1 UNK         0.0600 
    208 H208       -1.7632  -24.1658  -53.0682 H         1 UNK         0.0600 
    209 H209       -2.2119  -23.5183  -51.4951 H         1 UNK         0.0600 
    210 H210       -3.1424  -26.4430  -49.6104 H         1 UNK         0.3000 
    211 H211       -5.1630  -27.2645  -49.3323 H         1 UNK         0.0600 
    212 H212       -4.7645  -28.6318  -52.0463 H         1 UNK         0.0600 
    213 H213       -5.8589  -29.1439  -50.7683 H         1 UNK         0.0600 
    214 H214       -4.1243  -29.2212  -50.5125 H         1 UNK         0.0600 
    215 H215       -4.9816  -24.6646  -50.6246 H         1 UNK         0.3000 
    216 H216       -6.0664  -23.0597  -51.6572 H         1 UNK         0.0600 
    217 H217       -8.5287  -22.9428  -51.4198 H         1 UNK         0.0600 
    218 H218       -7.8105  -23.5772  -49.9503 H         1 UNK         0.0600 
    219 H219       -8.6131  -24.6638  -51.0836 H         1 UNK         0.0600 
    220 H220       -5.2221  -25.4893  -53.3495 H         1 UNK         0.3000 
    221 H221       -7.0125  -25.4917  -55.6340 H         1 UNK         0.0600 
    222 H222       -4.1259  -26.4868  -55.3603 H         1 UNK         0.0600 
    223 H223       -5.5683  -27.4454  -55.0291 H         1 UNK         0.0600 
    224 H224       -5.2421  -26.8791  -56.6613 H         1 UNK         0.0600 
    225 H225       -4.2391  -23.6127  -54.5955 H         1 UNK         0.3000 
    226 H226       -4.7260  -21.5767  -56.5651 H         1 UNK         0.0600 
    227 H227       -3.0334  -22.9698  -57.8088 H         1 UNK         0.0600 
    228 H228       -2.3152  -21.4547  -57.2830 H         1 UNK         0.0600 
    229 H229       -1.9647  -22.9407  -56.4068 H         1 UNK         0.0600 
    230 H230       -3.8642  -19.5909  -55.7614 H         1 UNK         0.3000 
    231 H231       -3.5266  -18.0450  -54.1994 H         1 UNK         0.0600 
    232 H232       -1.1741  -18.8854  -54.4803 H         1 UNK         0.0600 
    233 H233       -1.3991  -19.9489  -53.0912 H         1 UNK         0.0600 
    234 H234       -1.4706  -18.2012  -52.8928 H         1 UNK         0.0600 
    235 H235       -5.7740  -19.2565  -53.6518 H         1 UNK         0.3000 
    236 H236       -6.0176  -20.3743  -50.9988 H         1 UNK         0.0600 
    237 H237       -8.4289  -20.4206  -51.5819 H         1 UNK         0.0600 
    238 H238       -8.1277  -19.4434  -53.0141 H         1 UNK         0.0600 
    239 H239       -7.4619  -21.0693  -52.8969 H         1 UNK         0.0600 
    240 H240       -4.7310  -18.2698  -50.3283 H         1 UNK         0.3000 
    241 H241       -6.0717  -15.8278  -49.9018 H         1 UNK         0.0600 
    242 H242       -7.7529  -15.8800  -46.7644 H         1 UNK         0.3800 
    243 H243       -7.2011  -14.8983  -48.0908 H         1 UNK         0.3800 
    244 H244       -4.2058  -15.3104  -48.3354 H         1 UNK         0.0800 
    245 H245       -3.7504  -16.9984  -48.2958 H         1 UNK         0.0800 
    246 H246       -1.5447  -16.4876  -48.6239 H         1 UNK         0.0800 
    247 H247       -1.2039  -14.9278  -49.3274 H         1 UNK         0.0800 
@<TRIPOS>BOND
     1    1    2 1    
     2    1  127 1    
     3    1  128 1    
     4    1  129 1    
     5    2    3 2    
     6    2    4 am   BACKBONE|DICT|INTERRES
     7    4    5 1    
     8    4  130 1    
     9    5    6 1    
    10    5   65 1    
    11    5  131 1    
    12    6    7 1    
    13    6  132 1    
    14    6  133 1    
    15    7    8 1    
    16    8    9 1    
    17    8  134 1    
    18    8  135 1    
    19    9   10 ar   
    20    9   14 ar   
    21   10   11 ar   
    22   10  136 1    
    23   11   12 ar   
    24   11  126 1    
    25   12   13 ar   
    26   12  137 1    
    27   13   14 ar   
    28   13   15 1    
    29   14  138 1    
    30   15   16 1    
    31   15  139 1    
    32   15  140 1    
    33   16   17 1    
    34   17   18 1    
    35   17  141 1    
    36   17  142 1    
    37   18   19 1    
    38   18   67 1    
    39   18  143 1    
    40   19   20 am   BACKBONE|DICT|INTERRES
    41   19  144 1    
    42   20   21 2    
    43   20   22 1    
    44   22   23 1    
    45   22   24 1    
    46   22  145 1    
    47   23  146 1    
    48   23  147 1    
    49   23  148 1    
    50   24   25 am   BACKBONE|DICT|INTERRES
    51   24  149 1    
    52   25   26 2    
    53   25   27 1    
    54   27   28 1    
    55   27   29 1    
    56   27  150 1    
    57   28  151 1    
    58   28  152 1    
    59   28  153 1    
    60   29   30 am   BACKBONE|DICT|INTERRES
    61   29  154 1    
    62   30   31 2    
    63   30   32 1    
    64   32   33 1    
    65   32   34 1    
    66   32  155 1    
    67   33  156 1    
    68   33  157 1    
    69   33  158 1    
    70   34   35 am   BACKBONE|DICT|INTERRES
    71   34  159 1    
    72   35   36 2    
    73   35   37 1    
    74   37   38 1    
    75   37   39 1    
    76   37  160 1    
    77   38  161 1    
    78   38  162 1    
    79   38  163 1    
    80   39   40 am   BACKBONE|DICT|INTERRES
    81   39  164 1    
    82   40   41 2    
    83   40   42 1    
    84   42   43 1    
    85   42   44 1    
    86   42  165 1    
    87   43  166 1    
    88   43  167 1    
    89   43  168 1    
    90   44   45 am   BACKBONE|DICT|INTERRES
    91   44  169 1    
    92   45   46 2    
    93   45   47 1    
    94   47   48 1    
    95   47   49 1    
    96   47  170 1    
    97   48  171 1    
    98   48  172 1    
    99   48  173 1    
   100   49   50 am   BACKBONE|DICT|INTERRES
   101   49  174 1    
   102   50   51 2    
   103   50   52 1    
   104   52   53 1    
   105   52   54 1    
   106   52  175 1    
   107   53  176 1    
   108   53  177 1    
   109   53  178 1    
   110   54   55 am   BACKBONE|DICT|INTERRES
   111   54  179 1    
   112   55   56 2    
   113   55   57 1    
   114   57   58 1    
   115   57   59 1    
   116   57  180 1    
   117   58  181 1    
   118   58  182 1    
   119   58  183 1    
   120   59   60 am   BACKBONE|DICT|INTERRES
   121   59  184 1    
   122   60   61 2    
   123   60   62 1    
   124   62   63 1    
   125   62   64 1    
   126   62  185 1    
   127   63  186 1    
   128   63  187 1    
   129   63  188 1    
   130   64   65 am   BACKBONE|DICT|INTERRES
   131   64  189 1    
   132   65   66 2    
   133   67   68 2    
   134   67   69 am   BACKBONE|DICT|INTERRES
   135   69   70 1    
   136   69  190 1    
   137   70   71 1    
   138   70   72 1    
   139   70  191 1    
   140   71  192 1    
   141   71  193 1    
   142   71  194 1    
   143   72   73 2    
   144   72   74 am   BACKBONE|DICT|INTERRES
   145   74   75 1    
   146   74  195 1    
   147   75   76 1    
   148   75   77 1    
   149   75  196 1    
   150   76  197 1    
   151   76  198 1    
   152   76  199 1    
   153   77   78 2    
   154   77   79 am   BACKBONE|DICT|INTERRES
   155   79   80 1    
   156   79  200 1    
   157   80   81 1    
   158   80   82 1    
   159   80  201 1    
   160   81  202 1    
   161   81  203 1    
   162   81  204 1    
   163   82   83 2    
   164   82   84 am   BACKBONE|DICT|INTERRES
   165   84   85 1    
   166   84  205 1    
   167   85   86 1    
   168   85   87 1    
   169   85  206 1    
   170   86  207 1    
   171   86  208 1    
   172   86  209 1    
   173   87   88 2    
   174   87   89 am   BACKBONE|DICT|INTERRES
   175   89   90 1    
   176   89  210 1    
   177   90   91 1    
   178   90   92 1    
   179   90  211 1    
   180   91  212 1    
   181   91  213 1    
   182   91  214 1    
   183   92   93 2    
   184   92   94 am   BACKBONE|DICT|INTERRES
   185   94   95 1    
   186   94  215 1    
   187   95   96 1    
   188   95   97 1    
   189   95  216 1    
   190   96  217 1    
   191   96  218 1    
   192   96  219 1    
   193   97   98 2    
   194   97   99 am   BACKBONE|DICT|INTERRES
   195   99  100 1    
   196   99  220 1    
   197  100  101 1    
   198  100  102 1    
   199  100  221 1    
   200  101  222 1    
   201  101  223 1    
   202  101  224 1    
   203  102  103 2    
   204  102  104 am   BACKBONE|DICT|INTERRES
   205  104  105 1    
   206  104  225 1    
   207  105  106 1    
   208  105  107 1    
   209  105  226 1    
   210  106  227 1    
   211  106  228 1    
   212  106  229 1    
   213  107  108 2    
   214  107  109 am   BACKBONE|DICT|INTERRES
   215  109  110 1    
   216  109  230 1    
   217  110  111 1    
   218  110  112 1    
   219  110  231 1    
   220  111  232 1    
   221  111  233 1    
   222  111  234 1    
   223  112  113 2    
   224  112  114 am   BACKBONE|DICT|INTERRES
   225  114  115 1    
   226  114  235 1    
   227  115  116 1    
   228  115  117 1    
   229  115  236 1    
   230  116  237 1    
   231  116  238 1    
   232  116  239 1    
   233  117  118 2    
   234  117  119 am   BACKBONE|DICT|INTERRES
   235  119  120 1    
   236  119  240 1    
   237  120  121 1    
   238  120  124 1    
   239  120  241 1    
   240  121  122 am   BACKBONE|DICT|INTERRES
   241  121  123 2    
   242  122  242 1    
   243  122  243 1    
   244  124  125 1    
   245  124  244 1    
   246  124  245 1    
   247  125  126 1    
   248  126  246 1    
   249  126  247 1    
@<TRIPOS>SUBSTRUCTURE
     1 UNK         1 GROUP             0       ****    0 ROOT    
