@<TRIPOS>MOLECULE
3R540
247   249    1
SMALL
USER_CHARGES


@<TRIPOS>ATOM
      1 CA          2.3282  -12.2546  -47.5566 C.3       0 UNK        -0.1800 
      2 C           3.7465  -12.3887  -47.0205 C.2       0 UNK         0.5000 
      3 O           4.1822  -11.5636  -46.2182 O.2       0 UNK        -0.5000 
      4 N           4.4613  -13.4420  -47.4367 N.am      1 UNK        -0.5000 
      5 CA          5.8335  -13.7789  -47.0202 C.3       1 UNK         0.1400 
      6 C6          6.4499  -14.9059  -47.8907 C.3       23 UNK        -0.0398 
      7 S7          5.3333  -16.3324  -48.1529 S.3       23 UNK        -0.2404 
      8 C8          4.9952  -16.1635  -49.9331 C.3       23 UNK        -0.0205 
      9 C9          3.7279  -16.8994  -50.3312 C.ar      23 UNK        -0.0193 
     10 C10         2.5117  -16.2119  -50.3898 C.ar      23 UNK        -0.1150 
     11 C11         1.3438  -16.8721  -50.7779 C.ar      23 UNK        -0.0193 
     12 C12         1.3983  -18.2315  -51.0994 C.ar      23 UNK        -0.1150 
     13 C13         2.6046  -18.9353  -51.0298 C.ar      23 UNK        -0.0193 
     14 C14         3.7699  -18.2592  -50.6548 C.ar      23 UNK        -0.1150 
     15 C15         2.6405  -20.4244  -51.3592 C.3       23 UNK        -0.0205 
     16 S16         3.0959  -21.4580  -49.9254 S.3       23 UNK        -0.2404 
     17 C17         1.8554  -20.9509  -48.6882 C.3       23 UNK        -0.0398 
     18 CA          1.0743  -22.1181  -48.0393 C.3       11 UNK         0.1400 
     19 N           0.4684  -21.6767  -46.7814 N.am      11 UNK        -0.5000 
     20 C          -0.1286  -22.4624  -45.8738 C.2       10 UNK         0.5000 
     21 O          -0.1769  -23.6880  -45.9639 O.2       10 UNK        -0.5000 
     22 CA         -0.8438  -21.7555  -44.7000 C.3       10 UNK         0.1400 
     23 CB          0.1009  -21.6283  -43.4972 C.3       10 UNK        -0.1800 
     24 N          -1.3583  -20.4289  -45.0520 N.am      10 UNK        -0.5000 
     25 C          -2.2315  -20.1875  -46.0423 C.2       9 UNK         0.5000 
     26 O          -2.8143  -21.0846  -46.6516 O.2       9 UNK        -0.5000 
     27 CA         -2.4313  -18.7253  -46.4961 C.3       9 UNK         0.1400 
     28 CB         -3.8100  -18.2073  -46.0630 C.3       9 UNK        -0.1800 
     29 N          -1.3956  -17.7892  -46.0466 N.am      9 UNK        -0.5000 
     30 C          -0.0784  -17.8890  -46.2849 C.2       8 UNK         0.5000 
     31 O           0.4260  -18.7997  -46.9395 O.2       8 UNK        -0.5000 
     32 CA          0.8393  -16.8472  -45.6198 C.3       8 UNK         0.1400 
     33 CB          1.1445  -15.6894  -46.5806 C.3       8 UNK        -0.1800 
     34 N           0.3000  -16.3180  -44.3644 N.am      8 UNK        -0.5000 
     35 C           0.0777  -17.0453  -43.2581 C.2       7 UNK         0.5000 
     36 O           0.2970  -18.2543  -43.1795 O.2       7 UNK        -0.5000 
     37 CA         -0.5319  -16.3053  -42.0556 C.3       7 UNK         0.1400 
     38 CB          0.5340  -15.5129  -41.2836 C.3       7 UNK        -0.1800 
     39 N          -1.6003  -15.4043  -42.4817 N.am      7 UNK        -0.5000 
     40 C          -2.8510  -15.8003  -42.7564 C.2       6 UNK         0.5000 
     41 O          -3.2577  -16.9494  -42.5864 O.2       6 UNK        -0.5000 
     42 CA         -3.8060  -14.7382  -43.3340 C.3       6 UNK         0.1400 
     43 CB         -4.5893  -14.0487  -42.2069 C.3       6 UNK        -0.1800 
     44 N          -3.1177  -13.7205  -44.1305 N.am      6 UNK        -0.5000 
     45 C          -2.5194  -13.9501  -45.3082 C.2       5 UNK         0.5000 
     46 O          -2.5032  -15.0465  -45.8642 O.2       5 UNK        -0.5000 
     47 CA         -1.7688  -12.7635  -45.9397 C.3       5 UNK         0.1400 
     48 CB         -2.7171  -11.9195  -46.8033 C.3       5 UNK        -0.1800 
     49 N          -1.1202  -11.9068  -44.9418 N.am      5 UNK        -0.5000 
     50 C          -0.1087  -12.3012  -44.1590 C.2       4 UNK         0.5000 
     51 O           0.3822  -13.4330  -44.1916 O.2       4 UNK        -0.5000 
     52 CA          0.4263  -11.2826  -43.1494 C.3       4 UNK         0.1400 
     53 CB         -0.2048  -11.5026  -41.7632 C.3       4 UNK        -0.1800 
     54 N           1.8710  -11.4496  -43.0873 N.am      4 UNK        -0.5000 
     55 C           2.7539  -10.5428  -42.6573 C.2       3 UNK         0.5000 
     56 O           2.4276   -9.4597  -42.1687 O.2       3 UNK        -0.5000 
     57 CA          4.2496  -10.8684  -42.8503 C.3       3 UNK         0.1400 
     58 CB          5.1050  -10.5080  -41.6174 C.3       3 UNK        -0.1800 
     59 N           4.5068  -12.2337  -43.3287 N.am      3 UNK        -0.5000 
     60 C           4.4670  -13.3877  -42.6432 C.2       2 UNK         0.5000 
     61 O           4.2101  -13.4585  -41.4416 O.2       2 UNK        -0.5000 
     62 CA          4.7296  -14.6929  -43.4312 C.3       2 UNK         0.1400 
     63 CB          3.6050  -15.7109  -43.1989 C.3       2 UNK        -0.1800 
     64 N           4.8548  -14.4815  -44.8741 N.am      2 UNK        -0.5000 
     65 C           5.9662  -14.0933  -45.5120 C.2       1 UNK         0.5000 
     66 O           7.0525  -13.9396  -44.9529 O.2       1 UNK        -0.5000 
     67 C           0.0227  -22.7114  -49.0047 C.2       11 UNK         0.5000 
     68 O           0.3011  -23.7089  -49.6703 O.2       11 UNK        -0.5000 
     69 N          -1.1809  -22.1173  -49.0335 N.am      12 UNK        -0.5000 
     70 CA         -2.3225  -22.6267  -49.7924 C.3       12 UNK         0.1400 
     71 CB         -3.3492  -21.5110  -50.0296 C.3       12 UNK        -0.1800 
     72 C          -2.9740  -23.8316  -49.0995 C.2       12 UNK         0.5000 
     73 O          -3.3425  -24.7857  -49.7822 O.2       12 UNK        -0.5000 
     74 N          -3.0717  -23.7995  -47.7625 N.am      13 UNK        -0.5000 
     75 CA         -3.5863  -24.9032  -46.9443 C.3       13 UNK         0.1400 
     76 CB         -3.6803  -24.4661  -45.4762 C.3       13 UNK        -0.1800 
     77 C          -2.7460  -26.1885  -47.0799 C.2       13 UNK         0.5000 
     78 O          -3.3119  -27.2787  -47.1600 O.2       13 UNK        -0.5000 
     79 N          -1.4180  -26.0330  -47.1825 N.am      14 UNK        -0.5000 
     80 CA         -0.4613  -27.1023  -47.4839 C.3       14 UNK         0.1400 
     81 CB          0.9660  -26.5613  -47.3119 C.3       14 UNK        -0.1800 
     82 C          -0.6410  -27.7177  -48.8888 C.2       14 UNK         0.5000 
     83 O          -0.2624  -28.8707  -49.0955 O.2       14 UNK        -0.5000 
     84 N          -1.2456  -26.9586  -49.8123 N.am      15 UNK        -0.5000 
     85 CA         -1.6451  -27.3887  -51.1529 C.3       15 UNK         0.1400 
     86 CB         -1.3488  -26.2503  -52.1468 C.3       15 UNK        -0.1800 
     87 C          -3.1295  -27.8156  -51.1980 C.2       15 UNK         0.5000 
     88 O          -3.7249  -27.8248  -52.2756 O.2       15 UNK        -0.5000 
     89 N          -3.7167  -28.1347  -50.0332 N.am      16 UNK        -0.5000 
     90 CA         -5.1003  -28.5775  -49.8199 C.3       16 UNK         0.1400 
     91 CB         -5.3400  -29.9530  -50.4773 C.3       16 UNK        -0.1800 
     92 C          -6.1569  -27.5270  -50.2252 C.2       16 UNK         0.5000 
     93 O          -7.2695  -27.8912  -50.6087 O.2       16 UNK        -0.5000 
     94 N          -5.7818  -26.2418  -50.1386 N.am      17 UNK        -0.5000 
     95 CA         -6.5548  -25.0510  -50.5038 C.3       17 UNK         0.1400 
     96 CB         -7.8428  -24.9316  -49.6636 C.3       17 UNK        -0.1800 
     97 C          -6.8131  -24.9113  -52.0184 C.2       17 UNK         0.5000 
     98 O          -7.6469  -24.0950  -52.4127 O.2       17 UNK        -0.5000 
     99 N          -6.0699  -25.6546  -52.8547 N.am      18 UNK        -0.5000 
    100 CA        -6.1688  -25.6127  -54.3189 C.3       18 UNK         0.1400 
    101 CB        -5.3312  -26.7520  -54.9173 C.3       18 UNK        -0.1800 
    102 C         -5.7449  -24.2591  -54.9234 C.2       18 UNK         0.5000 
    103 O         -6.2230  -23.8941  -55.9977 O.2       18 UNK        -0.5000 
    104 N         -4.8800  -23.5301  -54.2057 N.am      19 UNK        -0.5000 
    105 CA        -4.4416  -22.1734  -54.5346 C.3       19 UNK         0.1400 
    106 CB        -3.0533  -21.9503  -53.9150 C.3       19 UNK        -0.1800 
    107 C         -5.4383  -21.0804  -54.0841 C.2       19 UNK         0.5000 
    108 O         -5.1978  -19.9065  -54.3657 O.2       19 UNK        -0.5000 
    109 N         -6.5299  -21.4721  -53.4069 N.am      20 UNK        -0.5000 
    110 CA        -7.5924  -20.6240  -52.8609 C.3       20 UNK         0.1400 
    111 CB        -8.3759  -19.9206  -53.9931 C.3       20 UNK        -0.1800 
    112 C         -7.0721  -19.6797  -51.7557 C.2       20 UNK         0.5000 
    113 O         -6.3188  -20.1260  -50.8872 O.2       20 UNK        -0.5000 
    114 N         -7.4985  -18.4099  -51.7746 N.am      21 UNK        -0.5000 
    115 CA        -7.1621  -17.3715  -50.7981 C.3       21 UNK         0.1400 
    116 CB        -8.2136  -16.2510  -50.8939 C.3       21 UNK        -0.1800 
    117 C         -5.7191  -16.8503  -50.9731 C.2       21 UNK         0.5000 
    118 O         -5.5186  -15.6964  -51.3562 O.2       21 UNK        -0.5000 
    119 N         -4.7522  -17.7271  -50.6820 N.am      22 UNK        -0.5000 
    120 CA        -3.3036  -17.5646  -50.8589 C.3       22 UNK         0.1400 
    121 C         -2.8852  -17.6895  -52.3503 C.2       22 UNK         0.5000 
    122 N         -2.0800  -18.6856  -52.6946 N.am      22 UNK        -0.7600 
    123 O         -3.2387  -16.8667  -53.1906 O.2       22 UNK        -0.5000 
    124 C124       -2.7245  -16.2855  -50.1872 C.3       23 UNK        -0.0398 
    125 S125       -1.0697  -16.5806  -49.4841 S.3       23 UNK        -0.2404 
    126 C126        0.0230  -16.1236  -50.8631 C.3       23 UNK        -0.0205 
    127 H127        2.2134  -11.3065  -48.0817 H         1 UNK         0.0600 
    128 H128        1.6135  -12.2788  -46.7344 H         1 UNK         0.0600 
    129 H129        2.0771  -13.0599  -48.2476 H         1 UNK         0.0600 
    130 H130        4.0444  -14.1003  -48.0791 H         1 UNK         0.3000 
    131 H131        6.4358  -12.8828  -47.1845 H         1 UNK         0.0600 
    132 H132        6.7329  -14.4896  -48.8581 H         1 UNK         0.0800 
    133 H133        7.3853  -15.2702  -47.4614 H         1 UNK         0.0800 
    134 H134        5.8459  -16.5453  -50.4998 H         1 UNK         0.0800 
    135 H135        4.8997  -15.1091  -50.1973 H         1 UNK         0.0800 
    136 H136        2.4749  -15.1611  -50.1395 H         1 UNK         0.1150 
    137 H137        0.4931  -18.7426  -51.3929 H         1 UNK         0.1150 
    138 H138        4.7070  -18.7957  -50.6027 H         1 UNK         0.1150 
    139 H139        1.6750  -20.7606  -51.7407 H         1 UNK         0.0800 
    140 H140        3.3613  -20.5940  -52.1600 H         1 UNK         0.0800 
    141 H141        1.1612  -20.2249  -49.1129 H         1 UNK         0.0800 
    142 H142        2.4083  -20.4066  -47.9210 H         1 UNK         0.0800 
    143 H143        1.7812  -22.9127  -47.7910 H         1 UNK         0.0600 
    144 H144        0.4423  -20.6690  -46.6440 H         1 UNK         0.3000 
    145 H145       -1.6940  -22.3698  -44.4028 H         1 UNK         0.0600 
    146 H146       -0.4083  -21.1871  -42.6401 H         1 UNK         0.0600 
    147 H147        0.4736  -22.6055  -43.1873 H         1 UNK         0.0600 
    148 H148        0.9650  -21.0043  -43.7298 H         1 UNK         0.0600 
    149 H149       -0.9166  -19.6400  -44.5962 H         1 UNK         0.3000 
    150 H150       -2.4030  -18.7312  -47.5872 H         1 UNK         0.0600 
    151 H151       -4.6041  -18.8740  -46.4019 H         1 UNK         0.0600 
    152 H152       -4.0130  -17.2241  -46.4876 H         1 UNK         0.0600 
    153 H153       -3.8859  -18.1293  -44.9784 H         1 UNK         0.0600 
    154 H154       -1.7236  -16.9556  -45.5722 H         1 UNK         0.3000 
    155 H155        1.7815  -17.3473  -45.3865 H         1 UNK         0.0600 
    156 H156        0.2358  -15.1651  -46.8747 H         1 UNK         0.0600 
    157 H157        1.6194  -16.0562  -47.4916 H         1 UNK         0.0600 
    158 H158        1.8207  -14.9656  -46.1271 H         1 UNK         0.0600 
    159 H159        0.1329  -15.3164  -44.3344 H         1 UNK         0.3000 
    160 H160       -0.9456  -17.0541  -41.3765 H         1 UNK         0.0600 
    161 H161        0.9846  -14.7299  -41.8930 H         1 UNK         0.0600 
    162 H162        1.3361  -16.1691  -40.9444 H         1 UNK         0.0600 
    163 H163        0.1071  -15.0407  -40.3989 H         1 UNK         0.0600 
    164 H164       -1.3390  -14.4508  -42.6822 H         1 UNK         0.3000 
    165 H165       -4.5181  -15.2528  -43.9829 H         1 UNK         0.0600 
    166 H166       -5.3223  -13.3480  -42.6071 H         1 UNK         0.0600 
    167 H167       -5.1339  -14.7790  -41.6067 H         1 UNK         0.0600 
    168 H168       -3.9291  -13.4985  -41.5351 H         1 UNK         0.0600 
    169 H169       -3.0841  -12.7874  -43.7476 H         1 UNK         0.3000 
    170 H170       -0.9926  -13.1699  -46.5907 H         1 UNK         0.0600 
    171 H171       -3.1966  -12.5325  -47.5679 H         1 UNK         0.0600 
    172 H172       -3.5066  -11.4605  -46.2071 H         1 UNK         0.0600 
    173 H173       -2.1781  -11.1239  -47.3180 H         1 UNK         0.0600 
    174 H174       -1.4726  -10.9638  -44.8584 H         1 UNK         0.3000 
    175 H175        0.1956  -10.2758  -43.5037 H         1 UNK         0.0600 
    176 H176        0.0369  -12.4871  -41.3622 H         1 UNK         0.0600 
    177 H177        0.1439  -10.7584  -41.0473 H         1 UNK         0.0600 
    178 H178       -1.2915  -11.4221  -41.8091 H         1 UNK         0.0600 
    179 H179        2.2086  -12.3128  -43.4918 H         1 UNK         0.3000 
    180 H180        4.5800  -10.2202  -43.6632 H         1 UNK         0.0600 
    181 H181        4.7638  -11.0219  -40.7187 H         1 UNK         0.0600 
    182 H182        5.0582   -9.4380  -41.4121 H         1 UNK         0.0600 
    183 H183        6.1534  -10.7611  -41.7750 H         1 UNK         0.0600 
    184 H184        4.6785  -12.2882  -44.3267 H         1 UNK         0.3000 
    185 H185        5.6593  -15.1205  -43.0503 H         1 UNK         0.0600 
    186 H186        3.5191  -15.9723  -42.1439 H         1 UNK         0.0600 
    187 H187        2.6469  -15.3066  -43.5209 H         1 UNK         0.0600 
    188 H188        3.7833  -16.6359  -43.7476 H         1 UNK         0.0600 
    189 H189        4.0120  -14.5833  -45.4192 H         1 UNK         0.3000 
    190 H190       -1.3632  -21.3503  -48.4019 H         1 UNK         0.3000 
    191 H191       -1.9681  -22.9636  -50.7691 H         1 UNK         0.0600 
    192 H192       -3.7179  -21.0805  -49.0991 H         1 UNK         0.0600 
    193 H193       -4.2146  -21.8896  -50.5754 H         1 UNK         0.0600 
    194 H194       -2.9200  -20.7097  -50.6268 H         1 UNK         0.0600 
    195 H195       -2.8073  -22.9476  -47.2775 H         1 UNK         0.3000 
    196 H196       -4.5957  -25.1262  -47.2967 H         1 UNK         0.0600 
    197 H197       -4.2084  -25.2145  -44.8843 H         1 UNK         0.0600 
    198 H198       -4.2222  -23.5257  -45.3732 H         1 UNK         0.0600 
    199 H199       -2.6941  -24.3405  -45.0313 H         1 UNK         0.0600 
    200 H200       -1.0259  -25.1087  -47.0275 H         1 UNK         0.3000 
    201 H201       -0.6141  -27.9013  -46.7556 H         1 UNK         0.0600 
    202 H202        1.1316  -26.2020  -46.2961 H         1 UNK         0.0600 
    203 H203        1.1676  -25.7361  -47.9955 H         1 UNK         0.0600 
    204 H204        1.7064  -27.3383  -47.5062 H         1 UNK         0.0600 
    205 H205       -1.5554  -26.0329  -49.5459 H         1 UNK         0.3000 
    206 H206       -1.0551  -28.2563  -51.4537 H         1 UNK         0.0600 
    207 H207       -0.3066  -25.9361  -52.0863 H         1 UNK         0.0600 
    208 H208       -1.5314  -26.5682  -53.1740 H         1 UNK         0.0600 
    209 H209       -1.9714  -25.3754  -51.9608 H         1 UNK         0.0600 
    210 H210       -3.1717  -28.0325  -49.1858 H         1 UNK         0.3000 
    211 H211       -5.2102  -28.7073  -48.7425 H         1 UNK         0.0600 
    212 H212       -5.3193  -29.8914  -51.5658 H         1 UNK         0.0600 
    213 H213       -6.3107  -30.3599  -50.1922 H         1 UNK         0.0600 
    214 H214       -4.5846  -30.6750  -50.1673 H         1 UNK         0.0600 
    215 H215       -4.8227  -26.0439  -49.8670 H         1 UNK         0.3000 
    216 H216       -5.9271  -24.1993  -50.2402 H         1 UNK         0.0600 
    217 H217       -8.3153  -23.9596  -49.8098 H         1 UNK         0.0600 
    218 H218       -7.6293  -25.0291  -48.5992 H         1 UNK         0.0600 
    219 H219       -8.5768  -25.6917  -49.9316 H         1 UNK         0.0600 
    220 H220       -5.4007  -26.3089  -52.4665 H         1 UNK         0.3000 
    221 H221       -7.2139  -25.7800  -54.5873 H         1 UNK         0.0600 
    222 H222       -4.2705  -26.6304  -54.6940 H         1 UNK         0.0600 
    223 H223       -5.6463  -27.7208  -54.5288 H         1 UNK         0.0600 
    224 H224       -5.4362  -26.7865  -56.0024 H         1 UNK         0.0600 
    225 H225       -4.5373  -23.9199  -53.3402 H         1 UNK         0.3000 
    226 H226       -4.3415  -22.0892  -55.6187 H         1 UNK         0.0600 
    227 H227       -2.3458  -22.7122  -54.2431 H         1 UNK         0.0600 
    228 H228       -2.6461  -20.9845  -54.2134 H         1 UNK         0.0600 
    229 H229       -3.0905  -21.9727  -52.8272 H         1 UNK         0.0600 
    230 H230       -6.6446  -22.4599  -53.2136 H         1 UNK         0.3000 
    231 H231       -8.2856  -21.3035  -52.3632 H         1 UNK         0.0600 
    232 H232       -8.7063  -20.6412  -54.7414 H         1 UNK         0.0600 
    233 H233       -7.7754  -19.1674  -54.5044 H         1 UNK         0.0600 
    234 H234       -9.2718  -19.4306  -53.6100 H         1 UNK         0.0600 
    235 H235       -8.0874  -18.1198  -52.5415 H         1 UNK         0.3000 
    236 H236       -7.2322  -17.8017  -49.7966 H         1 UNK         0.0600 
    237 H237       -8.0138  -15.4641  -50.1654 H         1 UNK         0.0600 
    238 H238       -8.2241  -15.7899  -51.8823 H         1 UNK         0.0600 
    239 H239       -9.2149  -16.6316  -50.6910 H         1 UNK         0.0600 
    240 H240       -5.0593  -18.6710  -50.4664 H         1 UNK         0.3000 
    241 H241       -2.8923  -18.4224  -50.3269 H         1 UNK         0.0600 
    242 H242       -1.7959  -18.7579  -53.6585 H         1 UNK         0.3800 
    243 H243       -1.7584  -19.3670  -52.0290 H         1 UNK         0.3800 
    244 H244       -2.7079  -15.4311  -50.8663 H         1 UNK         0.0800 
    245 H245       -3.3564  -15.9845  -49.3504 H         1 UNK         0.0800 
    246 H246        0.1825  -15.0444  -50.8489 H         1 UNK         0.0800 
    247 H247       -0.4471  -16.3505  -51.8194 H         1 UNK         0.0800 
@<TRIPOS>BOND
     1    1    2 1    
     2    1  127 1    
     3    1  128 1    
     4    1  129 1    
     5    2    3 2    
     6    2    4 am   BACKBONE|DICT|INTERRES
     7    4    5 1    
     8    4  130 1    
     9    5    6 1    
    10    5   65 1    
    11    5  131 1    
    12    6    7 1    
    13    6  132 1    
    14    6  133 1    
    15    7    8 1    
    16    8    9 1    
    17    8  134 1    
    18    8  135 1    
    19    9   10 ar   
    20    9   14 ar   
    21   10   11 ar   
    22   10  136 1    
    23   11   12 ar   
    24   11  126 1    
    25   12   13 ar   
    26   12  137 1    
    27   13   14 ar   
    28   13   15 1    
    29   14  138 1    
    30   15   16 1    
    31   15  139 1    
    32   15  140 1    
    33   16   17 1    
    34   17   18 1    
    35   17  141 1    
    36   17  142 1    
    37   18   19 1    
    38   18   67 1    
    39   18  143 1    
    40   19   20 am   BACKBONE|DICT|INTERRES
    41   19  144 1    
    42   20   21 2    
    43   20   22 1    
    44   22   23 1    
    45   22   24 1    
    46   22  145 1    
    47   23  146 1    
    48   23  147 1    
    49   23  148 1    
    50   24   25 am   BACKBONE|DICT|INTERRES
    51   24  149 1    
    52   25   26 2    
    53   25   27 1    
    54   27   28 1    
    55   27   29 1    
    56   27  150 1    
    57   28  151 1    
    58   28  152 1    
    59   28  153 1    
    60   29   30 am   BACKBONE|DICT|INTERRES
    61   29  154 1    
    62   30   31 2    
    63   30   32 1    
    64   32   33 1    
    65   32   34 1    
    66   32  155 1    
    67   33  156 1    
    68   33  157 1    
    69   33  158 1    
    70   34   35 am   BACKBONE|DICT|INTERRES
    71   34  159 1    
    72   35   36 2    
    73   35   37 1    
    74   37   38 1    
    75   37   39 1    
    76   37  160 1    
    77   38  161 1    
    78   38  162 1    
    79   38  163 1    
    80   39   40 am   BACKBONE|DICT|INTERRES
    81   39  164 1    
    82   40   41 2    
    83   40   42 1    
    84   42   43 1    
    85   42   44 1    
    86   42  165 1    
    87   43  166 1    
    88   43  167 1    
    89   43  168 1    
    90   44   45 am   BACKBONE|DICT|INTERRES
    91   44  169 1    
    92   45   46 2    
    93   45   47 1    
    94   47   48 1    
    95   47   49 1    
    96   47  170 1    
    97   48  171 1    
    98   48  172 1    
    99   48  173 1    
   100   49   50 am   BACKBONE|DICT|INTERRES
   101   49  174 1    
   102   50   51 2    
   103   50   52 1    
   104   52   53 1    
   105   52   54 1    
   106   52  175 1    
   107   53  176 1    
   108   53  177 1    
   109   53  178 1    
   110   54   55 am   BACKBONE|DICT|INTERRES
   111   54  179 1    
   112   55   56 2    
   113   55   57 1    
   114   57   58 1    
   115   57   59 1    
   116   57  180 1    
   117   58  181 1    
   118   58  182 1    
   119   58  183 1    
   120   59   60 am   BACKBONE|DICT|INTERRES
   121   59  184 1    
   122   60   61 2    
   123   60   62 1    
   124   62   63 1    
   125   62   64 1    
   126   62  185 1    
   127   63  186 1    
   128   63  187 1    
   129   63  188 1    
   130   64   65 am   BACKBONE|DICT|INTERRES
   131   64  189 1    
   132   65   66 2    
   133   67   68 2    
   134   67   69 am   BACKBONE|DICT|INTERRES
   135   69   70 1    
   136   69  190 1    
   137   70   71 1    
   138   70   72 1    
   139   70  191 1    
   140   71  192 1    
   141   71  193 1    
   142   71  194 1    
   143   72   73 2    
   144   72   74 am   BACKBONE|DICT|INTERRES
   145   74   75 1    
   146   74  195 1    
   147   75   76 1    
   148   75   77 1    
   149   75  196 1    
   150   76  197 1    
   151   76  198 1    
   152   76  199 1    
   153   77   78 2    
   154   77   79 am   BACKBONE|DICT|INTERRES
   155   79   80 1    
   156   79  200 1    
   157   80   81 1    
   158   80   82 1    
   159   80  201 1    
   160   81  202 1    
   161   81  203 1    
   162   81  204 1    
   163   82   83 2    
   164   82   84 am   BACKBONE|DICT|INTERRES
   165   84   85 1    
   166   84  205 1    
   167   85   86 1    
   168   85   87 1    
   169   85  206 1    
   170   86  207 1    
   171   86  208 1    
   172   86  209 1    
   173   87   88 2    
   174   87   89 am   BACKBONE|DICT|INTERRES
   175   89   90 1    
   176   89  210 1    
   177   90   91 1    
   178   90   92 1    
   179   90  211 1    
   180   91  212 1    
   181   91  213 1    
   182   91  214 1    
   183   92   93 2    
   184   92   94 am   BACKBONE|DICT|INTERRES
   185   94   95 1    
   186   94  215 1    
   187   95   96 1    
   188   95   97 1    
   189   95  216 1    
   190   96  217 1    
   191   96  218 1    
   192   96  219 1    
   193   97   98 2    
   194   97   99 am   BACKBONE|DICT|INTERRES
   195   99  100 1    
   196   99  220 1    
   197  100  101 1    
   198  100  102 1    
   199  100  221 1    
   200  101  222 1    
   201  101  223 1    
   202  101  224 1    
   203  102  103 2    
   204  102  104 am   BACKBONE|DICT|INTERRES
   205  104  105 1    
   206  104  225 1    
   207  105  106 1    
   208  105  107 1    
   209  105  226 1    
   210  106  227 1    
   211  106  228 1    
   212  106  229 1    
   213  107  108 2    
   214  107  109 am   BACKBONE|DICT|INTERRES
   215  109  110 1    
   216  109  230 1    
   217  110  111 1    
   218  110  112 1    
   219  110  231 1    
   220  111  232 1    
   221  111  233 1    
   222  111  234 1    
   223  112  113 2    
   224  112  114 am   BACKBONE|DICT|INTERRES
   225  114  115 1    
   226  114  235 1    
   227  115  116 1    
   228  115  117 1    
   229  115  236 1    
   230  116  237 1    
   231  116  238 1    
   232  116  239 1    
   233  117  118 2    
   234  117  119 am   BACKBONE|DICT|INTERRES
   235  119  120 1    
   236  119  240 1    
   237  120  121 1    
   238  120  124 1    
   239  120  241 1    
   240  121  122 am   BACKBONE|DICT|INTERRES
   241  121  123 2    
   242  122  242 1    
   243  122  243 1    
   244  124  125 1    
   245  124  244 1    
   246  124  245 1    
   247  125  126 1    
   248  126  246 1    
   249  126  247 1    
@<TRIPOS>SUBSTRUCTURE
     1 UNK         1 GROUP             0       ****    0 ROOT    
