@<TRIPOS>MOLECULE
3R540
247   249    1
SMALL
USER_CHARGES


@<TRIPOS>ATOM
      1 CA         -4.5788  -15.1187  -43.4455 C.3       0 UNK        -0.1800 
      2 C          -4.0409  -14.0401  -44.3753 C.2       0 UNK         0.5000 
      3 O          -4.7422  -13.0702  -44.6619 O.2       0 UNK        -0.5000 
      4 N          -2.8012  -14.2124  -44.8510 N.am      1 UNK        -0.5000 
      5 CA         -2.1244  -13.3271  -45.8087 C.3       1 UNK         0.1400 
      6 C6         -0.8299  -13.9619  -46.3747 C.3       23 UNK        -0.0398 
      7 S7         -1.0809  -15.6465  -47.0158 S.3       23 UNK        -0.2404 
      8 C8         -1.1374  -15.3835  -48.8102 C.3       23 UNK        -0.0205 
      9 C9         -1.0347  -16.7158  -49.5327 C.ar      23 UNK        -0.0193 
     10 C10        -2.1805  -17.3824  -49.9780 C.ar      23 UNK        -0.1150 
     11 C11        -2.0722  -18.6167  -50.6274 C.ar      23 UNK        -0.0193 
     12 C12        -0.8107  -19.1856  -50.8204 C.ar      23 UNK        -0.1150 
     13 C13         0.3380  -18.5350  -50.3647 C.ar      23 UNK        -0.0193 
     14 C14         0.2202  -17.2953  -49.7331 C.ar      23 UNK        -0.1150 
     15 C15         1.7070  -19.1738  -50.5372 C.3       23 UNK        -0.0205 
     16 S16         1.8431  -20.7830  -49.6948 S.3       23 UNK        -0.2404 
     17 C17         1.4515  -20.3785  -47.9594 C.3       23 UNK        -0.0398 
     18 CA          0.5106  -21.4269  -47.3121 C.3       11 UNK         0.1400 
     19 N           0.7801  -21.5839  -45.8776 N.am      11 UNK        -0.5000 
     20 C           0.3297  -22.5997  -45.1317 C.2       10 UNK         0.5000 
     21 O          -0.4809  -23.4329  -45.5364 O.2       10 UNK        -0.5000 
     22 CA          0.8964  -22.7244  -43.7116 C.3       10 UNK         0.1400 
     23 CB          2.3986  -23.0517  -43.7514 C.3       10 UNK        -0.1800 
     24 N           0.6859  -21.5129  -42.9178 N.am      10 UNK        -0.5000 
     25 C          -0.2167  -21.4248  -41.9307 C.2       9 UNK         0.5000 
     26 O          -1.0437  -22.3005  -41.6769 O.2       9 UNK        -0.5000 
     27 CA         -0.1667  -20.1727  -41.0396 C.3       9 UNK         0.1400 
     28 CB          1.0268  -20.2484  -40.0743 C.3       9 UNK        -0.1800 
     29 N          -0.1070  -18.9253  -41.7956 N.am      9 UNK        -0.5000 
     30 C          -1.1388  -18.3915  -42.4615 C.2       8 UNK         0.5000 
     31 O          -2.2567  -18.9036  -42.5163 O.2       8 UNK        -0.5000 
     32 CA         -0.8810  -17.0569  -43.1892 C.3       8 UNK         0.1400 
     33 CB         -1.0428  -15.8681  -42.2289 C.3       8 UNK        -0.1800 
     34 N           0.4367  -16.9874  -43.8183 N.am      8 UNK        -0.5000 
     35 C           0.8349  -17.7858  -44.8184 C.2       7 UNK         0.5000 
     36 O           0.1260  -18.6484  -45.3330 O.2       7 UNK        -0.5000 
     37 CA          2.2919  -17.6356  -45.2811 C.3       7 UNK         0.1400 
     38 CB          2.4617  -16.4148  -46.1957 C.3       7 UNK        -0.1800 
     39 N           3.2081  -17.5450  -44.1469 N.am      7 UNK        -0.5000 
     40 C           3.4360  -18.5458  -43.2840 C.2       6 UNK         0.5000 
     41 O           2.9296  -19.6648  -43.3820 O.2       6 UNK        -0.5000 
     42 CA          4.3422  -18.2184  -42.0842 C.3       6 UNK         0.1400 
     43 CB          5.8225  -18.3523  -42.4702 C.3       6 UNK        -0.1800 
     44 N           4.0961  -16.8772  -41.5480 N.am      6 UNK        -0.5000 
     45 C           2.9530  -16.5003  -40.9570 C.2       5 UNK         0.5000 
     46 O           1.9940  -17.2499  -40.7885 O.2       5 UNK        -0.5000 
     47 CA          2.8453  -15.0309  -40.5188 C.3       5 UNK         0.1400 
     48 CB          3.4545  -14.8363  -39.1225 C.3       5 UNK        -0.1800 
     49 N           3.4809  -14.1100  -41.4620 N.am      5 UNK        -0.5000 
     50 C           3.0331  -13.8654  -42.6994 C.2       4 UNK         0.5000 
     51 O           2.0445  -14.4112  -43.1988 O.2       4 UNK        -0.5000 
     52 CA          3.8354  -12.8529  -43.5220 C.3       4 UNK         0.1400 
     53 CB          4.6853  -13.5522  -44.5961 C.3       4 UNK        -0.1800 
     54 N           2.9015  -11.9223  -44.1412 N.am      4 UNK        -0.5000 
     55 C           3.1738  -10.6486  -44.4481 C.2       3 UNK         0.5000 
     56 O           4.2839  -10.1341  -44.3047 O.2       3 UNK        -0.5000 
     57 CA          2.0148   -9.7953  -44.9998 C.3       3 UNK         0.1400 
     58 CB          2.0431   -9.7850  -46.5359 C.3       3 UNK        -0.1800 
     59 N           0.6908  -10.2361  -44.5574 N.am      3 UNK        -0.5000 
     60 C           0.2195  -10.1872  -43.3054 C.2       2 UNK         0.5000 
     61 O           0.8686   -9.7521  -42.3539 O.2       2 UNK        -0.5000 
     62 CA         -1.2054  -10.7295  -43.0586 C.3       2 UNK         0.1400 
     63 CB         -2.2496   -9.6007  -43.1488 C.3       2 UNK        -0.1800 
     64 N          -1.5893  -11.8797  -43.8930 N.am      2 UNK        -0.5000 
     65 C          -1.7861  -11.9424  -45.2198 C.2       1 UNK         0.5000 
     66 O          -1.6584  -10.9820  -45.9795 O.2       1 UNK        -0.5000 
     67 C          -0.9831  -21.1689  -47.6080 C.2       11 UNK         0.5000 
     68 O          -1.5644  -21.8344  -48.4662 O.2       11 UNK        -0.5000 
     69 N          -1.6004  -20.2677  -46.8339 N.am      12 UNK        -0.5000 
     70 CA         -3.0303  -19.9649  -46.8997 C.3       12 UNK         0.1400 
     71 CB         -3.3175  -18.6786  -46.1154 C.3       12 UNK        -0.1800 
     72 C          -3.9236  -21.1108  -46.3894 C.2       12 UNK         0.5000 
     73 O          -5.0649  -21.2208  -46.8363 O.2       12 UNK        -0.5000 
     74 N          -3.4006  -21.9418  -45.4758 N.am      13 UNK        -0.5000 
     75 CA         -4.0891  -23.1239  -44.9541 C.3       13 UNK         0.1400 
     76 CB         -3.4550  -23.5555  -43.6246 C.3       13 UNK        -0.1800 
     77 C          -4.0921  -24.2792  -45.9701 C.2       13 UNK         0.5000 
     78 O          -5.1116  -24.9545  -46.1161 O.2       13 UNK        -0.5000 
     79 N          -2.9665  -24.4643  -46.6754 N.am      14 UNK        -0.5000 
     80 CA         -2.8354  -25.3802  -47.8105 C.3       14 UNK         0.1400 
     81 CB         -1.3531  -25.5069  -48.1866 C.3       14 UNK        -0.1800 
     82 C          -3.6746  -24.9316  -49.0225 C.2       14 UNK         0.5000 
     83 O          -4.2336  -25.7772  -49.7231 O.2       14 UNK        -0.5000 
     84 N          -3.7733  -23.6086  -49.2174 N.am      15 UNK        -0.5000 
     85 CA         -4.6108  -22.9161  -50.1944 C.3       15 UNK         0.1400 
     86 CB         -6.1034  -23.0529  -49.8170 C.3       15 UNK        -0.1800 
     87 C          -4.2769  -23.3549  -51.6329 C.2       15 UNK         0.5000 
     88 O          -3.1317  -23.1925  -52.0579 O.2       15 UNK        -0.5000 
     89 N          -5.2604  -23.9317  -52.3371 N.am      16 UNK        -0.5000 
     90 CA         -5.1692  -24.4260  -53.7126 C.3       16 UNK         0.1400 
     91 CB         -6.5362  -24.9884  -54.1293 C.3       16 UNK        -0.1800 
     92 C          -4.0673  -25.4789  -53.9462 C.2       16 UNK         0.5000 
     93 O          -3.5835  -25.6013  -55.0715 O.2       16 UNK        -0.5000 
     94 N          -3.6807  -26.2102  -52.8903 N.am      17 UNK        -0.5000 
     95 CA         -2.5889  -27.1830  -52.9240 C.3       17 UNK         0.1400 
     96 CB         -2.7009  -28.1136  -51.7067 C.3       17 UNK        -0.1800 
     97 C          -1.1955  -26.5257  -52.9716 C.2       17 UNK         0.5000 
     98 O          -0.2554  -27.1605  -53.4518 O.2       17 UNK        -0.5000 
     99 N          -1.0793  -25.2861  -52.4747 N.am      18 UNK        -0.5000 
    100 CA         0.1641  -24.5176  -52.4583 C.3       18 UNK         0.1400 
    101 CB         0.3213  -23.8281  -51.0977 C.3       18 UNK        -0.1800 
    102 C          0.2097  -23.4894  -53.5984 C.2       18 UNK         0.5000 
    103 O          1.2534  -23.3475  -54.2372 O.2       18 UNK        -0.5000 
    104 N         -0.9124  -22.8050  -53.8481 N.am      19 UNK        -0.5000 
    105 CA        -1.0663  -21.8212  -54.9117 C.3       19 UNK         0.1400 
    106 CB        -0.8300  -20.4080  -54.3520 C.3       19 UNK        -0.1800 
    107 C         -2.4737  -21.9743  -55.4935 C.2       19 UNK         0.5000 
    108 O         -3.4451  -21.5941  -54.8414 O.2       19 UNK        -0.5000 
    109 N         -2.5646  -22.5260  -56.7104 N.am      20 UNK        -0.5000 
    110 CA        -3.8138  -22.8570  -57.4097 C.3       20 UNK         0.1400 
    111 CB        -3.4670  -23.5892  -58.7154 C.3       20 UNK        -0.1800 
    112 C         -4.7497  -21.6620  -57.6925 C.2       20 UNK         0.5000 
    113 O         -5.9325  -21.8733  -57.9617 O.2       20 UNK        -0.5000 
    114 N         -4.2145  -20.4358  -57.6221 N.am      21 UNK        -0.5000 
    115 CA        -4.9671  -19.1849  -57.7079 C.3       21 UNK         0.1400 
    116 CB        -3.9780  -18.0262  -57.9084 C.3       21 UNK        -0.1800 
    117 C         -5.8615  -18.9216  -56.4779 C.2       21 UNK         0.5000 
    118 O         -6.8468  -18.1924  -56.6026 O.2       21 UNK        -0.5000 
    119 N         -5.5096  -19.4974  -55.3203 N.am      22 UNK        -0.5000 
    120 CA        -6.2856  -19.4065  -54.0764 C.3       22 UNK         0.1400 
    121 C         -7.5583  -20.2947  -54.1267 C.2       22 UNK         0.5000 
    122 N         -8.6866  -19.8023  -53.6340 N.am      22 UNK        -0.7600 
    123 O         -7.5226  -21.4421  -54.5637 O.2       22 UNK        -0.5000 
    124 C124       -5.4293  -19.7693  -52.8395 C.3       23 UNK        -0.0398 
    125 S125       -4.0203  -18.6375  -52.5980 S.3       23 UNK        -0.2404 
    126 C126       -3.3152  -19.3577  -51.0874 C.3       23 UNK        -0.0205 
    127 H127       -5.5964  -15.3869  -43.7295 H         1 UNK         0.0600 
    128 H128       -4.5949  -14.7552  -42.4181 H         1 UNK         0.0600 
    129 H129       -3.9726  -16.0241  -43.4811 H         1 UNK         0.0600 
    130 H130       -2.2940  -15.0522  -44.6186 H         1 UNK         0.3000 
    131 H131       -2.8107  -13.1631  -46.6424 H         1 UNK         0.0600 
    132 H132       -0.4053  -13.3357  -47.1615 H         1 UNK         0.0800 
    133 H133       -0.0655  -14.0290  -45.5975 H         1 UNK         0.0800 
    134 H134       -2.0614  -14.8679  -49.0761 H         1 UNK         0.0800 
    135 H135       -0.3146  -14.7368  -49.1184 H         1 UNK         0.0800 
    136 H136       -3.1558  -16.9456  -49.8157 H         1 UNK         0.1150 
    137 H137       -0.7204  -20.1503  -51.3002 H         1 UNK         0.1150 
    138 H138        1.1043  -16.7854  -49.3781 H         1 UNK         0.1150 
    139 H139        1.8989  -19.3159  -51.6016 H         1 UNK         0.0800 
    140 H140        2.4948  -18.5158  -50.1670 H         1 UNK         0.0800 
    141 H141        2.4084  -20.3617  -47.4367 H         1 UNK         0.0800 
    142 H142        1.0473  -19.3697  -47.8667 H         1 UNK         0.0800 
    143 H143        0.7451  -22.3976  -47.7560 H         1 UNK         0.0600 
    144 H144        1.3875  -20.9003  -45.4503 H         1 UNK         0.3000 
    145 H145        0.4003  -23.5774  -43.2435 H         1 UNK         0.0600 
    146 H146        2.7890  -23.2193  -42.7475 H         1 UNK         0.0600 
    147 H147        2.5852  -23.9589  -44.3277 H         1 UNK         0.0600 
    148 H148        2.9824  -22.2500  -44.2044 H         1 UNK         0.0600 
    149 H149        1.3456  -20.7526  -43.0576 H         1 UNK         0.3000 
    150 H150       -1.0779  -20.1596  -40.4376 H         1 UNK         0.0600 
    151 H151        1.0087  -21.1755  -39.5000 H         1 UNK         0.0600 
    152 H152        1.0077  -19.4249  -39.3604 H         1 UNK         0.0600 
    153 H153        1.9784  -20.2084  -40.6055 H         1 UNK         0.0600 
    154 H154        0.7564  -18.3948  -41.7277 H         1 UNK         0.3000 
    155 H155       -1.6273  -16.9648  -43.9802 H         1 UNK         0.0600 
    156 H156       -0.8841  -14.9188  -42.7397 H         1 UNK         0.0600 
    157 H157       -0.3318  -15.9202  -41.4041 H         1 UNK         0.0600 
    158 H158       -2.0429  -15.8475  -41.7950 H         1 UNK         0.0600 
    159 H159        1.0783  -16.2868  -43.4646 H         1 UNK         0.3000 
    160 H160        2.5583  -18.5251  -45.8537 H         1 UNK         0.0600 
    161 H161        2.1600  -15.4915  -45.7011 H         1 UNK         0.0600 
    162 H162        1.8498  -16.5180  -47.0916 H         1 UNK         0.0600 
    163 H163        3.4958  -16.3035  -46.5216 H         1 UNK         0.0600 
    164 H164        3.6337  -16.6476  -43.9722 H         1 UNK         0.3000 
    165 H165        4.1271  -18.9442  -41.2972 H         1 UNK         0.0600 
    166 H166        6.1077  -17.6319  -43.2380 H         1 UNK         0.0600 
    167 H167        6.4702  -18.1974  -41.6071 H         1 UNK         0.0600 
    168 H168        6.0350  -19.3489  -42.8596 H         1 UNK         0.0600 
    169 H169        4.8375  -16.1995  -41.6454 H         1 UNK         0.3000 
    170 H170        1.7838  -14.7795  -40.4642 H         1 UNK         0.0600 
    171 H171        2.9838  -15.5001  -38.3959 H         1 UNK         0.0600 
    172 H172        4.5246  -15.0471  -39.1148 H         1 UNK         0.0600 
    173 H173        3.3104  -13.8154  -38.7684 H         1 UNK         0.0600 
    174 H174        4.2982  -13.6193  -41.1284 H         1 UNK         0.3000 
    175 H175        4.4974  -12.3055  -42.8473 H         1 UNK         0.0600 
    176 H176        5.3156  -12.8368  -45.1244 H         1 UNK         0.0600 
    177 H177        5.3443  -14.2995  -44.1525 H         1 UNK         0.0600 
    178 H178        4.0639  -14.0548  -45.3366 H         1 UNK         0.0600 
    179 H179        1.9594  -12.2711  -44.2536 H         1 UNK         0.3000 
    180 H180        2.1629   -8.7727  -44.6467 H         1 UNK         0.0600 
    181 H181        1.2788   -9.1209  -46.9402 H         1 UNK         0.0600 
    182 H182        3.0069   -9.4346  -46.9077 H         1 UNK         0.0600 
    183 H183        1.8740  -10.7810  -46.9473 H         1 UNK         0.0600 
    184 H184        0.0457  -10.5470  -45.2774 H         1 UNK         0.3000 
    185 H185       -1.2168  -11.1000  -42.0323 H         1 UNK         0.0600 
    186 H186       -3.2492   -9.9696  -42.9189 H         1 UNK         0.0600 
    187 H187       -2.0243   -8.8058  -42.4367 H         1 UNK         0.0600 
    188 H188       -2.2785   -9.1484  -44.1404 H         1 UNK         0.0600 
    189 H189       -1.7084  -12.7436  -43.3839 H         1 UNK         0.3000 
    190 H190       -1.0420  -19.7322  -46.1700 H         1 UNK         0.3000 
    191 H191       -3.2885  -19.7879  -47.9454 H         1 UNK         0.0600 
    192 H192       -4.3771  -18.4226  -46.1511 H         1 UNK         0.0600 
    193 H193       -2.7688  -17.8390  -46.5346 H         1 UNK         0.0600 
    194 H194       -3.0364  -18.7775  -45.0677 H         1 UNK         0.0600 
    195 H195       -2.4469  -21.7965  -45.1784 H         1 UNK         0.3000 
    196 H196       -5.1288  -22.8564  -44.7530 H         1 UNK         0.0600 
    197 H197       -3.9753  -24.4182  -43.2071 H         1 UNK         0.0600 
    198 H198       -3.5099  -22.7553  -42.8864 H         1 UNK         0.0600 
    199 H199       -2.4072  -23.8317  -43.7416 H         1 UNK         0.0600 
    200 H200       -2.1464  -23.9137  -46.4384 H         1 UNK         0.3000 
    201 H201       -3.1966  -26.3635  -47.5027 H         1 UNK         0.0600 
    202 H202       -0.7790  -25.9524  -47.3741 H         1 UNK         0.0600 
    203 H203       -0.9165  -24.5323  -48.4038 H         1 UNK         0.0600 
    204 H204       -1.2200  -26.1372  -49.0668 H         1 UNK         0.0600 
    205 H205       -3.1636  -23.0087  -48.6704 H         1 UNK         0.3000 
    206 H206       -4.3538  -21.8615  -50.1175 H         1 UNK         0.0600 
    207 H207       -6.2824  -22.6808  -48.8083 H         1 UNK         0.0600 
    208 H208       -6.7360  -22.4691  -50.4871 H         1 UNK         0.0600 
    209 H209       -6.4456  -24.0880  -49.8451 H         1 UNK         0.0600 
    210 H210       -6.1561  -24.0477  -51.8865 H         1 UNK         0.3000 
    211 H211       -4.9517  -23.5719  -54.3523 H         1 UNK         0.0600 
    212 H212       -6.8310  -25.8331  -53.5055 H         1 UNK         0.0600 
    213 H213       -6.5178  -25.3331  -55.1641 H         1 UNK         0.0600 
    214 H214       -7.3142  -24.2280  -54.0577 H         1 UNK         0.0600 
    215 H215       -4.1138  -26.0422  -51.9899 H         1 UNK         0.3000 
    216 H216       -2.6988  -27.7915  -53.8242 H         1 UNK         0.0600 
    217 H217       -1.9512  -28.9045  -51.7519 H         1 UNK         0.0600 
    218 H218       -3.6783  -28.5944  -51.6634 H         1 UNK         0.0600 
    219 H219       -2.5490  -27.5749  -50.7714 H         1 UNK         0.0600 
    220 H220       -1.9114  -24.8011  -52.1575 H         1 UNK         0.3000 
    221 H221        1.0210  -25.1829  -52.5842 H         1 UNK         0.0600 
    222 H222       -0.5230  -23.1781  -50.8627 H         1 UNK         0.0600 
    223 H223        0.4207  -24.5628  -50.3007 H         1 UNK         0.0600 
    224 H224        1.2250  -23.2202  -51.0829 H         1 UNK         0.0600 
    225 H225       -1.7406  -22.9642  -53.2765 H         1 UNK         0.3000 
    226 H226       -0.3405  -22.0034  -55.7071 H         1 UNK         0.0600 
    227 H227        0.1752  -20.3069  -53.9425 H         1 UNK         0.0600 
    228 H228       -0.9443  -19.6546  -55.1319 H         1 UNK         0.0600 
    229 H229       -1.5386  -20.1680  -53.5596 H         1 UNK         0.0600 
    230 H230       -1.7143  -22.8087  -57.1759 H         1 UNK         0.3000 
    231 H231       -4.3708  -23.5469  -56.7737 H         1 UNK         0.0600 
    232 H232       -4.3698  -23.8832  -59.2525 H         1 UNK         0.0600 
    233 H233       -2.8997  -24.4991  -58.5181 H         1 UNK         0.0600 
    234 H234       -2.8770  -22.9609  -59.3836 H         1 UNK         0.0600 
    235 H235       -3.2328  -20.3601  -57.4025 H         1 UNK         0.3000 
    236 H236       -5.6171  -19.2362  -58.5839 H         1 UNK         0.0600 
    237 H237       -3.2908  -17.9344  -57.0662 H         1 UNK         0.0600 
    238 H238       -3.3858  -18.1638  -58.8133 H         1 UNK         0.0600 
    239 H239       -4.5045  -17.0760  -58.0073 H         1 UNK         0.0600 
    240 H240       -4.7145  -20.1278  -55.2942 H         1 UNK         0.3000 
    241 H241       -6.6046  -18.3684  -53.9618 H         1 UNK         0.0600 
    242 H242       -9.5158  -20.3757  -53.6474 H         1 UNK         0.3800 
    243 H243       -8.7412  -18.8650  -53.2659 H         1 UNK         0.3800 
    244 H244       -5.0523  -20.7890  -52.9244 H         1 UNK         0.0800 
    245 H245       -6.0390  -19.7401  -51.9345 H         1 UNK         0.0800 
    246 H246       -4.0620  -19.3492  -50.2925 H         1 UNK         0.0800 
    247 H247       -3.0681  -20.4016  -51.2839 H         1 UNK         0.0800 
@<TRIPOS>BOND
     1    1    2 1    
     2    1  127 1    
     3    1  128 1    
     4    1  129 1    
     5    2    3 2    
     6    2    4 am   BACKBONE|DICT|INTERRES
     7    4    5 1    
     8    4  130 1    
     9    5    6 1    
    10    5   65 1    
    11    5  131 1    
    12    6    7 1    
    13    6  132 1    
    14    6  133 1    
    15    7    8 1    
    16    8    9 1    
    17    8  134 1    
    18    8  135 1    
    19    9   10 ar   
    20    9   14 ar   
    21   10   11 ar   
    22   10  136 1    
    23   11   12 ar   
    24   11  126 1    
    25   12   13 ar   
    26   12  137 1    
    27   13   14 ar   
    28   13   15 1    
    29   14  138 1    
    30   15   16 1    
    31   15  139 1    
    32   15  140 1    
    33   16   17 1    
    34   17   18 1    
    35   17  141 1    
    36   17  142 1    
    37   18   19 1    
    38   18   67 1    
    39   18  143 1    
    40   19   20 am   BACKBONE|DICT|INTERRES
    41   19  144 1    
    42   20   21 2    
    43   20   22 1    
    44   22   23 1    
    45   22   24 1    
    46   22  145 1    
    47   23  146 1    
    48   23  147 1    
    49   23  148 1    
    50   24   25 am   BACKBONE|DICT|INTERRES
    51   24  149 1    
    52   25   26 2    
    53   25   27 1    
    54   27   28 1    
    55   27   29 1    
    56   27  150 1    
    57   28  151 1    
    58   28  152 1    
    59   28  153 1    
    60   29   30 am   BACKBONE|DICT|INTERRES
    61   29  154 1    
    62   30   31 2    
    63   30   32 1    
    64   32   33 1    
    65   32   34 1    
    66   32  155 1    
    67   33  156 1    
    68   33  157 1    
    69   33  158 1    
    70   34   35 am   BACKBONE|DICT|INTERRES
    71   34  159 1    
    72   35   36 2    
    73   35   37 1    
    74   37   38 1    
    75   37   39 1    
    76   37  160 1    
    77   38  161 1    
    78   38  162 1    
    79   38  163 1    
    80   39   40 am   BACKBONE|DICT|INTERRES
    81   39  164 1    
    82   40   41 2    
    83   40   42 1    
    84   42   43 1    
    85   42   44 1    
    86   42  165 1    
    87   43  166 1    
    88   43  167 1    
    89   43  168 1    
    90   44   45 am   BACKBONE|DICT|INTERRES
    91   44  169 1    
    92   45   46 2    
    93   45   47 1    
    94   47   48 1    
    95   47   49 1    
    96   47  170 1    
    97   48  171 1    
    98   48  172 1    
    99   48  173 1    
   100   49   50 am   BACKBONE|DICT|INTERRES
   101   49  174 1    
   102   50   51 2    
   103   50   52 1    
   104   52   53 1    
   105   52   54 1    
   106   52  175 1    
   107   53  176 1    
   108   53  177 1    
   109   53  178 1    
   110   54   55 am   BACKBONE|DICT|INTERRES
   111   54  179 1    
   112   55   56 2    
   113   55   57 1    
   114   57   58 1    
   115   57   59 1    
   116   57  180 1    
   117   58  181 1    
   118   58  182 1    
   119   58  183 1    
   120   59   60 am   BACKBONE|DICT|INTERRES
   121   59  184 1    
   122   60   61 2    
   123   60   62 1    
   124   62   63 1    
   125   62   64 1    
   126   62  185 1    
   127   63  186 1    
   128   63  187 1    
   129   63  188 1    
   130   64   65 am   BACKBONE|DICT|INTERRES
   131   64  189 1    
   132   65   66 2    
   133   67   68 2    
   134   67   69 am   BACKBONE|DICT|INTERRES
   135   69   70 1    
   136   69  190 1    
   137   70   71 1    
   138   70   72 1    
   139   70  191 1    
   140   71  192 1    
   141   71  193 1    
   142   71  194 1    
   143   72   73 2    
   144   72   74 am   BACKBONE|DICT|INTERRES
   145   74   75 1    
   146   74  195 1    
   147   75   76 1    
   148   75   77 1    
   149   75  196 1    
   150   76  197 1    
   151   76  198 1    
   152   76  199 1    
   153   77   78 2    
   154   77   79 am   BACKBONE|DICT|INTERRES
   155   79   80 1    
   156   79  200 1    
   157   80   81 1    
   158   80   82 1    
   159   80  201 1    
   160   81  202 1    
   161   81  203 1    
   162   81  204 1    
   163   82   83 2    
   164   82   84 am   BACKBONE|DICT|INTERRES
   165   84   85 1    
   166   84  205 1    
   167   85   86 1    
   168   85   87 1    
   169   85  206 1    
   170   86  207 1    
   171   86  208 1    
   172   86  209 1    
   173   87   88 2    
   174   87   89 am   BACKBONE|DICT|INTERRES
   175   89   90 1    
   176   89  210 1    
   177   90   91 1    
   178   90   92 1    
   179   90  211 1    
   180   91  212 1    
   181   91  213 1    
   182   91  214 1    
   183   92   93 2    
   184   92   94 am   BACKBONE|DICT|INTERRES
   185   94   95 1    
   186   94  215 1    
   187   95   96 1    
   188   95   97 1    
   189   95  216 1    
   190   96  217 1    
   191   96  218 1    
   192   96  219 1    
   193   97   98 2    
   194   97   99 am   BACKBONE|DICT|INTERRES
   195   99  100 1    
   196   99  220 1    
   197  100  101 1    
   198  100  102 1    
   199  100  221 1    
   200  101  222 1    
   201  101  223 1    
   202  101  224 1    
   203  102  103 2    
   204  102  104 am   BACKBONE|DICT|INTERRES
   205  104  105 1    
   206  104  225 1    
   207  105  106 1    
   208  105  107 1    
   209  105  226 1    
   210  106  227 1    
   211  106  228 1    
   212  106  229 1    
   213  107  108 2    
   214  107  109 am   BACKBONE|DICT|INTERRES
   215  109  110 1    
   216  109  230 1    
   217  110  111 1    
   218  110  112 1    
   219  110  231 1    
   220  111  232 1    
   221  111  233 1    
   222  111  234 1    
   223  112  113 2    
   224  112  114 am   BACKBONE|DICT|INTERRES
   225  114  115 1    
   226  114  235 1    
   227  115  116 1    
   228  115  117 1    
   229  115  236 1    
   230  116  237 1    
   231  116  238 1    
   232  116  239 1    
   233  117  118 2    
   234  117  119 am   BACKBONE|DICT|INTERRES
   235  119  120 1    
   236  119  240 1    
   237  120  121 1    
   238  120  124 1    
   239  120  241 1    
   240  121  122 am   BACKBONE|DICT|INTERRES
   241  121  123 2    
   242  122  242 1    
   243  122  243 1    
   244  124  125 1    
   245  124  244 1    
   246  124  245 1    
   247  125  126 1    
   248  126  246 1    
   249  126  247 1    
@<TRIPOS>SUBSTRUCTURE
     1 UNK         1 GROUP             0       ****    0 ROOT    
