@<TRIPOS>MOLECULE
3R540
247   249    1
SMALL
USER_CHARGES


@<TRIPOS>ATOM
      1 CA          4.2122  -12.8744  -47.8117 C.3       0 UNK        -0.1800 
      2 C           2.7519  -13.2600  -47.6296 C.2       0 UNK         0.5000 
      3 O           2.2792  -13.3399  -46.4966 O.2       0 UNK        -0.5000 
      4 N           2.0337  -13.4760  -48.7413 N.am      1 UNK        -0.5000 
      5 CA          0.6348  -13.9331  -48.8181 C.3       1 UNK         0.1400 
      6 C6          0.1655  -14.0836  -50.2879 C.3       23 UNK        -0.0398 
      7 S7          1.1934  -15.2618  -51.2356 S.3       23 UNK        -0.2404 
      8 C8          0.1266  -16.7357  -51.1679 C.3       23 UNK        -0.0205 
      9 C9          0.8636  -18.0484  -51.3955 C.ar      23 UNK        -0.0193 
     10 C10         0.3268  -19.0063  -52.2601 C.ar      23 UNK        -0.1150 
     11 C11         0.9613  -20.2385  -52.4435 C.ar      23 UNK        -0.0193 
     12 C12         2.1452  -20.5109  -51.7492 C.ar      23 UNK        -0.1150 
     13 C13         2.6989  -19.5588  -50.8868 C.ar      23 UNK        -0.0193 
     14 C14         2.0482  -18.3346  -50.7092 C.ar      23 UNK        -0.1150 
     15 C15         4.0201  -19.8283  -50.1774 C.3       23 UNK        -0.0205 
     16 S16         3.8329  -19.9241  -48.3689 S.3       23 UNK        -0.2404 
     17 C17         2.9754  -21.5221  -48.1700 C.3       23 UNK        -0.0398 
     18 CA          3.6786  -22.4372  -47.1379 C.3       11 UNK         0.1400 
     19 N           3.6073  -21.8718  -45.7861 N.am      11 UNK        -0.5000 
     20 C           4.4313  -22.1824  -44.7787 C.2       10 UNK         0.5000 
     21 O           5.3647  -22.9796  -44.8786 O.2       10 UNK        -0.5000 
     22 CA          4.1546  -21.4984  -43.4271 C.3       10 UNK         0.1400 
     23 CB          4.6802  -20.0548  -43.4325 C.3       10 UNK        -0.1800 
     24 N           2.7372  -21.5040  -43.0543 N.am      10 UNK        -0.5000 
     25 C           2.0334  -22.6064  -42.7565 C.2       9 UNK         0.5000 
     26 O           2.5004  -23.7450  -42.7863 O.2       9 UNK        -0.5000 
     27 CA          0.5542  -22.4114  -42.3742 C.3       9 UNK         0.1400 
     28 CB          0.4245  -21.9184  -40.9251 C.3       9 UNK        -0.1800 
     29 N          -0.1423  -21.4885  -43.2675 N.am      9 UNK        -0.5000 
     30 C          -0.3956  -21.7289  -44.5618 C.2       8 UNK         0.5000 
     31 O          -0.1260  -22.7862  -45.1296 O.2       8 UNK        -0.5000 
     32 CA         -1.0085  -20.5721  -45.3699 C.3       8 UNK         0.1400 
     33 CB         -2.5275  -20.5063  -45.1547 C.3       8 UNK        -0.1800 
     34 N          -0.4026  -19.2811  -45.0423 N.am      8 UNK        -0.5000 
     35 C           0.8972  -18.9904  -45.1958 C.2       7 UNK         0.5000 
     36 O           1.7290  -19.7786  -45.6392 O.2       7 UNK        -0.5000 
     37 CA          1.3583  -17.6089  -44.7128 C.3       7 UNK         0.1400 
     38 CB          1.0762  -16.5350  -45.7737 C.3       7 UNK        -0.1800 
     39 N           0.7384  -17.2510  -43.4361 N.am      7 UNK        -0.5000 
     40 C           1.0393  -17.8411  -42.2696 C.2       6 UNK         0.5000 
     41 O           1.9130  -18.6997  -42.1463 O.2       6 UNK        -0.5000 
     42 CA          0.1946  -17.4436  -41.0447 C.3       6 UNK         0.1400 
     43 CB          0.7478  -16.1734  -40.3850 C.3       6 UNK        -0.1800 
     44 N          -1.2171  -17.2481  -41.3758 N.am      6 UNK        -0.5000 
     45 C          -2.0492  -18.2443  -41.7123 C.2       5 UNK         0.5000 
     46 O          -1.7164  -19.4294  -41.7359 O.2       5 UNK        -0.5000 
     47 CA         -3.4777  -17.8525  -42.1440 C.3       5 UNK         0.1400 
     48 CB         -4.4187  -17.8264  -40.9310 C.3       5 UNK        -0.1800 
     49 N          -3.5697  -16.5713  -42.8523 N.am      5 UNK        -0.5000 
     50 C          -2.8819  -16.2512  -43.9569 C.2       4 UNK         0.5000 
     51 O          -2.0544  -17.0017  -44.4679 O.2       4 UNK        -0.5000 
     52 CA         -3.1243  -14.8692  -44.5921 C.3       4 UNK         0.1400 
     53 CB         -4.3390  -14.1121  -44.0120 C.3       4 UNK        -0.1800 
     54 N          -1.9290  -14.0233  -44.5518 N.am      4 UNK        -0.5000 
     55 C          -1.2406  -13.6314  -43.4670 C.2       3 UNK         0.5000 
     56 O          -1.4759  -14.0389  -42.3281 O.2       3 UNK        -0.5000 
     57 CA         -0.1058  -12.6010  -43.6712 C.3       3 UNK         0.1400 
     58 CB          1.2604  -13.1922  -43.2921 C.3       3 UNK        -0.1800 
     59 N          -0.0368  -12.0622  -45.0331 N.am      3 UNK        -0.5000 
     60 C          -0.8936  -11.1597  -45.5376 C.2       2 UNK         0.5000 
     61 O          -1.7856  -10.6310  -44.8732 O.2       2 UNK        -0.5000 
     62 CA         -0.7622  -10.7946  -47.0327 C.3       2 UNK         0.1400 
     63 CB         -0.0922   -9.4211  -47.1917 C.3       2 UNK        -0.1800 
     64 N          -0.0246  -11.7712  -47.8375 N.am      2 UNK        -0.5000 
     65 C          -0.3620  -13.0556  -48.0252 C.2       1 UNK         0.5000 
     66 O          -1.3840  -13.5622  -47.5614 O.2       1 UNK        -0.5000 
     67 C           3.0978  -23.8664  -47.2051 C.2       11 UNK         0.5000 
     68 O           3.3756  -24.5777  -48.1711 O.2       11 UNK        -0.5000 
     69 N           2.2919  -24.2492  -46.2016 N.am      12 UNK        -0.5000 
     70 CA          1.5158  -25.4917  -46.0930 C.3       12 UNK         0.1400 
     71 CB          2.4420  -26.7228  -46.0128 C.3       12 UNK        -0.1800 
     72 C           0.4268  -25.6230  -47.1826 C.2       12 UNK         0.5000 
     73 O           0.0010  -26.7338  -47.5037 O.2       12 UNK        -0.5000 
     74 N          -0.0087  -24.4794  -47.7196 N.am      13 UNK        -0.5000 
     75 CA         -0.9893  -24.3065  -48.7811 C.3       13 UNK         0.1400 
     76 CB         -0.4250  -24.8202  -50.1215 C.3       13 UNK        -0.1800 
     77 C          -1.2859  -22.7991  -48.8710 C.2       13 UNK         0.5000 
     78 O          -0.3439  -22.0122  -48.7910 O.2       13 UNK        -0.5000 
     79 N          -2.5346  -22.3572  -49.0385 N.am      14 UNK        -0.5000 
     80 CA         -3.7974  -23.0852  -49.0099 C.3       14 UNK         0.1400 
     81 CB         -4.0080  -23.8587  -50.3193 C.3       14 UNK        -0.1800 
     82 C          -4.9055  -22.0443  -48.8036 C.2       14 UNK         0.5000 
     83 O          -4.7295  -20.8876  -49.1989 O.2       14 UNK        -0.5000 
     84 N          -6.0147  -22.4596  -48.1771 N.am      15 UNK        -0.5000 
     85 CA         -7.1365  -21.6122  -47.7534 C.3       15 UNK         0.1400 
     86 CB         -7.9267  -21.1031  -48.9818 C.3       15 UNK        -0.1800 
     87 C          -6.6505  -20.4984  -46.7977 C.2       15 UNK         0.5000 
     88 O          -6.0089  -20.8124  -45.7942 O.2       15 UNK        -0.5000 
     89 N          -6.9086  -19.2310  -47.1407 N.am      16 UNK        -0.5000 
     90 CA         -6.3936  -18.0448  -46.4522 C.3       16 UNK         0.1400 
     91 CB         -7.5251  -17.0071  -46.3387 C.3       16 UNK        -0.1800 
     92 C          -5.1488  -17.4866  -47.1755 C.2       16 UNK         0.5000 
     93 O          -4.9981  -16.2696  -47.2810 O.2       16 UNK        -0.5000 
     94 N          -4.2983  -18.3942  -47.6773 N.am      17 UNK        -0.5000 
     95 CA         -3.1094  -18.1606  -48.5028 C.3       17 UNK         0.1400 
     96 CB         -2.0508  -17.3360  -47.7500 C.3       17 UNK        -0.1800 
     97 C          -3.4920  -17.5887  -49.8788 C.2       17 UNK         0.5000 
     98 O          -2.9833  -16.5471  -50.2954 O.2       17 UNK        -0.5000 
     99 N          -4.4096  -18.2919  -50.5505 N.am      18 UNK        -0.5000 
    100 CA        -4.8641  -17.9852  -51.8997 C.3       18 UNK         0.1400 
    101 CB        -6.3711  -18.2716  -51.9960 C.3       18 UNK        -0.1800 
    102 C         -4.0832  -18.8545  -52.8926 C.2       18 UNK         0.5000 
    103 O         -4.1020  -20.0793  -52.7680 O.2       18 UNK        -0.5000 
    104 N         -3.4496  -18.2235  -53.8895 N.am      19 UNK        -0.5000 
    105 CA        -2.6836  -18.9052  -54.9397 C.3       19 UNK         0.1400 
    106 CB        -1.9275  -17.8630  -55.7758 C.3       19 UNK        -0.1800 
    107 C         -3.5395  -19.8185  -55.8383 C.2       19 UNK         0.5000 
    108 O         -3.0291  -20.8115  -56.3557 O.2       19 UNK        -0.5000 
    109 N         -4.8328  -19.4937  -55.9711 N.am      20 UNK        -0.5000 
    110 CA        -5.8292  -20.3135  -56.6601 C.3       20 UNK         0.1400 
    111 CB        -7.1016  -19.4795  -56.8732 C.3       20 UNK        -0.1800 
    112 C         -6.1608  -21.6179  -55.9078 C.2       20 UNK         0.5000 
    113 O         -6.5024  -22.6119  -56.5495 O.2       20 UNK        -0.5000 
    114 N         -6.0455  -21.6033  -54.5712 N.am      21 UNK        -0.5000 
    115 CA        -6.2930  -22.7632  -53.7135 C.3       21 UNK         0.1400 
    116 CB        -6.6507  -22.2884  -52.2959 C.3       21 UNK        -0.1800 
    117 C         -5.1048  -23.7426  -53.6878 C.2       21 UNK         0.5000 
    118 O         -5.3074  -24.9168  -53.3771 O.2       21 UNK        -0.5000 
    119 N         -3.8983  -23.2595  -54.0211 N.am      22 UNK        -0.5000 
    120 CA        -2.6708  -24.0671  -54.1333 C.3       22 UNK         0.1400 
    121 C         -2.6849  -25.1132  -55.2902 C.2       22 UNK         0.5000 
    122 N         -3.5802  -25.0225  -56.2673 N.am      22 UNK        -0.7600 
    123 O         -1.8659  -26.0280  -55.2988 O.2       22 UNK        -0.5000 
    124 C124       -1.3959  -23.1905  -54.2428 C.3       23 UNK        -0.0398 
    125 S125       -1.1128  -22.0696  -52.8316 S.3       23 UNK        -0.2404 
    126 C126        0.3989  -21.2497  -53.4330 C.3       23 UNK        -0.0205 
    127 H127        4.3996  -11.8969  -47.3675 H         1 UNK         0.0600 
    128 H128        4.4924  -12.8304  -48.8644 H         1 UNK         0.0600 
    129 H129        4.8551  -13.6033  -47.3184 H         1 UNK         0.0600 
    130 H130        2.4955  -13.3913  -49.6359 H         1 UNK         0.3000 
    131 H131        0.6047  -14.9211  -48.3544 H         1 UNK         0.0600 
    132 H132       -0.8770  -14.4072  -50.3306 H         1 UNK         0.0800 
    133 H133        0.2000  -13.1192  -50.7976 H         1 UNK         0.0800 
    134 H134       -0.3337  -16.7855  -50.1869 H         1 UNK         0.0800 
    135 H135       -0.6849  -16.6129  -51.8870 H         1 UNK         0.0800 
    136 H136       -0.5917  -18.7953  -52.7867 H         1 UNK         0.1150 
    137 H137        2.6467  -21.4571  -51.8959 H         1 UNK         0.1150 
    138 H138        2.4681  -17.6031  -50.0331 H         1 UNK         0.1150 
    139 H139        4.4856  -20.7442  -50.5449 H         1 UNK         0.0800 
    140 H140        4.7139  -19.0202  -50.4127 H         1 UNK         0.0800 
    141 H141        1.9494  -21.3180  -47.8632 H         1 UNK         0.0800 
    142 H142        2.9078  -22.0128  -49.1427 H         1 UNK         0.0800 
    143 H143        4.7305  -22.5168  -47.4210 H         1 UNK         0.0600 
    144 H144        2.8936  -21.1582  -45.6403 H         1 UNK         0.3000 
    145 H145        4.7013  -22.0511  -42.6602 H         1 UNK         0.0600 
    146 H146        4.5725  -19.5925  -42.4512 H         1 UNK         0.0600 
    147 H147        4.1478  -19.4353  -44.1546 H         1 UNK         0.0600 
    148 H148        5.7392  -20.0250  -43.6916 H         1 UNK         0.0600 
    149 H149        2.2870  -20.5985  -42.9788 H         1 UNK         0.3000 
    150 H150        0.0613  -23.3833  -42.4457 H         1 UNK         0.0600 
    151 H151        0.9287  -22.5955  -40.2346 H         1 UNK         0.0600 
    152 H152       -0.6209  -21.8627  -40.6211 H         1 UNK         0.0600 
    153 H153        0.8622  -20.9282  -40.7945 H         1 UNK         0.0600 
    154 H154       -0.4500  -20.6098  -42.8649 H         1 UNK         0.3000 
    155 H155       -0.8192  -20.7594  -46.4281 H         1 UNK         0.0600 
    156 H156       -3.0134  -21.4051  -45.5366 H         1 UNK         0.0600 
    157 H157       -2.9677  -19.6546  -45.6691 H         1 UNK         0.0600 
    158 H158       -2.7824  -20.4210  -44.0987 H         1 UNK         0.0600 
    159 H159       -1.0215  -18.5506  -44.6989 H         1 UNK         0.3000 
    160 H160        2.4397  -17.6550  -44.5686 H         1 UNK         0.0600 
    161 H161        0.0131  -16.3264  -45.8840 H         1 UNK         0.0600 
    162 H162        1.4545  -16.8400  -46.7505 H         1 UNK         0.0600 
    163 H163        1.5738  -15.6038  -45.5178 H         1 UNK         0.0600 
    164 H164       -0.0627  -16.6361  -43.4785 H         1 UNK         0.3000 
    165 H165        0.2652  -18.2567  -40.3189 H         1 UNK         0.0600 
    166 H166        0.2135  -15.9441  -39.4629 H         1 UNK         0.0600 
    167 H167        1.8019  -16.2910  -40.1304 H         1 UNK         0.0600 
    168 H168        0.6617  -15.3107  -41.0439 H         1 UNK         0.0600 
    169 H169       -1.5527  -16.2944  -41.4204 H         1 UNK         0.3000 
    170 H170       -3.8316  -18.6244  -42.8298 H         1 UNK         0.0600 
    171 H171       -4.3911  -18.7759  -40.3946 H         1 UNK         0.0600 
    172 H172       -4.1426  -17.0420  -40.2252 H         1 UNK         0.0600 
    173 H173       -5.4517  -17.6573  -41.2356 H         1 UNK         0.0600 
    174 H174       -4.2052  -15.8874  -42.4686 H         1 UNK         0.3000 
    175 H175       -3.3236  -15.0522  -45.6477 H         1 UNK         0.0600 
    176 H176       -4.2058  -13.8584  -42.9598 H         1 UNK         0.0600 
    177 H177       -4.5070  -13.1813  -44.5540 H         1 UNK         0.0600 
    178 H178       -5.2515  -14.7027  -44.1044 H         1 UNK         0.0600 
    179 H179       -1.6231  -13.6824  -45.4564 H         1 UNK         0.3000 
    180 H180       -0.3044  -11.7708  -42.9904 H         1 UNK         0.0600 
    181 H181        2.0674  -12.4877  -43.4941 H         1 UNK         0.0600 
    182 H182        1.4722  -14.1086  -43.8398 H         1 UNK         0.0600 
    183 H183        1.2999  -13.4272  -42.2289 H         1 UNK         0.0600 
    184 H184        0.6836  -12.4513  -45.6348 H         1 UNK         0.3000 
    185 H185       -1.7740  -10.7320  -47.4383 H         1 UNK         0.0600 
    186 H186       -0.0751   -9.1076  -48.2357 H         1 UNK         0.0600 
    187 H187       -0.6316   -8.6547  -46.6334 H         1 UNK         0.0600 
    188 H188        0.9354   -9.4315  -46.8259 H         1 UNK         0.0600 
    189 H189        0.8486  -11.4547  -48.2332 H         1 UNK         0.3000 
    190 H190        2.1114  -23.5747  -45.4697 H         1 UNK         0.3000 
    191 H191        0.9816  -25.4240  -45.1443 H         1 UNK         0.0600 
    192 H192        1.8761  -27.6212  -45.7641 H         1 UNK         0.0600 
    193 H193        3.2007  -26.5946  -45.2406 H         1 UNK         0.0600 
    194 H194        2.9516  -26.9112  -46.9579 H         1 UNK         0.0600 
    195 H195        0.3584  -23.6092  -47.3526 H         1 UNK         0.3000 
    196 H196       -1.8812  -24.8714  -48.5135 H         1 UNK         0.0600 
    197 H197       -1.1041  -24.6059  -50.9466 H         1 UNK         0.0600 
    198 H198       -0.2679  -25.8984  -50.1046 H         1 UNK         0.0600 
    199 H199        0.5287  -24.3466  -50.3589 H         1 UNK         0.0600 
    200 H200       -2.6812  -21.3630  -49.1467 H         1 UNK         0.3000 
    201 H201       -3.8145  -23.7668  -48.1579 H         1 UNK         0.0600 
    202 H202       -3.3624  -24.7317  -50.3896 H         1 UNK         0.0600 
    203 H203       -3.8049  -23.2209  -51.1790 H         1 UNK         0.0600 
    204 H204       -5.0330  -24.2207  -50.4071 H         1 UNK         0.0600 
    205 H205       -6.0637  -23.4206  -47.8695 H         1 UNK         0.3000 
    206 H206       -7.8049  -22.2455  -47.1686 H         1 UNK         0.0600 
    207 H207       -8.2644  -21.9377  -49.5960 H         1 UNK         0.0600 
    208 H208       -8.8179  -20.5528  -48.6781 H         1 UNK         0.0600 
    209 H209       -7.3305  -20.4499  -49.6195 H         1 UNK         0.0600 
    210 H210       -7.4084  -19.0619  -48.0019 H         1 UNK         0.3000 
    211 H211       -6.0796  -18.3027  -45.4385 H         1 UNK         0.0600 
    212 H212       -7.8548  -16.6626  -47.3196 H         1 UNK         0.0600 
    213 H213       -7.2013  -16.1324  -45.7730 H         1 UNK         0.0600 
    214 H214       -8.3896  -17.4230  -45.8211 H         1 UNK         0.0600 
    215 H215       -4.5687  -19.3659  -47.6003 H         1 UNK         0.3000 
    216 H216       -2.6699  -19.1413  -48.6895 H         1 UNK         0.0600 
    217 H217       -1.8545  -17.7805  -46.7811 H         1 UNK         0.0600 
    218 H218       -2.3541  -16.3000  -47.5989 H         1 UNK         0.0600 
    219 H219       -1.0997  -17.3329  -48.2745 H         1 UNK         0.0600 
    220 H220       -4.7063  -19.1855  -50.1674 H         1 UNK         0.3000 
    221 H221       -4.7017  -16.9300  -52.1292 H         1 UNK         0.0600 
    222 H222       -6.7458  -18.0693  -53.0001 H         1 UNK         0.0600 
    223 H223       -6.6011  -19.3111  -51.7617 H         1 UNK         0.0600 
    224 H224       -6.9339  -17.6436  -51.3052 H         1 UNK         0.0600 
    225 H225       -3.4807  -17.2151  -53.9354 H         1 UNK         0.3000 
    226 H226       -1.9501  -19.5482  -54.4527 H         1 UNK         0.0600 
    227 H227       -1.2447  -17.2810  -55.1563 H         1 UNK         0.0600 
    228 H228       -1.3298  -18.3439  -56.5514 H         1 UNK         0.0600 
    229 H229       -2.6103  -17.1701  -56.2690 H         1 UNK         0.0600 
    230 H230       -5.1647  -18.6526  -55.5232 H         1 UNK         0.3000 
    231 H231       -5.4305  -20.5870  -57.6393 H         1 UNK         0.0600 
    232 H232       -7.8595  -20.0536  -57.4079 H         1 UNK         0.0600 
    233 H233       -6.8945  -18.5875  -57.4648 H         1 UNK         0.0600 
    234 H234       -7.5386  -19.1614  -55.9257 H         1 UNK         0.0600 
    235 H235       -5.6841  -20.7777  -54.1117 H         1 UNK         0.3000 
    236 H236       -7.1551  -23.3077  -54.1049 H         1 UNK         0.0600 
    237 H237       -5.8207  -21.7694  -51.8175 H         1 UNK         0.0600 
    238 H238       -7.5065  -21.6137  -52.3092 H         1 UNK         0.0600 
    239 H239       -6.9160  -23.1324  -51.6586 H         1 UNK         0.0600 
    240 H240       -3.8076  -22.2744  -54.2251 H         1 UNK         0.3000 
    241 H241       -2.5898  -24.6447  -53.2106 H         1 UNK         0.0600 
    242 H242       -3.5790  -25.7079  -57.0063 H         1 UNK         0.3800 
    243 H243       -4.2614  -24.2792  -56.2737 H         1 UNK         0.3800 
    244 H244       -1.4289  -22.5960  -55.1570 H         1 UNK         0.0800 
    245 H245       -0.5114  -23.8249  -54.3268 H         1 UNK         0.0800 
    246 H246        1.1480  -22.0104  -53.6581 H         1 UNK         0.0800 
    247 H247        0.1861  -20.7453  -54.3765 H         1 UNK         0.0800 
@<TRIPOS>BOND
     1    1    2 1    
     2    1  127 1    
     3    1  128 1    
     4    1  129 1    
     5    2    3 2    
     6    2    4 am   BACKBONE|DICT|INTERRES
     7    4    5 1    
     8    4  130 1    
     9    5    6 1    
    10    5   65 1    
    11    5  131 1    
    12    6    7 1    
    13    6  132 1    
    14    6  133 1    
    15    7    8 1    
    16    8    9 1    
    17    8  134 1    
    18    8  135 1    
    19    9   10 ar   
    20    9   14 ar   
    21   10   11 ar   
    22   10  136 1    
    23   11   12 ar   
    24   11  126 1    
    25   12   13 ar   
    26   12  137 1    
    27   13   14 ar   
    28   13   15 1    
    29   14  138 1    
    30   15   16 1    
    31   15  139 1    
    32   15  140 1    
    33   16   17 1    
    34   17   18 1    
    35   17  141 1    
    36   17  142 1    
    37   18   19 1    
    38   18   67 1    
    39   18  143 1    
    40   19   20 am   BACKBONE|DICT|INTERRES
    41   19  144 1    
    42   20   21 2    
    43   20   22 1    
    44   22   23 1    
    45   22   24 1    
    46   22  145 1    
    47   23  146 1    
    48   23  147 1    
    49   23  148 1    
    50   24   25 am   BACKBONE|DICT|INTERRES
    51   24  149 1    
    52   25   26 2    
    53   25   27 1    
    54   27   28 1    
    55   27   29 1    
    56   27  150 1    
    57   28  151 1    
    58   28  152 1    
    59   28  153 1    
    60   29   30 am   BACKBONE|DICT|INTERRES
    61   29  154 1    
    62   30   31 2    
    63   30   32 1    
    64   32   33 1    
    65   32   34 1    
    66   32  155 1    
    67   33  156 1    
    68   33  157 1    
    69   33  158 1    
    70   34   35 am   BACKBONE|DICT|INTERRES
    71   34  159 1    
    72   35   36 2    
    73   35   37 1    
    74   37   38 1    
    75   37   39 1    
    76   37  160 1    
    77   38  161 1    
    78   38  162 1    
    79   38  163 1    
    80   39   40 am   BACKBONE|DICT|INTERRES
    81   39  164 1    
    82   40   41 2    
    83   40   42 1    
    84   42   43 1    
    85   42   44 1    
    86   42  165 1    
    87   43  166 1    
    88   43  167 1    
    89   43  168 1    
    90   44   45 am   BACKBONE|DICT|INTERRES
    91   44  169 1    
    92   45   46 2    
    93   45   47 1    
    94   47   48 1    
    95   47   49 1    
    96   47  170 1    
    97   48  171 1    
    98   48  172 1    
    99   48  173 1    
   100   49   50 am   BACKBONE|DICT|INTERRES
   101   49  174 1    
   102   50   51 2    
   103   50   52 1    
   104   52   53 1    
   105   52   54 1    
   106   52  175 1    
   107   53  176 1    
   108   53  177 1    
   109   53  178 1    
   110   54   55 am   BACKBONE|DICT|INTERRES
   111   54  179 1    
   112   55   56 2    
   113   55   57 1    
   114   57   58 1    
   115   57   59 1    
   116   57  180 1    
   117   58  181 1    
   118   58  182 1    
   119   58  183 1    
   120   59   60 am   BACKBONE|DICT|INTERRES
   121   59  184 1    
   122   60   61 2    
   123   60   62 1    
   124   62   63 1    
   125   62   64 1    
   126   62  185 1    
   127   63  186 1    
   128   63  187 1    
   129   63  188 1    
   130   64   65 am   BACKBONE|DICT|INTERRES
   131   64  189 1    
   132   65   66 2    
   133   67   68 2    
   134   67   69 am   BACKBONE|DICT|INTERRES
   135   69   70 1    
   136   69  190 1    
   137   70   71 1    
   138   70   72 1    
   139   70  191 1    
   140   71  192 1    
   141   71  193 1    
   142   71  194 1    
   143   72   73 2    
   144   72   74 am   BACKBONE|DICT|INTERRES
   145   74   75 1    
   146   74  195 1    
   147   75   76 1    
   148   75   77 1    
   149   75  196 1    
   150   76  197 1    
   151   76  198 1    
   152   76  199 1    
   153   77   78 2    
   154   77   79 am   BACKBONE|DICT|INTERRES
   155   79   80 1    
   156   79  200 1    
   157   80   81 1    
   158   80   82 1    
   159   80  201 1    
   160   81  202 1    
   161   81  203 1    
   162   81  204 1    
   163   82   83 2    
   164   82   84 am   BACKBONE|DICT|INTERRES
   165   84   85 1    
   166   84  205 1    
   167   85   86 1    
   168   85   87 1    
   169   85  206 1    
   170   86  207 1    
   171   86  208 1    
   172   86  209 1    
   173   87   88 2    
   174   87   89 am   BACKBONE|DICT|INTERRES
   175   89   90 1    
   176   89  210 1    
   177   90   91 1    
   178   90   92 1    
   179   90  211 1    
   180   91  212 1    
   181   91  213 1    
   182   91  214 1    
   183   92   93 2    
   184   92   94 am   BACKBONE|DICT|INTERRES
   185   94   95 1    
   186   94  215 1    
   187   95   96 1    
   188   95   97 1    
   189   95  216 1    
   190   96  217 1    
   191   96  218 1    
   192   96  219 1    
   193   97   98 2    
   194   97   99 am   BACKBONE|DICT|INTERRES
   195   99  100 1    
   196   99  220 1    
   197  100  101 1    
   198  100  102 1    
   199  100  221 1    
   200  101  222 1    
   201  101  223 1    
   202  101  224 1    
   203  102  103 2    
   204  102  104 am   BACKBONE|DICT|INTERRES
   205  104  105 1    
   206  104  225 1    
   207  105  106 1    
   208  105  107 1    
   209  105  226 1    
   210  106  227 1    
   211  106  228 1    
   212  106  229 1    
   213  107  108 2    
   214  107  109 am   BACKBONE|DICT|INTERRES
   215  109  110 1    
   216  109  230 1    
   217  110  111 1    
   218  110  112 1    
   219  110  231 1    
   220  111  232 1    
   221  111  233 1    
   222  111  234 1    
   223  112  113 2    
   224  112  114 am   BACKBONE|DICT|INTERRES
   225  114  115 1    
   226  114  235 1    
   227  115  116 1    
   228  115  117 1    
   229  115  236 1    
   230  116  237 1    
   231  116  238 1    
   232  116  239 1    
   233  117  118 2    
   234  117  119 am   BACKBONE|DICT|INTERRES
   235  119  120 1    
   236  119  240 1    
   237  120  121 1    
   238  120  124 1    
   239  120  241 1    
   240  121  122 am   BACKBONE|DICT|INTERRES
   241  121  123 2    
   242  122  242 1    
   243  122  243 1    
   244  124  125 1    
   245  124  244 1    
   246  124  245 1    
   247  125  126 1    
   248  126  246 1    
   249  126  247 1    
@<TRIPOS>SUBSTRUCTURE
     1 UNK         1 GROUP             0       ****    0 ROOT    
