@<TRIPOS>MOLECULE
3R540
247   249    1
SMALL
USER_CHARGES


@<TRIPOS>ATOM
      1 CA         -6.8640  -16.4866  -44.9312 C.3       0 UNK        -0.1800 
      2 C          -6.2074  -15.3758  -45.7381 C.2       0 UNK         0.5000 
      3 O          -6.3823  -14.1983  -45.4223 O.2       0 UNK        -0.5000 
      4 N          -5.4431  -15.7444  -46.7738 N.am      1 UNK        -0.5000 
      5 CA         -4.6751  -14.8397  -47.6373 C.3       1 UNK         0.1400 
      6 C6         -4.4804  -15.4591  -49.0473 C.3       23 UNK        -0.0398 
      7 S7         -4.5571  -14.2145  -50.3785 S.3       23 UNK        -0.2404 
      8 C8         -5.4496  -15.1283  -51.6801 C.3       23 UNK        -0.0205 
      9 C9         -4.5643  -16.1788  -52.3354 C.ar      23 UNK        -0.0193 
     10 C10        -3.8358  -15.8647  -53.4853 C.ar      23 UNK        -0.1150 
     11 C11        -2.9890  -16.8109  -54.0714 C.ar      23 UNK        -0.0193 
     12 C12        -2.8938  -18.0888  -53.5142 C.ar      23 UNK        -0.1150 
     13 C13        -3.6059  -18.4085  -52.3554 C.ar      23 UNK        -0.0193 
     14 C14        -4.4509  -17.4563  -51.7808 C.ar      23 UNK        -0.1150 
     15 C15        -3.4069  -19.7554  -51.6851 C.3       23 UNK        -0.0205 
     16 S16        -4.8362  -20.8580  -51.9110 S.3       23 UNK        -0.2404 
     17 C17        -5.6647  -20.7545  -50.2855 C.3       23 UNK        -0.0398 
     18 CA         -5.1266  -21.8393  -49.3243 C.3       11 UNK         0.1400 
     19 N          -3.7422  -21.5787  -48.9176 N.am      11 UNK        -0.5000 
     20 C          -2.9304  -22.4770  -48.3518 C.2       10 UNK         0.5000 
     21 O          -3.2543  -23.6475  -48.1553 O.2       10 UNK        -0.5000 
     22 CA         -1.5589  -21.9786  -47.8613 C.3       10 UNK         0.1400 
     23 CB         -0.4526  -22.3626  -48.8505 C.3       10 UNK        -0.1800 
     24 N          -1.4775  -20.5384  -47.5949 N.am      10 UNK        -0.5000 
     25 C          -2.2075  -19.8459  -46.7109 C.2       9 UNK         0.5000 
     26 O          -3.1553  -20.3373  -46.0955 O.2       9 UNK        -0.5000 
     27 CA         -1.8163  -18.3687  -46.4819 C.3       9 UNK         0.1400 
     28 CB         -2.5179  -17.7707  -45.2488 C.3       9 UNK        -0.1800 
     29 N          -0.3677  -18.1784  -46.3448 N.am      9 UNK        -0.5000 
     30 C           0.5153  -18.1658  -47.3537 C.2       8 UNK         0.5000 
     31 O           0.1884  -18.3516  -48.5277 O.2       8 UNK        -0.5000 
     32 CA          1.9989  -17.9167  -47.0252 C.3       8 UNK         0.1400 
     33 CB          2.5436  -16.7384  -47.8425 C.3       8 UNK        -0.1800 
     34 N           2.2329  -17.6522  -45.6062 N.am      8 UNK        -0.5000 
     35 C           2.6130  -18.5758  -44.7111 C.2       7 UNK         0.5000 
     36 O           2.8151  -19.7573  -44.9921 O.2       7 UNK        -0.5000 
     37 CA          2.7797  -18.1097  -43.2512 C.3       7 UNK         0.1400 
     38 CB          4.2533  -17.7976  -42.9542 C.3       7 UNK        -0.1800 
     39 N           1.9485  -16.9437  -42.9378 N.am      7 UNK        -0.5000 
     40 C           0.6125  -17.0014  -42.8302 C.2       6 UNK         0.5000 
     41 O          -0.0156  -18.0578  -42.9032 O.2       6 UNK        -0.5000 
     42 CA         -0.1686  -15.6797  -42.7089 C.3       6 UNK         0.1400 
     43 CB         -1.3827  -15.7769  -41.7630 C.3       6 UNK        -0.1800 
     44 N           0.6532  -14.5030  -42.4237 N.am      6 UNK        -0.5000 
     45 C           1.2975  -14.1863  -41.2926 C.2       5 UNK         0.5000 
     46 O           1.2465  -14.8525  -40.2579 O.2       5 UNK        -0.5000 
     47 CA          2.1670  -12.9093  -41.3647 C.3       5 UNK         0.1400 
     48 CB          3.2088  -12.8230  -40.2296 C.3       5 UNK        -0.1800 
     49 N           2.8067  -12.7339  -42.6783 N.am      5 UNK        -0.5000 
     50 C           3.6511  -13.5901  -43.2759 C.2       4 UNK         0.5000 
     51 O           4.0465  -14.6299  -42.7503 O.2       4 UNK        -0.5000 
     52 CA          4.0584  -13.2518  -44.7268 C.3       4 UNK         0.1400 
     53 CB          4.7655  -14.4250  -45.4394 C.3       4 UNK        -0.1800 
     54 N           2.9271  -12.7717  -45.5320 N.am      4 UNK        -0.5000 
     55 C           1.7821  -13.4262  -45.7736 C.2       3 UNK         0.5000 
     56 O           1.5329  -14.5622  -45.3556 O.2       3 UNK        -0.5000 
     57 CA          0.7393  -12.6698  -46.6188 C.3       3 UNK         0.1400 
     58 CB          0.9490  -12.9440  -48.1136 C.3       3 UNK        -0.1800 
     59 N          -0.6242  -13.0438  -46.2467 N.am      3 UNK        -0.5000 
     60 C          -1.1985  -12.7608  -45.0746 C.2       2 UNK         0.5000 
     61 O          -0.6583  -12.0424  -44.2304 O.2       2 UNK        -0.5000 
     62 CA         -2.5685  -13.4101  -44.7603 C.3       2 UNK         0.1400 
     63 CB         -3.3295  -12.6533  -43.6565 C.3       2 UNK        -0.1800 
     64 N          -3.4930  -13.6403  -45.8756 N.am      2 UNK        -0.5000 
     65 C          -3.3566  -14.4693  -46.9198 C.2       1 UNK         0.5000 
     66 O          -2.2931  -15.0012  -47.2454 O.2       1 UNK        -0.5000 
     67 C          -6.0640  -22.0834  -48.1209 C.2       11 UNK         0.5000 
     68 O          -7.0848  -22.7510  -48.2879 O.2       11 UNK        -0.5000 
     69 N          -5.6835  -21.5917  -46.9337 N.am      12 UNK        -0.5000 
     70 CA         -6.3396  -21.8868  -45.6629 C.3       12 UNK         0.1400 
     71 CB         -6.5912  -20.5722  -44.9060 C.3       12 UNK        -0.1800 
     72 C          -5.4761  -22.8430  -44.8234 C.2       12 UNK         0.5000 
     73 O          -5.9859  -23.8491  -44.3307 O.2       12 UNK        -0.5000 
     74 N          -4.1845  -22.5157  -44.6779 N.am      13 UNK        -0.5000 
     75 CA         -3.2478  -23.1771  -43.7671 C.3       13 UNK         0.1400 
     76 CB         -2.0097  -22.2826  -43.5940 C.3       13 UNK        -0.1800 
     77 C          -2.8282  -24.5962  -44.1929 C.2       13 UNK         0.5000 
     78 O          -2.4990  -25.4054  -43.3247 O.2       13 UNK        -0.5000 
     79 N          -2.8367  -24.8736  -45.5023 N.am      14 UNK        -0.5000 
     80 CA         -2.4383  -26.1539  -46.0932 C.3       14 UNK         0.1400 
     81 CB         -1.0915  -25.9742  -46.8184 C.3       14 UNK        -0.1800 
     82 C          -3.5252  -26.7055  -47.0343 C.2       14 UNK         0.5000 
     83 O          -3.2323  -27.5863  -47.8426 O.2       14 UNK        -0.5000 
     84 N          -4.7515  -26.1668  -46.9364 N.am      15 UNK        -0.5000 
     85 CA         -5.9449  -26.5267  -47.7131 C.3       15 UNK         0.1400 
     86 CB         -6.4719  -27.9047  -47.2622 C.3       15 UNK        -0.1800 
     87 C          -5.7579  -26.4332  -49.2460 C.2       15 UNK         0.5000 
     88 O          -6.3640  -27.2096  -49.9865 O.2       15 UNK        -0.5000 
     89 N          -4.9196  -25.4841  -49.6888 N.am      16 UNK        -0.5000 
     90 CA         -4.5582  -25.1992  -51.0818 C.3       16 UNK         0.1400 
     91 CB         -5.7910  -24.7799  -51.9133 C.3       16 UNK        -0.1800 
     92 C          -3.7334  -26.3177  -51.7490 C.2       16 UNK         0.5000 
     93 O          -3.7997  -26.4829  -52.9684 O.2       16 UNK        -0.5000 
     94 N          -2.9284  -27.0391  -50.9532 N.am      17 UNK        -0.5000 
     95 CA         -1.9414  -28.0126  -51.4363 C.3       17 UNK         0.1400 
     96 CB         -1.3827  -28.8015  -50.2429 C.3       17 UNK        -0.1800 
     97 C          -0.7906  -27.3694  -52.2411 C.2       17 UNK         0.5000 
     98 O          -0.1571  -28.0513  -53.0479 O.2       17 UNK        -0.5000 
     99 N          -0.5560  -26.0717  -52.0205 N.am      18 UNK        -0.5000 
    100 CA         0.3660  -25.2180  -52.7556 C.3       18 UNK         0.1400 
    101 CB         1.7626  -25.2956  -52.1141 C.3       18 UNK        -0.1800 
    102 C         -0.1814  -23.7834  -52.7169 C.2       18 UNK         0.5000 
    103 O         -1.0220  -23.4734  -51.8681 O.2       18 UNK        -0.5000 
    104 N          0.3186  -22.9294  -53.6186 N.am      19 UNK        -0.5000 
    105 CA         0.0174  -21.4938  -53.6390 C.3       19 UNK         0.1400 
    106 CB         0.2092  -20.9565  -55.0655 C.3       19 UNK        -0.1800 
    107 C          0.8839  -20.6910  -52.6473 C.2       19 UNK         0.5000 
    108 O          0.4986  -19.5834  -52.2682 O.2       19 UNK        -0.5000 
    109 N          2.0405  -21.2593  -52.2661 N.am      20 UNK        -0.5000 
    110 CA         3.0874  -20.6820  -51.4188 C.3       20 UNK         0.1400 
    111 CB         2.6241  -20.6116  -49.9487 C.3       20 UNK        -0.1800 
    112 C          3.5958  -19.3437  -51.9899 C.2       20 UNK         0.5000 
    113 O          4.2909  -19.3557  -53.0072 O.2       20 UNK        -0.5000 
    114 N          3.2240  -18.2299  -51.3511 N.am      21 UNK        -0.5000 
    115 CA         3.5036  -16.8683  -51.8041 C.3       21 UNK         0.1400 
    116 CB         4.6685  -16.2745  -50.9897 C.3       21 UNK        -0.1800 
    117 C          2.2305  -16.0010  -51.7706 C.2       21 UNK         0.5000 
    118 O          2.3350  -14.7793  -51.6547 O.2       21 UNK        -0.5000 
    119 N          1.0588  -16.6413  -51.9005 N.am      22 UNK        -0.5000 
    120 CA        -0.2614  -16.0044  -52.0252 C.3       22 UNK         0.1400 
    121 C         -0.7072  -15.2186  -50.7596 C.2       22 UNK         0.5000 
    122 N         -0.7488  -15.8666  -49.6023 N.am      22 UNK        -0.7600 
    123 O         -1.0329  -14.0360  -50.8181 O.2       22 UNK        -0.5000 
    124 C124       -0.4162  -15.1991  -53.3500 C.3       23 UNK        -0.0398 
    125 S125       -0.3584  -16.2902  -54.8172 S.3       23 UNK        -0.2404 
    126 C126       -2.1241  -16.4286  -55.2641 C.3       23 UNK        -0.0205 
    127 H127       -7.9487  -16.3879  -44.9690 H         1 UNK         0.0600 
    128 H128       -6.5506  -16.4281  -43.8889 H         1 UNK         0.0600 
    129 H129       -6.5978  -17.4733  -45.3101 H         1 UNK         0.0600 
    130 H130       -5.3258  -16.7285  -46.9632 H         1 UNK         0.3000 
    131 H131       -5.2547  -13.9205  -47.7501 H         1 UNK         0.0600 
    132 H132       -3.5621  -16.0403  -49.1407 H         1 UNK         0.0800 
    133 H133       -5.2866  -16.1686  -49.2320 H         1 UNK         0.0800 
    134 H134       -5.7943  -14.4161  -52.4313 H         1 UNK         0.0800 
    135 H135       -6.3490  -15.5891  -51.2691 H         1 UNK         0.0800 
    136 H136       -3.9035  -14.8704  -53.9041 H         1 UNK         0.1150 
    137 H137       -2.2203  -18.8125  -53.9518 H         1 UNK         0.1150 
    138 H138       -5.0030  -17.7058  -50.8881 H         1 UNK         0.1150 
    139 H139       -2.5231  -20.2506  -52.0842 H         1 UNK         0.0800 
    140 H140       -3.1964  -19.5930  -50.6291 H         1 UNK         0.0800 
    141 H141       -6.7321  -20.8959  -50.4651 H         1 UNK         0.0800 
    142 H142       -5.5576  -19.7570  -49.8584 H         1 UNK         0.0800 
    143 H143       -5.1257  -22.7764  -49.8741 H         1 UNK         0.0600 
    144 H144       -3.4023  -20.6367  -49.0272 H         1 UNK         0.3000 
    145 H145       -1.3595  -22.4961  -46.9217 H         1 UNK         0.0600 
    146 H146       -0.5120  -23.4160  -49.1267 H         1 UNK         0.0600 
    147 H147        0.5297  -22.2016  -48.4087 H         1 UNK         0.0600 
    148 H148       -0.5117  -21.7768  -49.7688 H         1 UNK         0.0600 
    149 H149       -0.7518  -20.0263  -48.0864 H         1 UNK         0.3000 
    150 H150       -2.1552  -17.8108  -47.3571 H         1 UNK         0.0600 
    151 H151       -3.6016  -17.7821  -45.3683 H         1 UNK         0.0600 
    152 H152       -2.2219  -16.7353  -45.0888 H         1 UNK         0.0600 
    153 H153       -2.2838  -18.3303  -44.3426 H         1 UNK         0.0600 
    154 H154       -0.0179  -18.0774  -45.4028 H         1 UNK         0.3000 
    155 H155        2.5440  -18.8112  -47.3316 H         1 UNK         0.0600 
    156 H156        2.0330  -15.8104  -47.5968 H         1 UNK         0.0600 
    157 H157        2.4059  -16.9059  -48.9090 H         1 UNK         0.0600 
    158 H158        3.6092  -16.5939  -47.6655 H         1 UNK         0.0600 
    159 H159        2.0737  -16.6990  -45.2981 H         1 UNK         0.3000 
    160 H160        2.4736  -18.9323  -42.6012 H         1 UNK         0.0600 
    161 H161        4.6508  -17.0440  -43.6343 H         1 UNK         0.0600 
    162 H162        4.8688  -18.6911  -43.0650 H         1 UNK         0.0600 
    163 H163        4.3852  -17.4352  -41.9345 H         1 UNK         0.0600 
    164 H164        2.4206  -16.0490  -42.8735 H         1 UNK         0.3000 
    165 H165       -0.5510  -15.5136  -43.7140 H         1 UNK         0.0600 
    166 H166       -1.9270  -14.8338  -41.7193 H         1 UNK         0.0600 
    167 H167       -1.0856  -16.0414  -40.7482 H         1 UNK         0.0600 
    168 H168       -2.0844  -16.5388  -42.1046 H         1 UNK         0.0600 
    169 H169        0.8113  -13.9016  -43.2219 H         1 UNK         0.3000 
    170 H170        1.4796  -12.0707  -41.2445 H         1 UNK         0.0600 
    171 H171        2.7227  -12.8132  -39.2534 H         1 UNK         0.0600 
    172 H172        3.8959  -13.6695  -40.2428 H         1 UNK         0.0600 
    173 H173        3.7996  -11.9102  -40.3055 H         1 UNK         0.0600 
    174 H174        2.5165  -11.9177  -43.1990 H         1 UNK         0.3000 
    175 H175        4.7694  -12.4272  -44.6609 H         1 UNK         0.0600 
    176 H176        4.1320  -15.3106  -45.4905 H         1 UNK         0.0600 
    177 H177        5.0465  -14.1568  -46.4577 H         1 UNK         0.0600 
    178 H178        5.6786  -14.7080  -44.9147 H         1 UNK         0.0600 
    179 H179        3.0365  -11.8433  -45.9162 H         1 UNK         0.3000 
    180 H180        0.8562  -11.5984  -46.4439 H         1 UNK         0.0600 
    181 H181        0.8258  -13.9997  -48.3487 H         1 UNK         0.0600 
    182 H182        1.9505  -12.6533  -48.4326 H         1 UNK         0.0600 
    183 H183        0.2381  -12.3845  -48.7219 H         1 UNK         0.0600 
    184 H184       -1.1001  -13.7154  -46.8433 H         1 UNK         0.3000 
    185 H185       -2.3439  -14.3968  -44.3599 H         1 UNK         0.0600 
    186 H186       -2.7312  -12.5614  -42.7490 H         1 UNK         0.0600 
    187 H187       -3.5996  -11.6466  -43.9776 H         1 UNK         0.0600 
    188 H188       -4.2462  -13.1746  -43.3794 H         1 UNK         0.0600 
    189 H189       -4.4350  -13.3074  -45.7071 H         1 UNK         0.3000 
    190 H190       -4.8100  -21.0797  -46.8723 H         1 UNK         0.3000 
    191 H191       -7.3059  -22.3685  -45.8263 H         1 UNK         0.0600 
    192 H192       -7.0533  -20.7612  -43.9363 H         1 UNK         0.0600 
    193 H193       -7.2654  -19.9241  -45.4658 H         1 UNK         0.0600 
    194 H194       -5.6675  -20.0195  -44.7288 H         1 UNK         0.0600 
    195 H195       -3.8393  -21.6718  -45.1307 H         1 UNK         0.3000 
    196 H196       -3.7370  -23.2634  -42.7945 H         1 UNK         0.0600 
    197 H197       -1.4702  -22.1529  -44.5322 H         1 UNK         0.0600 
    198 H198       -2.2845  -21.2927  -43.2286 H         1 UNK         0.0600 
    199 H199       -1.3135  -22.7127  -42.8728 H         1 UNK         0.0600 
    200 H200       -3.1268  -24.1629  -46.1637 H         1 UNK         0.3000 
    201 H201       -2.3055  -26.9083  -45.3157 H         1 UNK         0.0600 
    202 H202       -1.1808  -25.3067  -47.6751 H         1 UNK         0.0600 
    203 H203       -0.7127  -26.9286  -47.1856 H         1 UNK         0.0600 
    204 H204       -0.3351  -25.5629  -46.1500 H         1 UNK         0.0600 
    205 H205       -4.8878  -25.4527  -46.2350 H         1 UNK         0.3000 
    206 H206       -6.7040  -25.7845  -47.4612 H         1 UNK         0.0600 
    207 H207       -6.6209  -27.9357  -46.1829 H         1 UNK         0.0600 
    208 H208       -7.4326  -28.1304  -47.7264 H         1 UNK         0.0600 
    209 H209       -5.7821  -28.7061  -47.5289 H         1 UNK         0.0600 
    210 H210       -4.4293  -24.9251  -48.9951 H         1 UNK         0.3000 
    211 H211       -3.8868  -24.3401  -51.0435 H         1 UNK         0.0600 
    212 H212       -5.4865  -24.3590  -52.8722 H         1 UNK         0.0600 
    213 H213       -6.3832  -24.0210  -51.4029 H         1 UNK         0.0600 
    214 H214       -6.4453  -25.6261  -52.1238 H         1 UNK         0.0600 
    215 H215       -2.9770  -26.9039  -49.9503 H         1 UNK         0.3000 
    216 H216       -2.4533  -28.7130  -52.0992 H         1 UNK         0.0600 
    217 H217       -0.8912  -28.1460  -49.5230 H         1 UNK         0.0600 
    218 H218       -0.6503  -29.5410  -50.5690 H         1 UNK         0.0600 
    219 H219       -2.1747  -29.3391  -49.7212 H         1 UNK         0.0600 
    220 H220       -1.1523  -25.5662  -51.3778 H         1 UNK         0.3000 
    221 H221        0.4152  -25.5424  -53.7972 H         1 UNK         0.0600 
    222 H222        2.1429  -26.3173  -52.1187 H         1 UNK         0.0600 
    223 H223        1.7481  -24.9495  -51.0796 H         1 UNK         0.0600 
    224 H224        2.4815  -24.6819  -52.6575 H         1 UNK         0.0600 
    225 H225        0.9813  -23.2636  -54.3038 H         1 UNK         0.3000 
    226 H226       -1.0281  -21.3469  -53.3662 H         1 UNK         0.0600 
    227 H227        1.2381  -21.0758  -55.4072 H         1 UNK         0.0600 
    228 H228       -0.4425  -21.4712  -55.7716 H         1 UNK         0.0600 
    229 H229       -0.0322  -19.8936  -55.1176 H         1 UNK         0.0600 
    230 H230        2.2616  -22.1590  -52.6647 H         1 UNK         0.3000 
    231 H231        3.9355  -21.3671  -51.4587 H         1 UNK         0.0600 
    232 H232        1.6918  -20.0599  -49.8351 H         1 UNK         0.0600 
    233 H233        3.3773  -20.1396  -49.3168 H         1 UNK         0.0600 
    234 H234        2.4650  -21.6145  -49.5547 H         1 UNK         0.0600 
    235 H235        2.6119  -18.3175  -50.5522 H         1 UNK         0.3000 
    236 H236        3.8086  -16.8842  -52.8524 H         1 UNK         0.0600 
    237 H237        5.5541  -16.9069  -51.0531 H         1 UNK         0.0600 
    238 H238        4.9490  -15.2905  -51.3670 H         1 UNK         0.0600 
    239 H239        4.4146  -16.1598  -49.9374 H         1 UNK         0.0600 
    240 H240        1.0539  -17.6519  -51.9997 H         1 UNK         0.3000 
    241 H241       -0.9658  -16.8330  -52.0722 H         1 UNK         0.0600 
    242 H242       -0.4435  -16.8304  -49.5168 H         1 UNK         0.3800 
    243 H243       -1.1113  -15.3920  -48.7848 H         1 UNK         0.3800 
    244 H244       -1.3511  -14.6385  -53.3632 H         1 UNK         0.0800 
    245 H245        0.3691  -14.4483  -53.4401 H         1 UNK         0.0800 
    246 H246       -2.4566  -15.4827  -55.6943 H         1 UNK         0.0800 
    247 H247       -2.2356  -17.1786  -56.0483 H         1 UNK         0.0800 
@<TRIPOS>BOND
     1    1    2 1    
     2    1  127 1    
     3    1  128 1    
     4    1  129 1    
     5    2    3 2    
     6    2    4 am   BACKBONE|DICT|INTERRES
     7    4    5 1    
     8    4  130 1    
     9    5    6 1    
    10    5   65 1    
    11    5  131 1    
    12    6    7 1    
    13    6  132 1    
    14    6  133 1    
    15    7    8 1    
    16    8    9 1    
    17    8  134 1    
    18    8  135 1    
    19    9   10 ar   
    20    9   14 ar   
    21   10   11 ar   
    22   10  136 1    
    23   11   12 ar   
    24   11  126 1    
    25   12   13 ar   
    26   12  137 1    
    27   13   14 ar   
    28   13   15 1    
    29   14  138 1    
    30   15   16 1    
    31   15  139 1    
    32   15  140 1    
    33   16   17 1    
    34   17   18 1    
    35   17  141 1    
    36   17  142 1    
    37   18   19 1    
    38   18   67 1    
    39   18  143 1    
    40   19   20 am   BACKBONE|DICT|INTERRES
    41   19  144 1    
    42   20   21 2    
    43   20   22 1    
    44   22   23 1    
    45   22   24 1    
    46   22  145 1    
    47   23  146 1    
    48   23  147 1    
    49   23  148 1    
    50   24   25 am   BACKBONE|DICT|INTERRES
    51   24  149 1    
    52   25   26 2    
    53   25   27 1    
    54   27   28 1    
    55   27   29 1    
    56   27  150 1    
    57   28  151 1    
    58   28  152 1    
    59   28  153 1    
    60   29   30 am   BACKBONE|DICT|INTERRES
    61   29  154 1    
    62   30   31 2    
    63   30   32 1    
    64   32   33 1    
    65   32   34 1    
    66   32  155 1    
    67   33  156 1    
    68   33  157 1    
    69   33  158 1    
    70   34   35 am   BACKBONE|DICT|INTERRES
    71   34  159 1    
    72   35   36 2    
    73   35   37 1    
    74   37   38 1    
    75   37   39 1    
    76   37  160 1    
    77   38  161 1    
    78   38  162 1    
    79   38  163 1    
    80   39   40 am   BACKBONE|DICT|INTERRES
    81   39  164 1    
    82   40   41 2    
    83   40   42 1    
    84   42   43 1    
    85   42   44 1    
    86   42  165 1    
    87   43  166 1    
    88   43  167 1    
    89   43  168 1    
    90   44   45 am   BACKBONE|DICT|INTERRES
    91   44  169 1    
    92   45   46 2    
    93   45   47 1    
    94   47   48 1    
    95   47   49 1    
    96   47  170 1    
    97   48  171 1    
    98   48  172 1    
    99   48  173 1    
   100   49   50 am   BACKBONE|DICT|INTERRES
   101   49  174 1    
   102   50   51 2    
   103   50   52 1    
   104   52   53 1    
   105   52   54 1    
   106   52  175 1    
   107   53  176 1    
   108   53  177 1    
   109   53  178 1    
   110   54   55 am   BACKBONE|DICT|INTERRES
   111   54  179 1    
   112   55   56 2    
   113   55   57 1    
   114   57   58 1    
   115   57   59 1    
   116   57  180 1    
   117   58  181 1    
   118   58  182 1    
   119   58  183 1    
   120   59   60 am   BACKBONE|DICT|INTERRES
   121   59  184 1    
   122   60   61 2    
   123   60   62 1    
   124   62   63 1    
   125   62   64 1    
   126   62  185 1    
   127   63  186 1    
   128   63  187 1    
   129   63  188 1    
   130   64   65 am   BACKBONE|DICT|INTERRES
   131   64  189 1    
   132   65   66 2    
   133   67   68 2    
   134   67   69 am   BACKBONE|DICT|INTERRES
   135   69   70 1    
   136   69  190 1    
   137   70   71 1    
   138   70   72 1    
   139   70  191 1    
   140   71  192 1    
   141   71  193 1    
   142   71  194 1    
   143   72   73 2    
   144   72   74 am   BACKBONE|DICT|INTERRES
   145   74   75 1    
   146   74  195 1    
   147   75   76 1    
   148   75   77 1    
   149   75  196 1    
   150   76  197 1    
   151   76  198 1    
   152   76  199 1    
   153   77   78 2    
   154   77   79 am   BACKBONE|DICT|INTERRES
   155   79   80 1    
   156   79  200 1    
   157   80   81 1    
   158   80   82 1    
   159   80  201 1    
   160   81  202 1    
   161   81  203 1    
   162   81  204 1    
   163   82   83 2    
   164   82   84 am   BACKBONE|DICT|INTERRES
   165   84   85 1    
   166   84  205 1    
   167   85   86 1    
   168   85   87 1    
   169   85  206 1    
   170   86  207 1    
   171   86  208 1    
   172   86  209 1    
   173   87   88 2    
   174   87   89 am   BACKBONE|DICT|INTERRES
   175   89   90 1    
   176   89  210 1    
   177   90   91 1    
   178   90   92 1    
   179   90  211 1    
   180   91  212 1    
   181   91  213 1    
   182   91  214 1    
   183   92   93 2    
   184   92   94 am   BACKBONE|DICT|INTERRES
   185   94   95 1    
   186   94  215 1    
   187   95   96 1    
   188   95   97 1    
   189   95  216 1    
   190   96  217 1    
   191   96  218 1    
   192   96  219 1    
   193   97   98 2    
   194   97   99 am   BACKBONE|DICT|INTERRES
   195   99  100 1    
   196   99  220 1    
   197  100  101 1    
   198  100  102 1    
   199  100  221 1    
   200  101  222 1    
   201  101  223 1    
   202  101  224 1    
   203  102  103 2    
   204  102  104 am   BACKBONE|DICT|INTERRES
   205  104  105 1    
   206  104  225 1    
   207  105  106 1    
   208  105  107 1    
   209  105  226 1    
   210  106  227 1    
   211  106  228 1    
   212  106  229 1    
   213  107  108 2    
   214  107  109 am   BACKBONE|DICT|INTERRES
   215  109  110 1    
   216  109  230 1    
   217  110  111 1    
   218  110  112 1    
   219  110  231 1    
   220  111  232 1    
   221  111  233 1    
   222  111  234 1    
   223  112  113 2    
   224  112  114 am   BACKBONE|DICT|INTERRES
   225  114  115 1    
   226  114  235 1    
   227  115  116 1    
   228  115  117 1    
   229  115  236 1    
   230  116  237 1    
   231  116  238 1    
   232  116  239 1    
   233  117  118 2    
   234  117  119 am   BACKBONE|DICT|INTERRES
   235  119  120 1    
   236  119  240 1    
   237  120  121 1    
   238  120  124 1    
   239  120  241 1    
   240  121  122 am   BACKBONE|DICT|INTERRES
   241  121  123 2    
   242  122  242 1    
   243  122  243 1    
   244  124  125 1    
   245  124  244 1    
   246  124  245 1    
   247  125  126 1    
   248  126  246 1    
   249  126  247 1    
@<TRIPOS>SUBSTRUCTURE
     1 UNK         1 GROUP             0       ****    0 ROOT    
