@<TRIPOS>MOLECULE
3R540
247   249    1
SMALL
USER_CHARGES


@<TRIPOS>ATOM
      1 CA          2.1676  -13.6522  -45.8222 C.3       0 UNK        -0.1800 
      2 C           1.3372  -14.9239  -45.8987 C.2       0 UNK         0.5000 
      3 O           0.6385  -15.2646  -44.9443 O.2       0 UNK        -0.5000 
      4 N           1.4139  -15.6294  -47.0342 N.am      1 UNK        -0.5000 
      5 CA          0.6468  -16.8527  -47.2968 C.3       1 UNK         0.1400 
      6 C6          1.1407  -17.6148  -48.5531 C.3       23 UNK        -0.0398 
      7 S7          2.9059  -18.0576  -48.4772 S.3       23 UNK        -0.2404 
      8 C8          3.2908  -18.3527  -50.2332 C.3       23 UNK        -0.0205 
      9 C9          2.5778  -19.5844  -50.7714 C.ar      23 UNK        -0.0193 
     10 C10         1.4825  -19.4501  -51.6272 C.ar      23 UNK        -0.1150 
     11 C11         0.8139  -20.5797  -52.1058 C.ar      23 UNK        -0.0193 
     12 C12         1.2539  -21.8492  -51.7223 C.ar      23 UNK        -0.1150 
     13 C13         2.3485  -22.0064  -50.8667 C.ar      23 UNK        -0.0193 
     14 C14         3.0129  -20.8610  -50.4056 C.ar      23 UNK        -0.1150 
     15 C15         2.7590  -23.4311  -50.4796 C.3       23 UNK        -0.0205 
     16 S16         4.0589  -23.5846  -49.2049 S.3       23 UNK        -0.2404 
     17 C17         3.1912  -22.9863  -47.7146 C.3       23 UNK        -0.0398 
     18 CA          3.0276  -24.0823  -46.6301 C.3       11 UNK         0.1400 
     19 N           3.0839  -23.4995  -45.2836 N.am      11 UNK        -0.5000 
     20 C           3.1614  -24.1896  -44.1344 C.2       10 UNK         0.5000 
     21 O           3.3669  -25.4027  -44.0868 O.2       10 UNK        -0.5000 
     22 CA          2.9223  -23.4172  -42.8166 C.3       10 UNK         0.1400 
     23 CB          4.2389  -23.2616  -42.0409 C.3       10 UNK        -0.1800 
     24 N           2.3111  -22.0931  -42.9795 N.am      10 UNK        -0.5000 
     25 C           1.1372  -21.8229  -43.5748 C.2       9 UNK         0.5000 
     26 O           0.3733  -22.6938  -43.9934 O.2       9 UNK        -0.5000 
     27 CA          0.7772  -20.3377  -43.7987 C.3       9 UNK         0.1400 
     28 CB         -0.1950  -19.8854  -42.7023 C.3       9 UNK        -0.1800 
     29 N           1.9259  -19.4258  -43.8073 N.am      9 UNK        -0.5000 
     30 C           3.0329  -19.5361  -44.5611 C.2       8 UNK         0.5000 
     31 O           3.1545  -20.3630  -45.4656 O.2       8 UNK        -0.5000 
     32 CA          4.2386  -18.6435  -44.1828 C.3       8 UNK         0.1400 
     33 CB          4.4240  -17.5066  -45.1958 C.3       8 UNK        -0.1800 
     34 N           4.1521  -18.0609  -42.8405 N.am      8 UNK        -0.5000 
     35 C           4.0600  -18.7391  -41.6871 C.2       7 UNK         0.5000 
     36 O           4.1468  -19.9652  -41.6134 O.2       7 UNK        -0.5000 
     37 CA          3.7528  -17.9224  -40.4137 C.3       7 UNK         0.1400 
     38 CB          5.0076  -17.8122  -39.5343 C.3       7 UNK        -0.1800 
     39 N           3.2211  -16.5729  -40.6525 N.am      7 UNK        -0.5000 
     40 C           2.0988  -16.2655  -41.3204 C.2       6 UNK         0.5000 
     41 O           1.3750  -17.1047  -41.8619 O.2       6 UNK        -0.5000 
     42 CA          1.7743  -14.7668  -41.4277 C.3       6 UNK         0.1400 
     43 CB          2.8765  -14.0159  -42.1962 C.3       6 UNK        -0.1800 
     44 N           0.5041  -14.5672  -42.1204 N.am      6 UNK        -0.5000 
     45 C          -0.4741  -13.7467  -41.7239 C.2       5 UNK         0.5000 
     46 O          -0.4119  -13.0472  -40.7113 O.2       5 UNK        -0.5000 
     47 CA         -1.7386  -13.6798  -42.6030 C.3       5 UNK         0.1400 
     48 CB         -1.6064  -12.5585  -43.6449 C.3       5 UNK        -0.1800 
     49 N          -2.0683  -14.9309  -43.2885 N.am      5 UNK        -0.5000 
     50 C          -2.4433  -16.0660  -42.6819 C.2       4 UNK         0.5000 
     51 O          -2.5216  -16.1893  -41.4580 O.2       4 UNK        -0.5000 
     52 CA         -2.8254  -17.2414  -43.6094 C.3       4 UNK         0.1400 
     53 CB         -3.4898  -18.4185  -42.8639 C.3       4 UNK        -0.1800 
     54 N          -3.6473  -16.8268  -44.7485 N.am      4 UNK        -0.5000 
     55 C          -4.8392  -16.2085  -44.7136 C.2       3 UNK         0.5000 
     56 O          -5.4522  -15.9615  -43.6738 O.2       3 UNK        -0.5000 
     57 CA         -5.4536  -15.7990  -46.0718 C.3       3 UNK         0.1400 
     58 CB         -6.3076  -14.5176  -45.9769 C.3       3 UNK        -0.1800 
     59 N          -4.4733  -15.6832  -47.1568 N.am      3 UNK        -0.5000 
     60 C          -3.4257  -14.8500  -47.2130 C.2       2 UNK         0.5000 
     61 O          -3.1287  -14.0390  -46.3345 O.2       2 UNK        -0.5000 
     62 CA         -2.5292  -14.9828  -48.4543 C.3       2 UNK         0.1400 
     63 CB         -2.4415  -13.6411  -49.2009 C.3       2 UNK        -0.1800 
     64 N          -1.1794  -15.4444  -48.1266 N.am      2 UNK        -0.5000 
     65 C          -0.8588  -16.5490  -47.4322 C.2       1 UNK         0.5000 
     66 O          -1.6798  -17.3119  -46.9230 O.2       1 UNK        -0.5000 
     67 C           1.7591  -24.9478  -46.8647 C.2       11 UNK         0.5000 
     68 O           1.7611  -25.7850  -47.7674 O.2       11 UNK        -0.5000 
     69 N           0.7209  -24.7605  -46.0298 N.am      12 UNK        -0.5000 
     70 CA         -0.4951  -25.5748  -45.9146 C.3       12 UNK         0.1400 
     71 CB         -0.1540  -27.0205  -45.4956 C.3       12 UNK        -0.1800 
     72 C          -1.4200  -25.5017  -47.1462 C.2       12 UNK         0.5000 
     73 O          -2.1078  -26.4729  -47.4650 O.2       12 UNK        -0.5000 
     74 N          -1.4478  -24.3312  -47.7946 N.am      13 UNK        -0.5000 
     75 CA         -2.2902  -24.0280  -48.9552 C.3       13 UNK         0.1400 
     76 CB         -1.4624  -23.1984  -49.9502 C.3       13 UNK        -0.1800 
     77 C          -3.6226  -23.3437  -48.5701 C.2       13 UNK         0.5000 
     78 O          -4.3172  -22.8317  -49.4493 O.2       13 UNK        -0.5000 
     79 N          -3.9629  -23.3474  -47.2706 N.am      14 UNK        -0.5000 
     80 CA         -5.1677  -22.7762  -46.6572 C.3       14 UNK         0.1400 
     81 CB         -6.4306  -23.5450  -47.1088 C.3       14 UNK        -0.1800 
     82 C          -5.2417  -21.2521  -46.8780 C.2       14 UNK         0.5000 
     83 O          -4.4375  -20.5267  -46.2922 O.2       14 UNK        -0.5000 
     84 N          -6.1740  -20.7939  -47.7267 N.am      15 UNK        -0.5000 
     85 CA         -6.2832  -19.4011  -48.1721 C.3       15 UNK         0.1400 
     86 CB         -7.6008  -19.2149  -48.9385 C.3       15 UNK        -0.1800 
     87 C          -5.0936  -18.9535  -49.0430 C.2       15 UNK         0.5000 
     88 O          -4.7884  -17.7586  -49.0869 O.2       15 UNK        -0.5000 
     89 N          -4.4415  -19.9247  -49.6992 N.am      16 UNK        -0.5000 
     90 CA         -3.2175  -19.8041  -50.4814 C.3       16 UNK         0.1400 
     91 CB         -2.0203  -19.6060  -49.5313 C.3       16 UNK        -0.1800 
     92 C          -3.3411  -18.7280  -51.5725 C.2       16 UNK         0.5000 
     93 O          -4.2382  -18.8234  -52.4101 O.2       16 UNK        -0.5000 
     94 N          -2.4575  -17.7234  -51.5428 N.am      17 UNK        -0.5000 
     95 CA         -2.3490  -16.6450  -52.5248 C.3       17 UNK         0.1400 
     96 CB         -1.0529  -15.8656  -52.2553 C.3       17 UNK        -0.1800 
     97 C          -3.5709  -15.7060  -52.5959 C.2       17 UNK         0.5000 
     98 O          -3.7033  -14.9831  -53.5830 O.2       17 UNK        -0.5000 
     99 N          -4.4612  -15.7525  -51.5922 N.am      18 UNK        -0.5000 
    100 CA        -5.7456  -15.0464  -51.6160 C.3       18 UNK         0.1400 
    101 CB        -6.3134  -14.9580  -50.1908 C.3       18 UNK        -0.1800 
    102 C         -6.7667  -15.7093  -52.5636 C.2       18 UNK         0.5000 
    103 O         -7.6570  -15.0216  -53.0643 O.2       18 UNK        -0.5000 
    104 N         -6.6183  -17.0215  -52.7925 N.am      19 UNK        -0.5000 
    105 CA        -7.4769  -17.8336  -53.6578 C.3       19 UNK         0.1400 
    106 CB        -8.0159  -19.0042  -52.8186 C.3       19 UNK        -0.1800 
    107 C         -6.7326  -18.3638  -54.9005 C.2       19 UNK         0.5000 
    108 O         -7.3694  -18.9627  -55.7677 O.2       19 UNK        -0.5000 
    109 N         -5.4048  -18.1694  -54.9475 N.am      20 UNK        -0.5000 
    110 CA        -4.4382  -18.7729  -55.8749 C.3       20 UNK         0.1400 
    111 CB        -4.6702  -18.2898  -57.3211 C.3       20 UNK        -0.1800 
    112 C         -4.3880  -20.3124  -55.7448 C.2       20 UNK         0.5000 
    113 O         -4.1821  -21.0199  -56.7319 O.2       20 UNK        -0.5000 
    114 N         -4.5788  -20.8059  -54.5146 N.am      21 UNK        -0.5000 
    115 CA        -4.7368  -22.2179  -54.1631 C.3       21 UNK         0.1400 
    116 CB        -5.6573  -22.3049  -52.9311 C.3       21 UNK        -0.1800 
    117 C         -3.3929  -22.9458  -53.9452 C.2       21 UNK         0.5000 
    118 O         -3.2933  -23.7923  -53.0564 O.2       21 UNK        -0.5000 
    119 N         -2.3715  -22.6032  -54.7403 N.am      22 UNK        -0.5000 
    120 CA        -1.0094  -23.1557  -54.6243 C.3       22 UNK         0.1400 
    121 C         -0.8344  -24.5939  -55.1963 C.2       22 UNK         0.5000 
    122 N         -1.8077  -25.1555  -55.9029 N.am      22 UNK        -0.7600 
    123 O          0.2047  -25.2143  -54.9897 O.2       22 UNK        -0.5000 
    124 C124        0.0776  -22.2042  -55.1984 C.3       23 UNK        -0.0398 
    125 S125       -0.0572  -20.4320  -54.7616 S.3       23 UNK        -0.2404 
    126 C126       -0.4205  -20.4166  -52.9793 C.3       23 UNK        -0.0205 
    127 H127        2.2043  -13.1488  -46.7884 H         1 UNK         0.0600 
    128 H128        3.1871  -13.8852  -45.5161 H         1 UNK         0.0600 
    129 H129        1.7398  -12.9600  -45.0966 H         1 UNK         0.0600 
    130 H130        2.0378  -15.3290  -47.7695 H         1 UNK         0.3000 
    131 H131        0.7703  -17.5131  -46.4349 H         1 UNK         0.0600 
    132 H132        0.9678  -17.0249  -49.4551 H         1 UNK         0.0800 
    133 H133        0.5812  -18.5432  -48.6753 H         1 UNK         0.0800 
    134 H134        4.3681  -18.4883  -50.3385 H         1 UNK         0.0800 
    135 H135        3.0375  -17.4670  -50.8178 H         1 UNK         0.0800 
    136 H136        1.1422  -18.4648  -51.9112 H         1 UNK         0.1150 
    137 H137        0.7361  -22.7262  -52.0780 H         1 UNK         0.1150 
    138 H138        3.8643  -20.9426  -49.7468 H         1 UNK         0.1150 
    139 H139        1.8799  -23.9812  -50.1402 H         1 UNK         0.0800 
    140 H140        3.1098  -23.9392  -51.3787 H         1 UNK         0.0800 
    141 H141        3.8046  -22.1696  -47.3317 H         1 UNK         0.0800 
    142 H142        2.2343  -22.5295  -47.9741 H         1 UNK         0.0800 
    143 H143        3.8816  -24.7599  -46.6959 H         1 UNK         0.0600 
    144 H144        2.9612  -22.4945  -45.2299 H         1 UNK         0.3000 
    145 H145        2.2385  -24.0187  -42.2147 H         1 UNK         0.0600 
    146 H146        4.0699  -22.8081  -41.0640 H         1 UNK         0.0600 
    147 H147        4.9501  -22.6359  -42.5817 H         1 UNK         0.0600 
    148 H148        4.7134  -24.2290  -41.8707 H         1 UNK         0.0600 
    149 H149        2.8675  -21.3122  -42.6491 H         1 UNK         0.3000 
    150 H150        0.2823  -20.2535  -44.7680 H         1 UNK         0.0600 
    151 H151       -1.1177  -20.4661  -42.7329 H         1 UNK         0.0600 
    152 H152       -0.4592  -18.8367  -42.8177 H         1 UNK         0.0600 
    153 H153        0.2384  -20.0039  -41.7081 H         1 UNK         0.0600 
    154 H154        1.9019  -18.6906  -43.1082 H         1 UNK         0.3000 
    155 H155        5.1291  -19.2745  -44.2078 H         1 UNK         0.0600 
    156 H156        4.6485  -17.9072  -46.1837 H         1 UNK         0.0600 
    157 H157        5.2546  -16.8568  -44.9197 H         1 UNK         0.0600 
    158 H158        3.5274  -16.8925  -45.2796 H         1 UNK         0.0600 
    159 H159        4.0604  -17.0574  -42.7960 H         1 UNK         0.3000 
    160 H160        2.9938  -18.4771  -39.8585 H         1 UNK         0.0600 
    161 H161        5.7936  -17.2379  -40.0263 H         1 UNK         0.0600 
    162 H162        5.4151  -18.7984  -39.3070 H         1 UNK         0.0600 
    163 H163        4.7828  -17.3299  -38.5828 H         1 UNK         0.0600 
    164 H164        3.7586  -15.8179  -40.2513 H         1 UNK         0.3000 
    165 H165        1.7168  -14.3748  -40.4103 H         1 UNK         0.0600 
    166 H166        2.6061  -12.9721  -42.3569 H         1 UNK         0.0600 
    167 H167        3.8194  -14.0218  -41.6488 H         1 UNK         0.0600 
    168 H168        3.0603  -14.4679  -43.1706 H         1 UNK         0.0600 
    169 H169        0.3782  -15.1088  -42.9716 H         1 UNK         0.3000 
    170 H170       -2.5761  -13.4336  -41.9471 H         1 UNK         0.0600 
    171 H171       -1.3486  -11.6099  -43.1723 H         1 UNK         0.0600 
    172 H172       -0.8318  -12.7829  -44.3792 H         1 UNK         0.0600 
    173 H173       -2.5431  -12.4082  -44.1818 H         1 UNK         0.0600 
    174 H174       -2.0412  -14.9058  -44.2996 H         1 UNK         0.3000 
    175 H175       -1.8913  -17.6002  -44.0414 H         1 UNK         0.0600 
    176 H176       -4.4444  -18.1325  -42.4221 H         1 UNK         0.0600 
    177 H177       -3.6692  -19.2571  -43.5372 H         1 UNK         0.0600 
    178 H178       -2.8567  -18.7813  -42.0540 H         1 UNK         0.0600 
    179 H179       -3.2153  -16.9763  -45.6559 H         1 UNK         0.3000 
    180 H180       -6.1214  -16.6124  -46.3546 H         1 UNK         0.0600 
    181 H181       -6.7339  -14.2556  -46.9453 H         1 UNK         0.0600 
    182 H182       -5.7232  -13.6668  -45.6255 H         1 UNK         0.0600 
    183 H183       -7.1393  -14.6503  -45.2841 H         1 UNK         0.0600 
    184 H184       -4.5815  -16.3667  -47.9041 H         1 UNK         0.3000 
    185 H185       -2.9665  -15.7193  -49.1295 H         1 UNK         0.0600 
    186 H186       -1.9730  -12.8707  -48.5870 H         1 UNK         0.0600 
    187 H187       -1.8676  -13.7251  -50.1221 H         1 UNK         0.0600 
    188 H188       -3.4340  -13.2812  -49.4743 H         1 UNK         0.0600 
    189 H189       -0.4243  -14.8537  -48.4410 H         1 UNK         0.3000 
    190 H190        0.7964  -24.0241  -45.3329 H         1 UNK         0.3000 
    191 H191       -1.0642  -25.1324  -45.0958 H         1 UNK         0.0600 
    192 H192       -1.0564  -27.5793  -45.2448 H         1 UNK         0.0600 
    193 H193        0.4892  -27.0338  -44.6155 H         1 UNK         0.0600 
    194 H194        0.3553  -27.5645  -46.2915 H         1 UNK         0.0600 
    195 H195       -0.8580  -23.5850  -47.4560 H         1 UNK         0.3000 
    196 H196       -2.5658  -24.9545  -49.4630 H         1 UNK         0.0600 
    197 H197       -1.0525  -22.3000  -49.4919 H         1 UNK         0.0600 
    198 H198       -2.0544  -22.8978  -50.8141 H         1 UNK         0.0600 
    199 H199       -0.6261  -23.7851  -50.3289 H         1 UNK         0.0600 
    200 H200       -3.3074  -23.7643  -46.6269 H         1 UNK         0.3000 
    201 H201       -5.0660  -22.9214  -45.5807 H         1 UNK         0.0600 
    202 H202       -6.5905  -23.4938  -48.1861 H         1 UNK         0.0600 
    203 H203       -7.3239  -23.1532  -46.6206 H         1 UNK         0.0600 
    204 H204       -6.3571  -24.5989  -46.8404 H         1 UNK         0.0600 
    205 H205       -6.7865  -21.4624  -48.1711 H         1 UNK         0.3000 
    206 H206       -6.3038  -18.7635  -47.2874 H         1 UNK         0.0600 
    207 H207       -8.4598  -19.4429  -48.3073 H         1 UNK         0.0600 
    208 H208       -7.7142  -18.1853  -49.2806 H         1 UNK         0.0600 
    209 H209       -7.6489  -19.8596  -49.8169 H         1 UNK         0.0600 
    210 H210       -4.7711  -20.8782  -49.5870 H         1 UNK         0.3000 
    211 H211       -3.0876  -20.7540  -50.9999 H         1 UNK         0.0600 
    212 H212       -2.0491  -18.6286  -49.0568 H         1 UNK         0.0600 
    213 H213       -1.0715  -19.7043  -50.0576 H         1 UNK         0.0600 
    214 H214       -2.0273  -20.3454  -48.7308 H         1 UNK         0.0600 
    215 H215       -1.7820  -17.7131  -50.7942 H         1 UNK         0.3000 
    216 H216       -2.2600  -17.1070  -53.5104 H         1 UNK         0.0600 
    217 H217       -0.9715  -14.9912  -52.9025 H         1 UNK         0.0600 
    218 H218       -0.1781  -16.4867  -52.4463 H         1 UNK         0.0600 
    219 H219       -0.9943  -15.5215  -51.2240 H         1 UNK         0.0600 
    220 H220       -4.3127  -16.4019  -50.8302 H         1 UNK         0.3000 
    221 H221       -5.5752  -14.0280  -51.9721 H         1 UNK         0.0600 
    222 H222       -7.2391  -14.3815  -50.1777 H         1 UNK         0.0600 
    223 H223       -6.5405  -15.9420  -49.7817 H         1 UNK         0.0600 
    224 H224       -5.6174  -14.4616  -49.5163 H         1 UNK         0.0600 
    225 H225       -5.8518  -17.5119  -52.3465 H         1 UNK         0.3000 
    226 H226       -8.3265  -17.2513  -54.0198 H         1 UNK         0.0600 
    227 H227       -8.6226  -18.6432  -51.9881 H         1 UNK         0.0600 
    228 H228       -8.6451  -19.6654  -53.4157 H         1 UNK         0.0600 
    229 H229       -7.2053  -19.6040  -52.4032 H         1 UNK         0.0600 
    230 H230       -4.9930  -17.7014  -54.1531 H         1 UNK         0.3000 
    231 H231       -3.4560  -18.4147  -55.5634 H         1 UNK         0.0600 
    232 H232       -3.8621  -18.6183  -57.9756 H         1 UNK         0.0600 
    233 H233       -4.7058  -17.2016  -57.3718 H         1 UNK         0.0600 
    234 H234       -5.6014  -18.6764  -57.7358 H         1 UNK         0.0600 
    235 H235       -4.6612  -20.1426  -53.7500 H         1 UNK         0.3000 
    236 H236       -5.2391  -22.7306  -54.9858 H         1 UNK         0.0600 
    237 H237       -5.2214  -21.8030  -52.0665 H         1 UNK         0.0600 
    238 H238       -6.6258  -21.8479  -53.1328 H         1 UNK         0.0600 
    239 H239       -5.8475  -23.3409  -52.6481 H         1 UNK         0.0600 
    240 H240       -2.5319  -21.9265  -55.4745 H         1 UNK         0.3000 
    241 H241       -0.8069  -23.2673  -53.5599 H         1 UNK         0.0600 
    242 H242       -1.6846  -26.0884  -56.2646 H         1 UNK         0.3800 
    243 H243       -2.6651  -24.6576  -56.0810 H         1 UNK         0.3800 
    244 H244        0.0745  -22.2569  -56.2885 H         1 UNK         0.0800 
    245 H245        1.0677  -22.5433  -54.8883 H         1 UNK         0.0800 
    246 H246       -1.1790  -21.1516  -52.7151 H         1 UNK         0.0800 
    247 H247       -0.8654  -19.4473  -52.7717 H         1 UNK         0.0800 
@<TRIPOS>BOND
     1    1    2 1    
     2    1  127 1    
     3    1  128 1    
     4    1  129 1    
     5    2    3 2    
     6    2    4 am   BACKBONE|DICT|INTERRES
     7    4    5 1    
     8    4  130 1    
     9    5    6 1    
    10    5   65 1    
    11    5  131 1    
    12    6    7 1    
    13    6  132 1    
    14    6  133 1    
    15    7    8 1    
    16    8    9 1    
    17    8  134 1    
    18    8  135 1    
    19    9   10 ar   
    20    9   14 ar   
    21   10   11 ar   
    22   10  136 1    
    23   11   12 ar   
    24   11  126 1    
    25   12   13 ar   
    26   12  137 1    
    27   13   14 ar   
    28   13   15 1    
    29   14  138 1    
    30   15   16 1    
    31   15  139 1    
    32   15  140 1    
    33   16   17 1    
    34   17   18 1    
    35   17  141 1    
    36   17  142 1    
    37   18   19 1    
    38   18   67 1    
    39   18  143 1    
    40   19   20 am   BACKBONE|DICT|INTERRES
    41   19  144 1    
    42   20   21 2    
    43   20   22 1    
    44   22   23 1    
    45   22   24 1    
    46   22  145 1    
    47   23  146 1    
    48   23  147 1    
    49   23  148 1    
    50   24   25 am   BACKBONE|DICT|INTERRES
    51   24  149 1    
    52   25   26 2    
    53   25   27 1    
    54   27   28 1    
    55   27   29 1    
    56   27  150 1    
    57   28  151 1    
    58   28  152 1    
    59   28  153 1    
    60   29   30 am   BACKBONE|DICT|INTERRES
    61   29  154 1    
    62   30   31 2    
    63   30   32 1    
    64   32   33 1    
    65   32   34 1    
    66   32  155 1    
    67   33  156 1    
    68   33  157 1    
    69   33  158 1    
    70   34   35 am   BACKBONE|DICT|INTERRES
    71   34  159 1    
    72   35   36 2    
    73   35   37 1    
    74   37   38 1    
    75   37   39 1    
    76   37  160 1    
    77   38  161 1    
    78   38  162 1    
    79   38  163 1    
    80   39   40 am   BACKBONE|DICT|INTERRES
    81   39  164 1    
    82   40   41 2    
    83   40   42 1    
    84   42   43 1    
    85   42   44 1    
    86   42  165 1    
    87   43  166 1    
    88   43  167 1    
    89   43  168 1    
    90   44   45 am   BACKBONE|DICT|INTERRES
    91   44  169 1    
    92   45   46 2    
    93   45   47 1    
    94   47   48 1    
    95   47   49 1    
    96   47  170 1    
    97   48  171 1    
    98   48  172 1    
    99   48  173 1    
   100   49   50 am   BACKBONE|DICT|INTERRES
   101   49  174 1    
   102   50   51 2    
   103   50   52 1    
   104   52   53 1    
   105   52   54 1    
   106   52  175 1    
   107   53  176 1    
   108   53  177 1    
   109   53  178 1    
   110   54   55 am   BACKBONE|DICT|INTERRES
   111   54  179 1    
   112   55   56 2    
   113   55   57 1    
   114   57   58 1    
   115   57   59 1    
   116   57  180 1    
   117   58  181 1    
   118   58  182 1    
   119   58  183 1    
   120   59   60 am   BACKBONE|DICT|INTERRES
   121   59  184 1    
   122   60   61 2    
   123   60   62 1    
   124   62   63 1    
   125   62   64 1    
   126   62  185 1    
   127   63  186 1    
   128   63  187 1    
   129   63  188 1    
   130   64   65 am   BACKBONE|DICT|INTERRES
   131   64  189 1    
   132   65   66 2    
   133   67   68 2    
   134   67   69 am   BACKBONE|DICT|INTERRES
   135   69   70 1    
   136   69  190 1    
   137   70   71 1    
   138   70   72 1    
   139   70  191 1    
   140   71  192 1    
   141   71  193 1    
   142   71  194 1    
   143   72   73 2    
   144   72   74 am   BACKBONE|DICT|INTERRES
   145   74   75 1    
   146   74  195 1    
   147   75   76 1    
   148   75   77 1    
   149   75  196 1    
   150   76  197 1    
   151   76  198 1    
   152   76  199 1    
   153   77   78 2    
   154   77   79 am   BACKBONE|DICT|INTERRES
   155   79   80 1    
   156   79  200 1    
   157   80   81 1    
   158   80   82 1    
   159   80  201 1    
   160   81  202 1    
   161   81  203 1    
   162   81  204 1    
   163   82   83 2    
   164   82   84 am   BACKBONE|DICT|INTERRES
   165   84   85 1    
   166   84  205 1    
   167   85   86 1    
   168   85   87 1    
   169   85  206 1    
   170   86  207 1    
   171   86  208 1    
   172   86  209 1    
   173   87   88 2    
   174   87   89 am   BACKBONE|DICT|INTERRES
   175   89   90 1    
   176   89  210 1    
   177   90   91 1    
   178   90   92 1    
   179   90  211 1    
   180   91  212 1    
   181   91  213 1    
   182   91  214 1    
   183   92   93 2    
   184   92   94 am   BACKBONE|DICT|INTERRES
   185   94   95 1    
   186   94  215 1    
   187   95   96 1    
   188   95   97 1    
   189   95  216 1    
   190   96  217 1    
   191   96  218 1    
   192   96  219 1    
   193   97   98 2    
   194   97   99 am   BACKBONE|DICT|INTERRES
   195   99  100 1    
   196   99  220 1    
   197  100  101 1    
   198  100  102 1    
   199  100  221 1    
   200  101  222 1    
   201  101  223 1    
   202  101  224 1    
   203  102  103 2    
   204  102  104 am   BACKBONE|DICT|INTERRES
   205  104  105 1    
   206  104  225 1    
   207  105  106 1    
   208  105  107 1    
   209  105  226 1    
   210  106  227 1    
   211  106  228 1    
   212  106  229 1    
   213  107  108 2    
   214  107  109 am   BACKBONE|DICT|INTERRES
   215  109  110 1    
   216  109  230 1    
   217  110  111 1    
   218  110  112 1    
   219  110  231 1    
   220  111  232 1    
   221  111  233 1    
   222  111  234 1    
   223  112  113 2    
   224  112  114 am   BACKBONE|DICT|INTERRES
   225  114  115 1    
   226  114  235 1    
   227  115  116 1    
   228  115  117 1    
   229  115  236 1    
   230  116  237 1    
   231  116  238 1    
   232  116  239 1    
   233  117  118 2    
   234  117  119 am   BACKBONE|DICT|INTERRES
   235  119  120 1    
   236  119  240 1    
   237  120  121 1    
   238  120  124 1    
   239  120  241 1    
   240  121  122 am   BACKBONE|DICT|INTERRES
   241  121  123 2    
   242  122  242 1    
   243  122  243 1    
   244  124  125 1    
   245  124  244 1    
   246  124  245 1    
   247  125  126 1    
   248  126  246 1    
   249  126  247 1    
@<TRIPOS>SUBSTRUCTURE
     1 UNK         1 GROUP             0       ****    0 ROOT    
