@<TRIPOS>MOLECULE
3R540
247   249    1
SMALL
USER_CHARGES


@<TRIPOS>ATOM
      1 CA          5.2956  -16.9513  -45.7050 C.3       0 UNK        -0.1800 
      2 C           5.4412  -16.7057  -47.2010 C.2       0 UNK         0.5000 
      3 O           6.5459  -16.4424  -47.6751 O.2       0 UNK        -0.5000 
      4 N           4.3284  -16.7985  -47.9400 N.am      1 UNK        -0.5000 
      5 CA          4.2366  -16.6173  -49.3939 C.3       1 UNK         0.1400 
      6 C6          4.9703  -17.7285  -50.1964 C.3       23 UNK        -0.0398 
      7 S7          4.2021  -18.0810  -51.8184 S.3       23 UNK        -0.2404 
      8 C8          2.9199  -19.3102  -51.3949 C.3       23 UNK        -0.0205 
      9 C9          1.7867  -18.6812  -50.5985 C.ar      23 UNK        -0.0193 
     10 C10         0.8680  -17.8383  -51.2310 C.ar      23 UNK        -0.1150 
     11 C11        -0.1241  -17.1783  -50.4989 C.ar      23 UNK        -0.0193 
     12 C12        -0.1906  -17.3832  -49.1156 C.ar      23 UNK        -0.1150 
     13 C13         0.7096  -18.2347  -48.4727 C.ar      23 UNK        -0.0193 
     14 C14         1.6936  -18.8875  -49.2197 C.ar      23 UNK        -0.1150 
     15 C15         0.6323  -18.4156  -46.9662 C.3       23 UNK        -0.0205 
     16 S16        -0.4552  -19.7968  -46.5107 S.3       23 UNK        -0.2404 
     17 C17         0.6182  -21.1959  -46.9636 C.3       23 UNK        -0.0398 
     18 CA          0.1182  -22.5903  -46.5369 C.3       11 UNK         0.1400 
     19 N           0.1409  -22.8118  -45.0893 N.am      11 UNK        -0.5000 
     20 C           0.1246  -24.0295  -44.5269 C.2       10 UNK         0.5000 
     21 O          -0.0678  -25.0687  -45.1615 O.2       10 UNK        -0.5000 
     22 CA          0.3610  -24.0997  -43.0133 C.3       10 UNK         0.1400 
     23 CB          1.8148  -23.7381  -42.6685 C.3       10 UNK        -0.1800 
     24 N          -0.5462  -23.1985  -42.3137 N.am      10 UNK        -0.5000 
     25 C          -1.7371  -23.5608  -41.8213 C.2       9 UNK         0.5000 
     26 O          -2.1668  -24.7149  -41.8467 O.2       9 UNK        -0.5000 
     27 CA         -2.6021  -22.4536  -41.1891 C.3       9 UNK         0.1400 
     28 CB         -2.4347  -22.4482  -39.6618 C.3       9 UNK        -0.1800 
     29 N          -2.3259  -21.1097  -41.6999 N.am      9 UNK        -0.5000 
     30 C          -2.5487  -20.7092  -42.9586 C.2       8 UNK         0.5000 
     31 O          -2.9450  -21.4492  -43.8584 O.2       8 UNK        -0.5000 
     32 CA         -2.2528  -19.2301  -43.2610 C.3       8 UNK         0.1400 
     33 CB         -3.3030  -18.3410  -42.5736 C.3       8 UNK        -0.1800 
     34 N          -0.9107  -18.7505  -42.9007 N.am      8 UNK        -0.5000 
     35 C           0.2641  -19.3915  -43.0253 C.2       7 UNK         0.5000 
     36 O           0.3818  -20.5859  -43.3033 O.2       7 UNK        -0.5000 
     37 CA          1.5213  -18.5198  -42.8691 C.3       7 UNK         0.1400 
     38 CB          2.8072  -19.2211  -43.3488 C.3       7 UNK        -0.1800 
     39 N           1.3348  -17.2729  -43.6097 N.am      7 UNK        -0.5000 
     40 C           1.8055  -16.0749  -43.2475 C.2       6 UNK         0.5000 
     41 O           2.5042  -15.8917  -42.2501 O.2       6 UNK        -0.5000 
     42 CA          1.4382  -14.8701  -44.1405 C.3       6 UNK         0.1400 
     43 CB          2.6393  -14.4457  -45.0004 C.3       6 UNK        -0.1800 
     44 N           0.2877  -15.0676  -45.0284 N.am      6 UNK        -0.5000 
     45 C          -0.9804  -15.2802  -44.6572 C.2       5 UNK         0.5000 
     46 O          -1.3186  -15.4564  -43.4862 O.2       5 UNK        -0.5000 
     47 CA         -2.0346  -15.2825  -45.7904 C.3       5 UNK         0.1400 
     48 CB         -3.4615  -15.5205  -45.2678 C.3       5 UNK        -0.1800 
     49 N          -2.0385  -14.0383  -46.5652 N.am      5 UNK        -0.5000 
     50 C          -1.1172  -13.6530  -47.4560 C.2       4 UNK         0.5000 
     51 O          -0.0966  -14.3000  -47.7098 O.2       4 UNK        -0.5000 
     52 CA         -1.3591  -12.2981  -48.1373 C.3       4 UNK         0.1400 
     53 CB         -1.0848  -11.1447  -47.1513 C.3       4 UNK        -0.1800 
     54 N          -0.4725  -12.1958  -49.2891 N.am      4 UNK        -0.5000 
     55 C          -0.5089  -11.2816  -50.2639 C.2       3 UNK         0.5000 
     56 O          -1.3766  -10.4096  -50.3379 O.2       3 UNK        -0.5000 
     57 CA          0.6314  -11.3348  -51.3116 C.3       3 UNK         0.1400 
     58 CB          0.7298  -10.0441  -52.1452 C.3       3 UNK        -0.1800 
     59 N           1.9397  -11.5976  -50.6980 N.am      3 UNK        -0.5000 
     60 C           2.3702  -12.8041  -50.3122 C.2       2 UNK         0.5000 
     61 O           1.7235  -13.8341  -50.5181 O.2       2 UNK        -0.5000 
     62 CA          3.6886  -12.8559  -49.5095 C.3       2 UNK         0.1400 
     63 CB          3.6061  -11.9742  -48.2502 C.3       2 UNK        -0.1800 
     64 N           3.9446  -14.2287  -49.0841 N.am      2 UNK        -0.5000 
     65 C           4.5257  -15.1684  -49.8392 C.2       1 UNK         0.5000 
     66 O           5.2039  -14.9261  -50.8396 O.2       1 UNK        -0.5000 
     67 C          -1.2028  -22.9927  -47.2165 C.2       11 UNK         0.5000 
     68 O          -1.1590  -23.3861  -48.3815 O.2       11 UNK        -0.5000 
     69 N          -2.3215  -22.9894  -46.4741 N.am      12 UNK        -0.5000 
     70 CA         -3.6155  -23.5086  -46.9292 C.3       12 UNK         0.1400 
     71 CB         -4.6803  -23.2673  -45.8488 C.3       12 UNK        -0.1800 
     72 C          -3.5867  -25.0007  -47.3224 C.2       12 UNK         0.5000 
     73 O          -4.4120  -25.4237  -48.1320 O.2       12 UNK        -0.5000 
     74 N          -2.6373  -25.7599  -46.7581 N.am      13 UNK        -0.5000 
     75 CA         -2.3580  -27.1465  -47.1150 C.3       13 UNK         0.1400 
     76 CB         -2.1877  -27.9739  -45.8308 C.3       13 UNK        -0.1800 
     77 C          -1.1001  -27.2438  -47.9946 C.2       13 UNK         0.5000 
     78 O          -1.1348  -27.9199  -49.0227 O.2       13 UNK        -0.5000 
     79 N          -0.0085  -26.5882  -47.5721 N.am      14 UNK        -0.5000 
     80 CA          1.3235  -26.7421  -48.1622 C.3       14 UNK         0.1400 
     81 CB          2.3781  -26.1939  -47.1881 C.3       14 UNK        -0.1800 
     82 C           1.4864  -26.1021  -49.5531 C.2       14 UNK         0.5000 
     83 O           2.1747  -26.6776  -50.3971 O.2       14 UNK        -0.5000 
     84 N           0.8686  -24.9338  -49.7681 N.am      15 UNK        -0.5000 
     85 CA          0.9251  -24.1821  -51.0273 C.3       15 UNK         0.1400 
     86 CB          1.3659  -22.7401  -50.7208 C.3       15 UNK        -0.1800 
     87 C          -0.4317  -24.1704  -51.7541 C.2       15 UNK         0.5000 
     88 O          -0.4980  -23.7132  -52.8963 O.2       15 UNK        -0.5000 
     89 N          -1.4869  -24.6362  -51.0710 N.am      16 UNK        -0.5000 
     90 CA         -2.9083  -24.5237  -51.3947 C.3       16 UNK         0.1400 
     91 CB         -3.2691  -25.1988  -52.7334 C.3       16 UNK        -0.1800 
     92 C          -3.3801  -23.0626  -51.3131 C.2       16 UNK         0.5000 
     93 O          -4.1014  -22.7152  -50.3792 O.2       16 UNK        -0.5000 
     94 N          -2.9615  -22.2331  -52.2810 N.am      17 UNK        -0.5000 
     95 CA         -3.1885  -20.7836  -52.3686 C.3       17 UNK         0.1400 
     96 CB         -2.2845  -20.0578  -51.3500 C.3       17 UNK        -0.1800 
     97 C          -4.6754  -20.3745  -52.2531 C.2       17 UNK         0.5000 
     98 O          -4.9901  -19.3525  -51.6416 O.2       17 UNK        -0.5000 
     99 N          -5.5669  -21.2130  -52.8053 N.am      18 UNK        -0.5000 
    100 CA        -7.0304  -21.1350  -52.7052 C.3       18 UNK         0.1400 
    101 CB        -7.5631  -19.9040  -53.4696 C.3       18 UNK        -0.1800 
    102 C         -7.5295  -21.2103  -51.2432 C.2       18 UNK         0.5000 
    103 O         -8.4091  -20.4457  -50.8498 O.2       18 UNK        -0.5000 
    104 N         -6.9211  -22.1130  -50.4584 N.am      19 UNK        -0.5000 
    105 CA        -7.0669  -22.2816  -49.0065 C.3       19 UNK         0.1400 
    106 CB        -8.5032  -22.6954  -48.6232 C.3       19 UNK        -0.1800 
    107 C         -6.5524  -21.0469  -48.2370 C.2       19 UNK         0.5000 
    108 O         -7.1979  -20.5824  -47.2964 O.2       19 UNK        -0.5000 
    109 N         -5.3986  -20.5325  -48.6880 N.am      20 UNK        -0.5000 
    110 CA        -4.7170  -19.3147  -48.2333 C.3       20 UNK         0.1400 
    111 CB        -4.1817  -19.4823  -46.7965 C.3       20 UNK        -0.1800 
    112 C         -5.5368  -18.0181  -48.4214 C.2       20 UNK         0.5000 
    113 O         -5.2801  -17.0327  -47.7308 O.2       20 UNK        -0.5000 
    114 N         -6.4941  -18.0177  -49.3600 N.am      21 UNK        -0.5000 
    115 CA        -7.2413  -16.8243  -49.7617 C.3       21 UNK         0.1400 
    116 CB        -8.5736  -17.2379  -50.4022 C.3       21 UNK        -0.1800 
    117 C         -6.4322  -15.9347  -50.7237 C.2       21 UNK         0.5000 
    118 O         -6.6464  -14.7221  -50.7439 O.2       21 UNK        -0.5000 
    119 N         -5.5201  -16.5494  -51.4910 N.am      22 UNK        -0.5000 
    120 CA        -4.5674  -15.9061  -52.4132 C.3       22 UNK         0.1400 
    121 C         -5.2108  -15.2288  -53.6622 C.2       22 UNK         0.5000 
    122 N         -6.4608  -15.5188  -54.0020 N.am      22 UNK        -0.7600 
    123 O         -4.5604  -14.4540  -54.3587 O.2       22 UNK        -0.5000 
    124 C124       -3.5492  -14.9822  -51.6847 C.3       23 UNK        -0.0398 
    125 S125       -2.6343  -15.8623  -50.3733 S.3       23 UNK        -0.2404 
    126 C126       -1.0648  -16.2228  -51.2335 C.3       23 UNK        -0.0205 
    127 H127        4.2870  -17.2699  -45.4406 H         1 UNK         0.0600 
    128 H128        5.5217  -16.0403  -45.1510 H         1 UNK         0.0600 
    129 H129        5.9889  -17.7282  -45.3827 H         1 UNK         0.0600 
    130 H130        3.4569  -17.0225  -47.4840 H         1 UNK         0.3000 
    131 H131        3.1727  -16.7098  -49.5954 H         1 UNK         0.0600 
    132 H132        6.0200  -17.4705  -50.3450 H         1 UNK         0.0800 
    133 H133        4.9771  -18.6591  -49.6277 H         1 UNK         0.0800 
    134 H134        2.5176  -19.7336  -52.3162 H         1 UNK         0.0800 
    135 H135        3.3700  -20.1404  -50.8483 H         1 UNK         0.0800 
    136 H136        0.9506  -17.6682  -52.2954 H         1 UNK         0.1150 
    137 H137       -0.9327  -16.8683  -48.5254 H         1 UNK         0.1150 
    138 H138        2.4104  -19.5266  -48.7239 H         1 UNK         0.1150 
    139 H139        1.6271  -18.5692  -46.5460 H         1 UNK         0.0800 
    140 H140        0.2473  -17.5042  -46.5118 H         1 UNK         0.0800 
    141 H141        1.6081  -21.0254  -46.5384 H         1 UNK         0.0800 
    142 H142        0.7511  -21.1809  -48.0447 H         1 UNK         0.0800 
    143 H143        0.8562  -23.2838  -46.9432 H         1 UNK         0.0600 
    144 H144        0.2521  -21.9887  -44.5006 H         1 UNK         0.3000 
    145 H145        0.1910  -25.1300  -42.6933 H         1 UNK         0.0600 
    146 H146        2.0003  -23.8405  -41.5992 H         1 UNK         0.0600 
    147 H147        2.5130  -24.3986  -43.1843 H         1 UNK         0.0600 
    148 H148        2.0614  -22.7144  -42.9520 H         1 UNK         0.0600 
    149 H149       -0.3010  -22.2143  -42.3257 H         1 UNK         0.3000 
    150 H150       -3.6441  -22.6873  -41.4176 H         1 UNK         0.0600 
    151 H151       -3.1083  -21.7308  -39.1928 H         1 UNK         0.0600 
    152 H152       -2.6616  -23.4282  -39.2398 H         1 UNK         0.0600 
    153 H153       -1.4148  -22.1936  -39.3706 H         1 UNK         0.0600 
    154 H154       -1.9675  -20.4370  -41.0382 H         1 UNK         0.3000 
    155 H155       -2.3537  -19.0930  -44.3380 H         1 UNK         0.0600 
    156 H156       -3.2781  -18.4500  -41.4888 H         1 UNK         0.0600 
    157 H157       -4.3096  -18.5970  -42.9070 H         1 UNK         0.0600 
    158 H158       -3.1463  -17.2869  -42.7939 H         1 UNK         0.0600 
    159 H159       -0.8676  -17.7697  -42.6572 H         1 UNK         0.3000 
    160 H160        1.6186  -18.3059  -41.8028 H         1 UNK         0.0600 
    161 H161        2.7505  -19.4838  -44.4056 H         1 UNK         0.0600 
    162 H162        2.9845  -20.1406  -42.7896 H         1 UNK         0.0600 
    163 H163        3.6805  -18.5844  -43.2077 H         1 UNK         0.0600 
    164 H164        0.7369  -17.3262  -44.4202 H         1 UNK         0.3000 
    165 H165        1.1939  -14.0449  -43.4686 H         1 UNK         0.0600 
    166 H166        2.4427  -13.5012  -45.5077 H         1 UNK         0.0600 
    167 H167        3.5338  -14.3051  -44.3920 H         1 UNK         0.0600 
    168 H168        2.8694  -15.1911  -45.7610 H         1 UNK         0.0600 
    169 H169        0.4433  -14.8890  -46.0179 H         1 UNK         0.3000 
    170 H170       -1.7912  -16.1030  -46.4672 H         1 UNK         0.0600 
    171 H171       -3.5758  -16.5399  -44.9024 H         1 UNK         0.0600 
    172 H172       -3.7204  -14.8390  -44.4565 H         1 UNK         0.0600 
    173 H173       -4.1994  -15.3830  -46.0569 H         1 UNK         0.0600 
    174 H174       -2.8205  -13.4239  -46.3914 H         1 UNK         0.3000 
    175 H175       -2.3942  -12.2606  -48.4821 H         1 UNK         0.0600 
    176 H176       -0.0480  -11.1484  -46.8121 H         1 UNK         0.0600 
    177 H177       -1.2837  -10.1735  -47.6042 H         1 UNK         0.0600 
    178 H178       -1.7195  -11.2188  -46.2677 H         1 UNK         0.0600 
    179 H179        0.2255  -12.9336  -49.3352 H         1 UNK         0.3000 
    180 H180        0.3911  -12.1498  -51.9976 H         1 UNK         0.0600 
    181 H181        0.9386   -9.1760  -51.5189 H         1 UNK         0.0600 
    182 H182       -0.2007   -9.8491  -52.6799 H         1 UNK         0.0600 
    183 H183        1.5199  -10.1169  -52.8928 H         1 UNK         0.0600 
    184 H184        2.4945  -10.7849  -50.4714 H         1 UNK         0.3000 
    185 H185        4.5024  -12.5018  -50.1455 H         1 UNK         0.0600 
    186 H186        3.5338  -10.9173  -48.5081 H         1 UNK         0.0600 
    187 H187        2.7362  -12.2235  -47.6407 H         1 UNK         0.0600 
    188 H188        4.4940  -12.0907  -47.6283 H         1 UNK         0.0600 
    189 H189        3.3915  -14.5458  -48.3024 H         1 UNK         0.3000 
    190 H190       -2.2861  -22.6204  -45.5296 H         1 UNK         0.3000 
    191 H191       -3.8986  -22.9425  -47.8165 H         1 UNK         0.0600 
    192 H192       -4.8195  -22.2033  -45.6607 H         1 UNK         0.0600 
    193 H193       -5.6485  -23.6668  -46.1533 H         1 UNK         0.0600 
    194 H194       -4.4087  -23.7423  -44.9053 H         1 UNK         0.0600 
    195 H195       -1.9906  -25.3234  -46.1125 H         1 UNK         0.3000 
    196 H196       -3.1918  -27.5726  -47.6771 H         1 UNK         0.0600 
    197 H197       -1.9656  -29.0160  -46.0640 H         1 UNK         0.0600 
    198 H198       -3.0997  -27.9618  -45.2338 H         1 UNK         0.0600 
    199 H199       -1.3768  -27.5961  -45.2067 H         1 UNK         0.0600 
    200 H200       -0.0544  -26.0640  -46.7014 H         1 UNK         0.3000 
    201 H201        1.5094  -27.8123  -48.2769 H         1 UNK         0.0600 
    202 H202        2.3182  -26.6925  -46.2204 H         1 UNK         0.0600 
    203 H203        2.2596  -25.1242  -47.0200 H         1 UNK         0.0600 
    204 H204        3.3858  -26.3541  -47.5737 H         1 UNK         0.0600 
    205 H205        0.2887  -24.5310  -49.0396 H         1 UNK         0.3000 
    206 H206        1.6547  -24.6215  -51.7102 H         1 UNK         0.0600 
    207 H207        2.3007  -22.7186  -50.1606 H         1 UNK         0.0600 
    208 H208        1.5255  -22.1786  -51.6420 H         1 UNK         0.0600 
    209 H209        0.6121  -22.2039  -50.1441 H         1 UNK         0.0600 
    210 H210       -1.3028  -24.9233  -50.1203 H         1 UNK         0.3000 
    211 H211       -3.4343  -25.0687  -50.6104 H         1 UNK         0.0600 
    212 H212       -2.7982  -24.7179  -53.5904 H         1 UNK         0.0600 
    213 H213       -4.3466  -25.1720  -52.8995 H         1 UNK         0.0600 
    214 H214       -2.9679  -26.2463  -52.7343 H         1 UNK         0.0600 
    215 H215       -2.3188  -22.6207  -52.9628 H         1 UNK         0.3000 
    216 H216       -2.8728  -20.4767  -53.3664 H         1 UNK         0.0600 
    217 H217       -2.4190  -18.9765  -51.3926 H         1 UNK         0.0600 
    218 H218       -1.2316  -20.2575  -51.5493 H         1 UNK         0.0600 
    219 H219       -2.4881  -20.3771  -50.3283 H         1 UNK         0.0600 
    220 H220       -5.2038  -22.0262  -53.2821 H         1 UNK         0.3000 
    221 H221       -7.4229  -22.0232  -53.2021 H         1 UNK         0.0600 
    222 H222       -7.2196  -18.9687  -53.0286 H         1 UNK         0.0600 
    223 H223       -7.2390  -19.9188  -54.5100 H         1 UNK         0.0600 
    224 H224       -8.6535  -19.8844  -53.4712 H         1 UNK         0.0600 
    225 H225       -6.1459  -22.6290  -50.8563 H         1 UNK         0.3000 
    226 H226       -6.4082  -23.1064  -48.7302 H         1 UNK         0.0600 
    227 H227       -8.8270  -23.5672  -49.1914 H         1 UNK         0.0600 
    228 H228       -8.5612  -22.9571  -47.5662 H         1 UNK         0.0600 
    229 H229       -9.2208  -21.8937  -48.7985 H         1 UNK         0.0600 
    230 H230       -4.9503  -21.0176  -49.4578 H         1 UNK         0.3000 
    231 H231       -3.8508  -19.1964  -48.8838 H         1 UNK         0.0600 
    232 H232       -4.9876  -19.5661  -46.0673 H         1 UNK         0.0600 
    233 H233       -3.5648  -18.6309  -46.5074 H         1 UNK         0.0600 
    234 H234       -3.5557  -20.3697  -46.7115 H         1 UNK         0.0600 
    235 H235       -6.6377  -18.8568  -49.9058 H         1 UNK         0.3000 
    236 H236       -7.4687  -16.2339  -48.8716 H         1 UNK         0.0600 
    237 H237       -9.1559  -17.8689  -49.7304 H         1 UNK         0.0600 
    238 H238       -9.1810  -16.3628  -50.6361 H         1 UNK         0.0600 
    239 H239       -8.4220  -17.7872  -51.3308 H         1 UNK         0.0600 
    240 H240       -5.4165  -17.5583  -51.4093 H         1 UNK         0.3000 
    241 H241       -3.9931  -16.7324  -52.8335 H         1 UNK         0.0600 
    242 H242       -7.0057  -16.1558  -53.4443 H         1 UNK         0.3800 
    243 H243       -6.8678  -15.0866  -54.8165 H         1 UNK         0.3800 
    244 H244       -4.0590  -14.1291  -51.2356 H         1 UNK         0.0800 
    245 H245       -2.8301  -14.5617  -52.3893 H         1 UNK         0.0800 
    246 H246       -1.2994  -16.6396  -52.2141 H         1 UNK         0.0800 
    247 H247       -0.5360  -15.2845  -51.4062 H         1 UNK         0.0800 
@<TRIPOS>BOND
     1    1    2 1    
     2    1  127 1    
     3    1  128 1    
     4    1  129 1    
     5    2    3 2    
     6    2    4 am   BACKBONE|DICT|INTERRES
     7    4    5 1    
     8    4  130 1    
     9    5    6 1    
    10    5   65 1    
    11    5  131 1    
    12    6    7 1    
    13    6  132 1    
    14    6  133 1    
    15    7    8 1    
    16    8    9 1    
    17    8  134 1    
    18    8  135 1    
    19    9   10 ar   
    20    9   14 ar   
    21   10   11 ar   
    22   10  136 1    
    23   11   12 ar   
    24   11  126 1    
    25   12   13 ar   
    26   12  137 1    
    27   13   14 ar   
    28   13   15 1    
    29   14  138 1    
    30   15   16 1    
    31   15  139 1    
    32   15  140 1    
    33   16   17 1    
    34   17   18 1    
    35   17  141 1    
    36   17  142 1    
    37   18   19 1    
    38   18   67 1    
    39   18  143 1    
    40   19   20 am   BACKBONE|DICT|INTERRES
    41   19  144 1    
    42   20   21 2    
    43   20   22 1    
    44   22   23 1    
    45   22   24 1    
    46   22  145 1    
    47   23  146 1    
    48   23  147 1    
    49   23  148 1    
    50   24   25 am   BACKBONE|DICT|INTERRES
    51   24  149 1    
    52   25   26 2    
    53   25   27 1    
    54   27   28 1    
    55   27   29 1    
    56   27  150 1    
    57   28  151 1    
    58   28  152 1    
    59   28  153 1    
    60   29   30 am   BACKBONE|DICT|INTERRES
    61   29  154 1    
    62   30   31 2    
    63   30   32 1    
    64   32   33 1    
    65   32   34 1    
    66   32  155 1    
    67   33  156 1    
    68   33  157 1    
    69   33  158 1    
    70   34   35 am   BACKBONE|DICT|INTERRES
    71   34  159 1    
    72   35   36 2    
    73   35   37 1    
    74   37   38 1    
    75   37   39 1    
    76   37  160 1    
    77   38  161 1    
    78   38  162 1    
    79   38  163 1    
    80   39   40 am   BACKBONE|DICT|INTERRES
    81   39  164 1    
    82   40   41 2    
    83   40   42 1    
    84   42   43 1    
    85   42   44 1    
    86   42  165 1    
    87   43  166 1    
    88   43  167 1    
    89   43  168 1    
    90   44   45 am   BACKBONE|DICT|INTERRES
    91   44  169 1    
    92   45   46 2    
    93   45   47 1    
    94   47   48 1    
    95   47   49 1    
    96   47  170 1    
    97   48  171 1    
    98   48  172 1    
    99   48  173 1    
   100   49   50 am   BACKBONE|DICT|INTERRES
   101   49  174 1    
   102   50   51 2    
   103   50   52 1    
   104   52   53 1    
   105   52   54 1    
   106   52  175 1    
   107   53  176 1    
   108   53  177 1    
   109   53  178 1    
   110   54   55 am   BACKBONE|DICT|INTERRES
   111   54  179 1    
   112   55   56 2    
   113   55   57 1    
   114   57   58 1    
   115   57   59 1    
   116   57  180 1    
   117   58  181 1    
   118   58  182 1    
   119   58  183 1    
   120   59   60 am   BACKBONE|DICT|INTERRES
   121   59  184 1    
   122   60   61 2    
   123   60   62 1    
   124   62   63 1    
   125   62   64 1    
   126   62  185 1    
   127   63  186 1    
   128   63  187 1    
   129   63  188 1    
   130   64   65 am   BACKBONE|DICT|INTERRES
   131   64  189 1    
   132   65   66 2    
   133   67   68 2    
   134   67   69 am   BACKBONE|DICT|INTERRES
   135   69   70 1    
   136   69  190 1    
   137   70   71 1    
   138   70   72 1    
   139   70  191 1    
   140   71  192 1    
   141   71  193 1    
   142   71  194 1    
   143   72   73 2    
   144   72   74 am   BACKBONE|DICT|INTERRES
   145   74   75 1    
   146   74  195 1    
   147   75   76 1    
   148   75   77 1    
   149   75  196 1    
   150   76  197 1    
   151   76  198 1    
   152   76  199 1    
   153   77   78 2    
   154   77   79 am   BACKBONE|DICT|INTERRES
   155   79   80 1    
   156   79  200 1    
   157   80   81 1    
   158   80   82 1    
   159   80  201 1    
   160   81  202 1    
   161   81  203 1    
   162   81  204 1    
   163   82   83 2    
   164   82   84 am   BACKBONE|DICT|INTERRES
   165   84   85 1    
   166   84  205 1    
   167   85   86 1    
   168   85   87 1    
   169   85  206 1    
   170   86  207 1    
   171   86  208 1    
   172   86  209 1    
   173   87   88 2    
   174   87   89 am   BACKBONE|DICT|INTERRES
   175   89   90 1    
   176   89  210 1    
   177   90   91 1    
   178   90   92 1    
   179   90  211 1    
   180   91  212 1    
   181   91  213 1    
   182   91  214 1    
   183   92   93 2    
   184   92   94 am   BACKBONE|DICT|INTERRES
   185   94   95 1    
   186   94  215 1    
   187   95   96 1    
   188   95   97 1    
   189   95  216 1    
   190   96  217 1    
   191   96  218 1    
   192   96  219 1    
   193   97   98 2    
   194   97   99 am   BACKBONE|DICT|INTERRES
   195   99  100 1    
   196   99  220 1    
   197  100  101 1    
   198  100  102 1    
   199  100  221 1    
   200  101  222 1    
   201  101  223 1    
   202  101  224 1    
   203  102  103 2    
   204  102  104 am   BACKBONE|DICT|INTERRES
   205  104  105 1    
   206  104  225 1    
   207  105  106 1    
   208  105  107 1    
   209  105  226 1    
   210  106  227 1    
   211  106  228 1    
   212  106  229 1    
   213  107  108 2    
   214  107  109 am   BACKBONE|DICT|INTERRES
   215  109  110 1    
   216  109  230 1    
   217  110  111 1    
   218  110  112 1    
   219  110  231 1    
   220  111  232 1    
   221  111  233 1    
   222  111  234 1    
   223  112  113 2    
   224  112  114 am   BACKBONE|DICT|INTERRES
   225  114  115 1    
   226  114  235 1    
   227  115  116 1    
   228  115  117 1    
   229  115  236 1    
   230  116  237 1    
   231  116  238 1    
   232  116  239 1    
   233  117  118 2    
   234  117  119 am   BACKBONE|DICT|INTERRES
   235  119  120 1    
   236  119  240 1    
   237  120  121 1    
   238  120  124 1    
   239  120  241 1    
   240  121  122 am   BACKBONE|DICT|INTERRES
   241  121  123 2    
   242  122  242 1    
   243  122  243 1    
   244  124  125 1    
   245  124  244 1    
   246  124  245 1    
   247  125  126 1    
   248  126  246 1    
   249  126  247 1    
@<TRIPOS>SUBSTRUCTURE
     1 UNK         1 GROUP             0       ****    0 ROOT    
