@<TRIPOS>MOLECULE
3R540
247   249    1
SMALL
USER_CHARGES


@<TRIPOS>ATOM
      1 CA         -7.7889  -18.0196  -49.3500 C.3       0 UNK        -0.1800 
      2 C          -6.4270  -17.3622  -49.1811 C.2       0 UNK         0.5000 
      3 O          -5.9173  -16.7505  -50.1216 O.2       0 UNK        -0.5000 
      4 N          -5.8255  -17.4910  -47.9935 N.am      1 UNK        -0.5000 
      5 CA         -4.5401  -16.8835  -47.6507 C.3       1 UNK         0.1400 
      6 C6         -3.7929  -17.6545  -46.5338 C.3       23 UNK        -0.0398 
      7 S7         -3.0725  -19.1968  -47.1815 S.3       23 UNK        -0.2404 
      8 C8         -1.4572  -18.5700  -47.7422 C.3       23 UNK        -0.0205 
      9 C9         -0.8011  -19.5058  -48.7425 C.ar      23 UNK        -0.0193 
     10 C10        -0.7989  -19.1861  -50.1030 C.ar      23 UNK        -0.1150 
     11 C11        -0.1780  -20.0258  -51.0324 C.ar      23 UNK        -0.0193 
     12 C12         0.4367  -21.1997  -50.5879 C.ar      23 UNK        -0.1150 
     13 C13         0.4371  -21.5339  -49.2304 C.ar      23 UNK        -0.0193 
     14 C14        -0.1827  -20.6815  -48.3115 C.ar      23 UNK        -0.1150 
     15 C15         1.1009  -22.8218  -48.7692 C.3       23 UNK        -0.0205 
     16 S16         2.8709  -22.5830  -48.4242 S.3       23 UNK        -0.2404 
     17 C17         2.8190  -21.9413  -46.7167 C.3       23 UNK        -0.0398 
     18 CA          3.3002  -22.9641  -45.6578 C.3       11 UNK         0.1400 
     19 N           3.7280  -22.2670  -44.4410 N.am      11 UNK        -0.5000 
     20 C           4.5439  -22.7727  -43.5074 C.2       10 UNK         0.5000 
     21 O           5.0819  -23.8770  -43.5922 O.2       10 UNK        -0.5000 
     22 CA          4.7686  -21.9077  -42.2526 C.3       10 UNK         0.1400 
     23 CB          5.8700  -20.8662  -42.5010 C.3       10 UNK        -0.1800 
     24 N           3.5477  -21.2346  -41.7995 N.am      10 UNK        -0.5000 
     25 C           2.4633  -21.8689  -41.3290 C.2       9 UNK         0.5000 
     26 O           2.3877  -23.0907  -41.2015 O.2       9 UNK        -0.5000 
     27 CA          1.2407  -21.0039  -40.9769 C.3       9 UNK         0.1400 
     28 CB          1.4066  -20.3740  -39.5859 C.3       9 UNK        -0.1800 
     29 N           0.9748  -19.9601  -41.9673 N.am      9 UNK        -0.5000 
     30 C           0.6206  -20.1873  -43.2403 C.2       8 UNK         0.5000 
     31 O           0.4541  -21.3092  -43.7165 O.2       8 UNK        -0.5000 
     32 CA          0.4817  -18.9617  -44.1581 C.3       8 UNK         0.1400 
     33 CB         -0.8610  -18.2509  -43.9344 C.3       8 UNK        -0.1800 
     34 N           1.5789  -18.0114  -43.9931 N.am      8 UNK        -0.5000 
     35 C           2.8685  -18.2900  -44.2301 C.2       7 UNK         0.5000 
     36 O           3.2713  -19.3749  -44.6505 O.2       7 UNK        -0.5000 
     37 CA          3.8808  -17.1872  -43.8825 C.3       7 UNK         0.1400 
     38 CB          3.9288  -16.1142  -44.9816 C.3       7 UNK        -0.1800 
     39 N           3.5780  -16.5646  -42.5940 N.am      7 UNK        -0.5000 
     40 C           3.6967  -17.1821  -41.4098 C.2       6 UNK         0.5000 
     41 O           4.1048  -18.3357  -41.2760 O.2       6 UNK        -0.5000 
     42 CA          3.2430  -16.3879  -40.1717 C.3       6 UNK         0.1400 
     43 CB          4.3431  -15.4187  -39.7138 C.3       6 UNK        -0.1800 
     44 N           2.0043  -15.6437  -40.4048 N.am      6 UNK        -0.5000 
     45 C           0.8126  -16.2153  -40.6277 C.2       5 UNK         0.5000 
     46 O           0.6284  -17.4309  -40.6387 O.2       5 UNK        -0.5000 
     47 CA         -0.3640  -15.2729  -40.9346 C.3       5 UNK         0.1400 
     48 CB         -1.0138  -14.7795  -39.6333 C.3       5 UNK        -0.1800 
     49 N          -0.0007  -14.1215  -41.7648 N.am      5 UNK        -0.5000 
     50 C           0.5127  -14.2000  -42.9994 C.2       4 UNK         0.5000 
     51 O           0.8379  -15.2578  -43.5441 O.2       4 UNK        -0.5000 
     52 CA          0.7295  -12.8645  -43.7353 C.3       4 UNK         0.1400 
     53 CB          2.1786  -12.3896  -43.5472 C.3       4 UNK        -0.1800 
     54 N           0.4428  -12.9582  -45.1687 N.am      4 UNK        -0.5000 
     55 C          -0.7338  -13.3185  -45.6995 C.2       3 UNK         0.5000 
     56 O          -1.7365  -13.5782  -45.0290 O.2       3 UNK        -0.5000 
     57 CA         -0.7723  -13.4265  -47.2391 C.3       3 UNK         0.1400 
     58 CB          0.0401  -14.6466  -47.7093 C.3       3 UNK        -0.1800 
     59 N          -2.1310  -13.5590  -47.7650 N.am      3 UNK        -0.5000 
     60 C          -3.1059  -12.6394  -47.7043 C.2       2 UNK         0.5000 
     61 O          -2.9356  -11.4875  -47.3024 O.2       2 UNK        -0.5000 
     62 CA         -4.5091  -13.0814  -48.1807 C.3       2 UNK         0.1400 
     63 CB         -4.8525  -12.4279  -49.5285 C.3       2 UNK        -0.1800 
     64 N          -4.6271  -14.5370  -48.3181 N.am      2 UNK        -0.5000 
     65 C          -4.7320  -15.3975  -47.2969 C.2       1 UNK         0.5000 
     66 O          -4.9426  -15.0610  -46.1312 O.2       1 UNK        -0.5000 
     67 C           2.2377  -24.0579  -45.3728 C.2       11 UNK         0.5000 
     68 O           2.0497  -24.9486  -46.2012 O.2       11 UNK        -0.5000 
     69 N           1.5775  -23.9779  -44.2076 N.am      12 UNK        -0.5000 
     70 CA          0.4771  -24.8211  -43.7273 C.3       12 UNK         0.1400 
     71 CB          0.9069  -26.2979  -43.5985 C.3       12 UNK        -0.1800 
     72 C          -0.8266  -24.6211  -44.5312 C.2       12 UNK         0.5000 
     73 O          -1.5738  -25.5787  -44.7405 O.2       12 UNK        -0.5000 
     74 N          -1.0773  -23.3607  -44.9184 N.am      13 UNK        -0.5000 
     75 CA         -2.2214  -22.8222  -45.6630 C.3       13 UNK         0.1400 
     76 CB         -3.5360  -23.0504  -44.8912 C.3       13 UNK        -0.1800 
     77 C          -2.3376  -23.3173  -47.1202 C.2       13 UNK         0.5000 
     78 O          -1.7821  -24.3506  -47.4956 O.2       13 UNK        -0.5000 
     79 N          -3.0735  -22.5446  -47.9299 N.am      14 UNK        -0.5000 
     80 CA         -3.3046  -22.8123  -49.3523 C.3       14 UNK         0.1400 
     81 CB         -3.8047  -21.5249  -50.0232 C.3       14 UNK        -0.1800 
     82 C          -4.2908  -23.9709  -49.6074 C.2       14 UNK         0.5000 
     83 O          -4.3017  -24.5186  -50.7107 O.2       14 UNK        -0.5000 
     84 N          -5.0945  -24.3216  -48.5909 N.am      15 UNK        -0.5000 
     85 CA         -6.0971  -25.3896  -48.5735 C.3       15 UNK         0.1400 
     86 CB         -5.4141  -26.7751  -48.6219 C.3       15 UNK        -0.1800 
     87 C          -7.1738  -25.1803  -49.6580 C.2       15 UNK         0.5000 
     88 O          -8.0393  -24.3216  -49.4842 O.2       15 UNK        -0.5000 
     89 N          -7.1052  -25.9577  -50.7463 N.am      16 UNK        -0.5000 
     90 CA         -7.9985  -25.8596  -51.9013 C.3       16 UNK         0.1400 
     91 CB         -7.9215  -27.1720  -52.6973 C.3       16 UNK        -0.1800 
     92 C          -7.6885  -24.6564  -52.8153 C.2       16 UNK         0.5000 
     93 O          -8.5692  -24.2342  -53.5667 O.2       16 UNK        -0.5000 
     94 N          -6.4553  -24.1365  -52.7525 N.am      17 UNK        -0.5000 
     95 CA         -6.0076  -22.9553  -53.4884 C.3       17 UNK         0.1400 
     96 CB         -4.5226  -23.1403  -53.8587 C.3       17 UNK        -0.1800 
     97 C          -6.2531  -21.6667  -52.6751 C.2       17 UNK         0.5000 
     98 O          -6.9302  -21.6888  -51.6448 O.2       17 UNK        -0.5000 
     99 N          -5.6820  -20.5587  -53.1520 N.am      18 UNK        -0.5000 
    100 CA        -5.6870  -19.2483  -52.5133 C.3       18 UNK         0.1400 
    101 CB        -6.8989  -18.4437  -53.0161 C.3       18 UNK        -0.1800 
    102 C         -4.3684  -18.5430  -52.8565 C.2       18 UNK         0.5000 
    103 O         -3.6396  -19.0097  -53.7353 O.2       18 UNK        -0.5000 
    104 N         -4.0988  -17.4072  -52.2001 N.am      19 UNK        -0.5000 
    105 CA        -2.9070  -16.5730  -52.4064 C.3       19 UNK         0.1400 
    106 CB        -2.9250  -15.4014  -51.4152 C.3       19 UNK        -0.1800 
    107 C         -2.7162  -16.0704  -53.8505 C.2       19 UNK         0.5000 
    108 O         -1.5807  -15.8468  -54.2681 O.2       19 UNK        -0.5000 
    109 N         -3.8112  -15.9760  -54.6163 N.am      20 UNK        -0.5000 
    110 CA        -3.8141  -15.6952  -56.0541 C.3       20 UNK         0.1400 
    111 CB        -5.2705  -15.5761  -56.5285 C.3       20 UNK        -0.1800 
    112 C         -3.0545  -16.7392  -56.9042 C.2       20 UNK         0.5000 
    113 O         -2.6342  -16.4144  -58.0153 O.2       20 UNK        -0.5000 
    114 N         -2.8777  -17.9596  -56.3756 N.am      21 UNK        -0.5000 
    115 CA        -2.1293  -19.0420  -57.0130 C.3       21 UNK         0.1400 
    116 CB        -2.6417  -20.3896  -56.4771 C.3       21 UNK        -0.1800 
    117 C         -0.6028  -18.9339  -56.8192 C.2       21 UNK         0.5000 
    118 O          0.1210  -19.6836  -57.4770 O.2       21 UNK        -0.5000 
    119 N         -0.1277  -18.0420  -55.9364 N.am      22 UNK        -0.5000 
    120 CA         1.3044  -17.8746  -55.6308 C.3       22 UNK         0.1400 
    121 C          1.7949  -16.4027  -55.5257 C.2       22 UNK         0.5000 
    122 N          0.9342  -15.4100  -55.3461 N.am      22 UNK        -0.7600 
    123 O          2.9910  -16.1496  -55.6442 O.2       22 UNK        -0.5000 
    124 C124        1.7544  -18.7457  -54.4287 C.3       23 UNK        -0.0398 
    125 S125        0.9919  -18.2875  -52.8287 S.3       23 UNK        -0.2404 
    126 C126       -0.1597  -19.6635  -52.5109 C.3       23 UNK        -0.0205 
    127 H127       -8.4978  -17.3092  -49.7754 H         1 UNK         0.0600 
    128 H128       -8.1888  -18.3697  -48.3981 H         1 UNK         0.0600 
    129 H129       -7.7151  -18.8736  -50.0231 H         1 UNK         0.0600 
    130 H130       -6.2896  -17.9921  -47.2496 H         1 UNK         0.3000 
    131 H131       -3.9020  -16.9148  -48.5362 H         1 UNK         0.0600 
    132 H132       -2.9878  -17.0544  -46.1047 H         1 UNK         0.0800 
    133 H133       -4.4635  -17.8914  -45.7064 H         1 UNK         0.0800 
    134 H134       -1.5827  -17.5849  -48.1928 H         1 UNK         0.0800 
    135 H135       -0.8007  -18.4269  -46.8855 H         1 UNK         0.0800 
    136 H136       -1.2707  -18.2750  -50.4355 H         1 UNK         0.1150 
    137 H137        0.9228  -21.8539  -51.2980 H         1 UNK         0.1150 
    138 H138       -0.1937  -20.9317  -47.2613 H         1 UNK         0.1150 
    139 H139        0.6026  -23.2169  -47.8840 H         1 UNK         0.0800 
    140 H140        0.9923  -23.5867  -49.5394 H         1 UNK         0.0800 
    141 H141        3.4774  -21.0717  -46.7112 H         1 UNK         0.0800 
    142 H142        1.8310  -21.5574  -46.4649 H         1 UNK         0.0800 
    143 H143        4.1784  -23.4742  -46.0600 H         1 UNK         0.0600 
    144 H144        3.3849  -21.3179  -44.3216 H         1 UNK         0.3000 
    145 H145        5.1030  -22.5691  -41.4507 H         1 UNK         0.0600 
    146 H146        6.0995  -20.3119  -41.5909 H         1 UNK         0.0600 
    147 H147        5.5788  -20.1461  -43.2662 H         1 UNK         0.0600 
    148 H148        6.7930  -21.3437  -42.8322 H         1 UNK         0.0600 
    149 H149        3.5505  -20.2200  -41.8304 H         1 UNK         0.3000 
    150 H150        0.3693  -21.6613  -40.9475 H         1 UNK         0.0600 
    151 H151        1.6093  -21.1357  -38.8320 H         1 UNK         0.0600 
    152 H152        0.5008  -19.8497  -39.2814 H         1 UNK         0.0600 
    153 H153        2.2304  -19.6599  -39.5630 H         1 UNK         0.0600 
    154 H154        1.0409  -19.0004  -41.6382 H         1 UNK         0.3000 
    155 H155        0.5142  -19.3212  -45.1878 H         1 UNK         0.0600 
    156 H156       -1.6962  -18.9215  -44.1409 H         1 UNK         0.0600 
    157 H157       -0.9648  -17.3863  -44.5902 H         1 UNK         0.0600 
    158 H158       -0.9653  -17.9012  -42.9074 H         1 UNK         0.0600 
    159 H159        1.3324  -17.0746  -43.6822 H         1 UNK         0.3000 
    160 H160        4.8685  -17.6483  -43.8148 H         1 UNK         0.0600 
    161 H161        2.9684  -15.6133  -45.1062 H         1 UNK         0.0600 
    162 H162        4.1928  -16.5560  -45.9431 H         1 UNK         0.0600 
    163 H163        4.6766  -15.3535  -44.7574 H         1 UNK         0.0600 
    164 H164        3.1704  -15.6420  -42.6208 H         1 UNK         0.3000 
    165 H165        3.0622  -17.1033  -39.3665 H         1 UNK         0.0600 
    166 H166        4.0619  -14.9113  -38.7908 H         1 UNK         0.0600 
    167 H167        5.2753  -15.9511  -39.5197 H         1 UNK         0.0600 
    168 H168        4.5505  -14.6570  -40.4664 H         1 UNK         0.0600 
    169 H169        2.0670  -14.6366  -40.4181 H         1 UNK         0.3000 
    170 H170       -1.1083  -15.8505  -41.4865 H         1 UNK         0.0600 
    171 H171       -1.3115  -15.6187  -39.0030 H         1 UNK         0.0600 
    172 H172       -0.3316  -14.1580  -39.0518 H         1 UNK         0.0600 
    173 H173       -1.9110  -14.1947  -39.8370 H         1 UNK         0.0600 
    174 H174       -0.2238  -13.2121  -41.3869 H         1 UNK         0.3000 
    175 H175        0.0566  -12.1161  -43.3116 H         1 UNK         0.0600 
    176 H176        2.8919  -13.0928  -43.9797 H         1 UNK         0.0600 
    177 H177        2.3399  -11.4179  -44.0144 H         1 UNK         0.0600 
    178 H178        2.4230  -12.2835  -42.4894 H         1 UNK         0.0600 
    179 H179        1.2227  -12.7916  -45.7871 H         1 UNK         0.3000 
    180 H180       -0.3323  -12.5198  -47.6590 H         1 UNK         0.0600 
    181 H181        1.0880  -14.5609  -47.4191 H         1 UNK         0.0600 
    182 H182        0.0154  -14.7468  -48.7948 H         1 UNK         0.0600 
    183 H183       -0.3408  -15.5726  -47.2766 H         1 UNK         0.0600 
    184 H184       -2.3814  -14.4714  -48.1077 H         1 UNK         0.3000 
    185 H185       -5.2336  -12.7398  -47.4384 H         1 UNK         0.0600 
    186 H186       -4.8501  -11.3403  -49.4454 H         1 UNK         0.0600 
    187 H187       -4.1334  -12.6971  -50.3026 H         1 UNK         0.0600 
    188 H188       -5.8442  -12.7242  -49.8711 H         1 UNK         0.0600 
    189 H189       -4.5763  -14.9071  -49.2573 H         1 UNK         0.3000 
    190 H190        1.7976  -23.1920  -43.6099 H         1 UNK         0.3000 
    191 H191        0.2576  -24.4644  -42.7200 H         1 UNK         0.0600 
    192 H192        0.1463  -26.8796  -43.0766 H         1 UNK         0.0600 
    193 H193        1.8321  -26.3904  -43.0296 H         1 UNK         0.0600 
    194 H194        1.0607  -26.7650  -44.5714 H         1 UNK         0.0600 
    195 H195       -0.4000  -22.6598  -44.6250 H         1 UNK         0.3000 
    196 H196       -2.0468  -21.7461  -45.7066 H         1 UNK         0.0600 
    197 H197       -3.4570  -22.6917  -43.8649 H         1 UNK         0.0600 
    198 H198       -4.3634  -22.5135  -45.3563 H         1 UNK         0.0600 
    199 H199       -3.8108  -24.1050  -44.8582 H         1 UNK         0.0600 
    200 H200       -3.4662  -21.6852  -47.5700 H         1 UNK         0.3000 
    201 H201       -2.3494  -23.0820  -49.8082 H         1 UNK         0.0600 
    202 H202       -3.8385  -21.6441  -51.1046 H         1 UNK         0.0600 
    203 H203       -3.1428  -20.6855  -49.8232 H         1 UNK         0.0600 
    204 H204       -4.8043  -21.2508  -49.6833 H         1 UNK         0.0600 
    205 H205       -5.0220  -23.7807  -47.7421 H         1 UNK         0.3000 
    206 H206       -6.6122  -25.3151  -47.6146 H         1 UNK         0.0600 
    207 H207       -4.7505  -26.9077  -47.7672 H         1 UNK         0.0600 
    208 H208       -6.1516  -27.5778  -48.5825 H         1 UNK         0.0600 
    209 H209       -4.8161  -26.9162  -49.5226 H         1 UNK         0.0600 
    210 H210       -6.3454  -26.6192  -50.8155 H         1 UNK         0.3000 
    211 H211       -9.0221  -25.7416  -51.5394 H         1 UNK         0.0600 
    212 H212       -6.9161  -27.3519  -53.0800 H         1 UNK         0.0600 
    213 H213       -8.5991  -27.1512  -53.5520 H         1 UNK         0.0600 
    214 H214       -8.2049  -28.0251  -52.0807 H         1 UNK         0.0600 
    215 H215       -5.8087  -24.4930  -52.0560 H         1 UNK         0.3000 
    216 H216       -6.5750  -22.8669  -54.4171 H         1 UNK         0.0600 
    217 H217       -3.8798  -23.1367  -52.9787 H         1 UNK         0.0600 
    218 H218       -4.1726  -22.3514  -54.5248 H         1 UNK         0.0600 
    219 H219       -4.3642  -24.0851  -54.3789 H         1 UNK         0.0600 
    220 H220       -5.0692  -20.6137  -53.9558 H         1 UNK         0.3000 
    221 H221       -5.7333  -19.3630  -51.4290 H         1 UNK         0.0600 
    222 H222       -7.8336  -18.9470  -52.7687 H         1 UNK         0.0600 
    223 H223       -6.9375  -17.4538  -52.5608 H         1 UNK         0.0600 
    224 H224       -6.8691  -18.3073  -54.0979 H         1 UNK         0.0600 
    225 H225       -4.7599  -17.0879  -51.4937 H         1 UNK         0.3000 
    226 H226       -2.0341  -17.1868  -52.1881 H         1 UNK         0.0600 
    227 H227       -2.0732  -14.7380  -51.5723 H         1 UNK         0.0600 
    228 H228       -2.8664  -15.7599  -50.3888 H         1 UNK         0.0600 
    229 H229       -3.8323  -14.8060  -51.5204 H         1 UNK         0.0600 
    230 H230       -4.7036  -16.1848  -54.1944 H         1 UNK         0.3000 
    231 H231       -3.3220  -14.7324  -56.2056 H         1 UNK         0.0600 
    232 H232       -5.3178  -15.3377  -57.5919 H         1 UNK         0.0600 
    233 H233       -5.7962  -14.7832  -55.9961 H         1 UNK         0.0600 
    234 H234       -5.8197  -16.5062  -56.3756 H         1 UNK         0.0600 
    235 H235       -3.2365  -18.1585  -55.4464 H         1 UNK         0.3000 
    236 H236       -2.3246  -19.0154  -58.0871 H         1 UNK         0.0600 
    237 H237       -2.3739  -20.5353  -55.4302 H         1 UNK         0.0600 
    238 H238       -3.7256  -20.4669  -56.5635 H         1 UNK         0.0600 
    239 H239       -2.2116  -21.2199  -57.0384 H         1 UNK         0.0600 
    240 H240       -0.7686  -17.4446  -55.4304 H         1 UNK         0.3000 
    241 H241        1.8657  -18.2449  -56.4908 H         1 UNK         0.0600 
    242 H242       -0.0383  -15.5854  -55.1024 H         1 UNK         0.3800 
    243 H243        1.2853  -14.4672  -55.3017 H         1 UNK         0.3800 
    244 H244        2.8370  -18.6802  -54.3090 H         1 UNK         0.0800 
    245 H245        1.5584  -19.7951  -54.6488 H         1 UNK         0.0800 
    246 H246       -1.1602  -19.3797  -52.8368 H         1 UNK         0.0800 
    247 H247        0.1130  -20.5377  -53.1027 H         1 UNK         0.0800 
@<TRIPOS>BOND
     1    1    2 1    
     2    1  127 1    
     3    1  128 1    
     4    1  129 1    
     5    2    3 2    
     6    2    4 am   BACKBONE|DICT|INTERRES
     7    4    5 1    
     8    4  130 1    
     9    5    6 1    
    10    5   65 1    
    11    5  131 1    
    12    6    7 1    
    13    6  132 1    
    14    6  133 1    
    15    7    8 1    
    16    8    9 1    
    17    8  134 1    
    18    8  135 1    
    19    9   10 ar   
    20    9   14 ar   
    21   10   11 ar   
    22   10  136 1    
    23   11   12 ar   
    24   11  126 1    
    25   12   13 ar   
    26   12  137 1    
    27   13   14 ar   
    28   13   15 1    
    29   14  138 1    
    30   15   16 1    
    31   15  139 1    
    32   15  140 1    
    33   16   17 1    
    34   17   18 1    
    35   17  141 1    
    36   17  142 1    
    37   18   19 1    
    38   18   67 1    
    39   18  143 1    
    40   19   20 am   BACKBONE|DICT|INTERRES
    41   19  144 1    
    42   20   21 2    
    43   20   22 1    
    44   22   23 1    
    45   22   24 1    
    46   22  145 1    
    47   23  146 1    
    48   23  147 1    
    49   23  148 1    
    50   24   25 am   BACKBONE|DICT|INTERRES
    51   24  149 1    
    52   25   26 2    
    53   25   27 1    
    54   27   28 1    
    55   27   29 1    
    56   27  150 1    
    57   28  151 1    
    58   28  152 1    
    59   28  153 1    
    60   29   30 am   BACKBONE|DICT|INTERRES
    61   29  154 1    
    62   30   31 2    
    63   30   32 1    
    64   32   33 1    
    65   32   34 1    
    66   32  155 1    
    67   33  156 1    
    68   33  157 1    
    69   33  158 1    
    70   34   35 am   BACKBONE|DICT|INTERRES
    71   34  159 1    
    72   35   36 2    
    73   35   37 1    
    74   37   38 1    
    75   37   39 1    
    76   37  160 1    
    77   38  161 1    
    78   38  162 1    
    79   38  163 1    
    80   39   40 am   BACKBONE|DICT|INTERRES
    81   39  164 1    
    82   40   41 2    
    83   40   42 1    
    84   42   43 1    
    85   42   44 1    
    86   42  165 1    
    87   43  166 1    
    88   43  167 1    
    89   43  168 1    
    90   44   45 am   BACKBONE|DICT|INTERRES
    91   44  169 1    
    92   45   46 2    
    93   45   47 1    
    94   47   48 1    
    95   47   49 1    
    96   47  170 1    
    97   48  171 1    
    98   48  172 1    
    99   48  173 1    
   100   49   50 am   BACKBONE|DICT|INTERRES
   101   49  174 1    
   102   50   51 2    
   103   50   52 1    
   104   52   53 1    
   105   52   54 1    
   106   52  175 1    
   107   53  176 1    
   108   53  177 1    
   109   53  178 1    
   110   54   55 am   BACKBONE|DICT|INTERRES
   111   54  179 1    
   112   55   56 2    
   113   55   57 1    
   114   57   58 1    
   115   57   59 1    
   116   57  180 1    
   117   58  181 1    
   118   58  182 1    
   119   58  183 1    
   120   59   60 am   BACKBONE|DICT|INTERRES
   121   59  184 1    
   122   60   61 2    
   123   60   62 1    
   124   62   63 1    
   125   62   64 1    
   126   62  185 1    
   127   63  186 1    
   128   63  187 1    
   129   63  188 1    
   130   64   65 am   BACKBONE|DICT|INTERRES
   131   64  189 1    
   132   65   66 2    
   133   67   68 2    
   134   67   69 am   BACKBONE|DICT|INTERRES
   135   69   70 1    
   136   69  190 1    
   137   70   71 1    
   138   70   72 1    
   139   70  191 1    
   140   71  192 1    
   141   71  193 1    
   142   71  194 1    
   143   72   73 2    
   144   72   74 am   BACKBONE|DICT|INTERRES
   145   74   75 1    
   146   74  195 1    
   147   75   76 1    
   148   75   77 1    
   149   75  196 1    
   150   76  197 1    
   151   76  198 1    
   152   76  199 1    
   153   77   78 2    
   154   77   79 am   BACKBONE|DICT|INTERRES
   155   79   80 1    
   156   79  200 1    
   157   80   81 1    
   158   80   82 1    
   159   80  201 1    
   160   81  202 1    
   161   81  203 1    
   162   81  204 1    
   163   82   83 2    
   164   82   84 am   BACKBONE|DICT|INTERRES
   165   84   85 1    
   166   84  205 1    
   167   85   86 1    
   168   85   87 1    
   169   85  206 1    
   170   86  207 1    
   171   86  208 1    
   172   86  209 1    
   173   87   88 2    
   174   87   89 am   BACKBONE|DICT|INTERRES
   175   89   90 1    
   176   89  210 1    
   177   90   91 1    
   178   90   92 1    
   179   90  211 1    
   180   91  212 1    
   181   91  213 1    
   182   91  214 1    
   183   92   93 2    
   184   92   94 am   BACKBONE|DICT|INTERRES
   185   94   95 1    
   186   94  215 1    
   187   95   96 1    
   188   95   97 1    
   189   95  216 1    
   190   96  217 1    
   191   96  218 1    
   192   96  219 1    
   193   97   98 2    
   194   97   99 am   BACKBONE|DICT|INTERRES
   195   99  100 1    
   196   99  220 1    
   197  100  101 1    
   198  100  102 1    
   199  100  221 1    
   200  101  222 1    
   201  101  223 1    
   202  101  224 1    
   203  102  103 2    
   204  102  104 am   BACKBONE|DICT|INTERRES
   205  104  105 1    
   206  104  225 1    
   207  105  106 1    
   208  105  107 1    
   209  105  226 1    
   210  106  227 1    
   211  106  228 1    
   212  106  229 1    
   213  107  108 2    
   214  107  109 am   BACKBONE|DICT|INTERRES
   215  109  110 1    
   216  109  230 1    
   217  110  111 1    
   218  110  112 1    
   219  110  231 1    
   220  111  232 1    
   221  111  233 1    
   222  111  234 1    
   223  112  113 2    
   224  112  114 am   BACKBONE|DICT|INTERRES
   225  114  115 1    
   226  114  235 1    
   227  115  116 1    
   228  115  117 1    
   229  115  236 1    
   230  116  237 1    
   231  116  238 1    
   232  116  239 1    
   233  117  118 2    
   234  117  119 am   BACKBONE|DICT|INTERRES
   235  119  120 1    
   236  119  240 1    
   237  120  121 1    
   238  120  124 1    
   239  120  241 1    
   240  121  122 am   BACKBONE|DICT|INTERRES
   241  121  123 2    
   242  122  242 1    
   243  122  243 1    
   244  124  125 1    
   245  124  244 1    
   246  124  245 1    
   247  125  126 1    
   248  126  246 1    
   249  126  247 1    
@<TRIPOS>SUBSTRUCTURE
     1 UNK         1 GROUP             0       ****    0 ROOT    
