@<TRIPOS>MOLECULE
3R540
247   249    1
SMALL
USER_CHARGES


@<TRIPOS>ATOM
      1 CA         -1.6008  -12.6789  -41.0351 C.3       0 UNK        -0.1800 
      2 C          -1.9140  -12.2285  -42.4548 C.2       0 UNK         0.5000 
      3 O          -2.0091  -11.0284  -42.7108 O.2       0 UNK        -0.5000 
      4 N          -2.0851  -13.1871  -43.3721 N.am      1 UNK        -0.5000 
      5 CA         -2.3163  -12.9536  -44.7993 C.3       1 UNK         0.1400 
      6 C6         -2.8725  -14.2095  -45.5141 C.3       23 UNK        -0.0398 
      7 S7         -4.4755  -14.7428  -44.8254 S.3       23 UNK        -0.2404 
      8 C8         -5.4207  -15.1343  -46.3308 C.3       23 UNK        -0.0205 
      9 C9         -5.0442  -16.4958  -46.8962 C.ar      23 UNK        -0.0193 
     10 C10        -4.1325  -16.6042  -47.9510 C.ar      23 UNK        -0.1150 
     11 C11        -3.8147  -17.8557  -48.4901 C.ar      23 UNK        -0.0193 
     12 C12        -4.3980  -19.0040  -47.9483 C.ar      23 UNK        -0.1150 
     13 C13        -5.3069  -18.9091  -46.8905 C.ar      23 UNK        -0.0193 
     14 C14        -5.6301  -17.6522  -46.3732 C.ar      23 UNK        -0.1150 
     15 C15        -5.9468  -20.1644  -46.3149 C.3       23 UNK        -0.0205 
     16 S16        -5.3459  -20.5762  -44.6398 S.3       23 UNK        -0.2404 
     17 C17        -3.5294  -20.5444  -44.8234 C.3       23 UNK        -0.0398 
     18 CA         -2.9742  -21.7067  -45.6814 C.3       11 UNK         0.1400 
     19 N          -1.7107  -21.3372  -46.3151 N.am      11 UNK        -0.5000 
     20 C          -1.2060  -21.9355  -47.4013 C.2       10 UNK         0.5000 
     21 O          -1.7995  -22.8242  -48.0111 O.2       10 UNK        -0.5000 
     22 CA          0.1749  -21.4692  -47.9032 C.3       10 UNK         0.1400 
     23 CB          0.0389  -20.6880  -49.2194 C.3       10 UNK        -0.1800 
     24 N           0.8772  -20.6341  -46.9265 N.am      10 UNK        -0.5000 
     25 C           1.6411  -21.1123  -45.9326 C.2       9 UNK         0.5000 
     26 O           1.9009  -22.3074  -45.7908 O.2       9 UNK        -0.5000 
     27 CA          2.2051  -20.0972  -44.9142 C.3       9 UNK         0.1400 
     28 CB          3.6526  -19.7261  -45.2703 C.3       9 UNK        -0.1800 
     29 N           1.4202  -18.8670  -44.8032 N.am      9 UNK        -0.5000 
     30 C           0.1475  -18.7910  -44.3899 C.2       8 UNK         0.5000 
     31 O          -0.4959  -19.7581  -43.9875 O.2       8 UNK        -0.5000 
     32 CA         -0.5445  -17.4191  -44.5028 C.3       8 UNK         0.1400 
     33 CB         -0.5663  -16.7150  -43.1391 C.3       8 UNK        -0.1800 
     34 N           0.0654  -16.5405  -45.5070 N.am      8 UNK        -0.5000 
     35 C           0.0958  -16.8013  -46.8231 C.2       7 UNK         0.5000 
     36 O          -0.3617  -17.8318  -47.3144 O.2       7 UNK        -0.5000 
     37 CA          0.7904  -15.7785  -47.7373 C.3       7 UNK         0.1400 
     38 CB         -0.2309  -14.8597  -48.4243 C.3       7 UNK        -0.1800 
     39 N           1.7751  -14.9733  -47.0120 N.am      7 UNK        -0.5000 
     40 C           3.0368  -15.3718  -46.7980 C.2       6 UNK         0.5000 
     41 O           3.4877  -16.4435  -47.2040 O.2       6 UNK        -0.5000 
     42 CA          3.9564  -14.4335  -45.9940 C.3       6 UNK         0.1400 
     43 CB          4.6955  -13.4768  -46.9410 C.3       6 UNK        -0.1800 
     44 N           3.2864  -13.6596  -44.9461 N.am      6 UNK        -0.5000 
     45 C           2.6593  -14.1904  -43.8847 C.2       5 UNK         0.5000 
     46 O           2.5101  -15.4034  -43.7306 O.2       5 UNK        -0.5000 
     47 CA          2.1189  -13.2071  -42.8205 C.3       5 UNK         0.1400 
     48 CB          1.9088  -13.8668  -41.4415 C.3       5 UNK        -0.1800 
     49 N           2.9247  -11.9879  -42.7025 N.am      5 UNK        -0.5000 
     50 C           4.2134  -11.8948  -42.3341 C.2       4 UNK         0.5000 
     51 O           4.8852  -12.8547  -41.9532 O.2       4 UNK        -0.5000 
     52 CA          4.8635  -10.4921  -42.4110 C.3       4 UNK         0.1400 
     53 CB          6.3726  -10.5600  -42.7278 C.3       4 UNK        -0.1800 
     54 N           4.1874   -9.5675  -43.3326 N.am      4 UNK        -0.5000 
     55 C           3.9966   -9.7415  -44.6478 C.2       3 UNK         0.5000 
     56 O           4.3958  -10.7187  -45.2833 O.2       3 UNK        -0.5000 
     57 CA          3.1652   -8.6637  -45.3648 C.3       3 UNK         0.1400 
     58 CB          4.0532   -7.8223  -46.2939 C.3       3 UNK        -0.1800 
     59 N           2.0729   -9.2516  -46.1431 N.am      3 UNK        -0.5000 
     60 C           1.0989  -10.0277  -45.6473 C.2       2 UNK         0.5000 
     61 O           0.9965  -10.3027  -44.4484 O.2       2 UNK        -0.5000 
     62 CA          0.0667  -10.5438  -46.6728 C.3       2 UNK         0.1400 
     63 CB          0.7319  -11.3632  -47.7997 C.3       2 UNK        -0.1800 
     64 N          -1.0450  -11.2810  -46.0580 N.am      2 UNK        -0.5000 
     65 C          -1.0076  -12.4804  -45.4613 C.2       1 UNK         0.5000 
     66 O          -0.0176  -13.2162  -45.4276 O.2       1 UNK        -0.5000 
     67 C          -2.8044  -23.0080  -44.8702 C.2       11 UNK         0.5000 
     68 O          -1.7408  -23.2335  -44.2881 O.2       11 UNK        -0.5000 
     69 N          -3.8580  -23.8383  -44.8578 N.am      12 UNK        -0.5000 
     70 CA         -3.9346  -25.1580  -44.2139 C.3       12 UNK         0.1400 
     71 CB         -3.8273  -25.0331  -42.6792 C.3       12 UNK        -0.1800 
     72 C          -2.9552  -26.1993  -44.8051 C.2       12 UNK         0.5000 
     73 O          -2.5697  -27.1461  -44.1161 O.2       12 UNK        -0.5000 
     74 N          -2.5836  -26.0146  -46.0788 N.am      13 UNK        -0.5000 
     75 CA         -1.7749  -26.9413  -46.8685 C.3       13 UNK         0.1400 
     76 CB         -1.1753  -26.1654  -48.0544 C.3       13 UNK        -0.1800 
     77 C          -2.5931  -28.1605  -47.3460 C.2       13 UNK         0.5000 
     78 O          -3.8086  -28.2214  -47.1423 O.2       13 UNK        -0.5000 
     79 N          -1.9065  -29.1113  -47.9953 N.am      14 UNK        -0.5000 
     80 CA         -2.4824  -30.3438  -48.5491 C.3       14 UNK         0.1400 
     81 CB         -1.3372  -31.2726  -48.9822 C.3       14 UNK        -0.1800 
     82 C          -3.4647  -30.1193  -49.7198 C.2       14 UNK         0.5000 
     83 O          -4.2719  -31.0036  -50.0094 O.2       14 UNK        -0.5000 
     84 N          -3.3858  -28.9472  -50.3574 N.am      15 UNK        -0.5000 
     85 CA         -4.3278  -28.4441  -51.3499 C.3       15 UNK         0.1400 
     86 CB         -3.6186  -28.3457  -52.7097 C.3       15 UNK        -0.1800 
     87 C          -4.8096  -27.0626  -50.8850 C.2       15 UNK         0.5000 
     88 O          -4.0847  -26.3834  -50.1519 O.2       15 UNK        -0.5000 
     89 N          -6.0073  -26.6633  -51.3334 N.am      16 UNK        -0.5000 
     90 CA         -6.6725  -25.4007  -50.9969 C.3       16 UNK         0.1400 
     91 CB         -8.0229  -25.3341  -51.7276 C.3       16 UNK        -0.1800 
     92 C          -5.8024  -24.1772  -51.3365 C.2       16 UNK         0.5000 
     93 O          -5.5500  -23.9207  -52.5159 O.2       16 UNK        -0.5000 
     94 N          -5.3030  -23.4980  -50.2934 N.am      17 UNK        -0.5000 
     95 CA         -4.3478  -22.3834  -50.3492 C.3       17 UNK         0.1400 
     96 CB         -5.0387  -21.1158  -50.8933 C.3       17 UNK        -0.1800 
     97 C          -3.0444  -22.7404  -51.1008 C.2       17 UNK         0.5000 
     98 O          -2.5059  -21.9080  -51.8318 O.2       17 UNK        -0.5000 
     99 N          -2.6002  -23.9978  -50.9427 N.am      18 UNK        -0.5000 
    100 CA        -1.4729  -24.6394  -51.6261 C.3       18 UNK         0.1400 
    101 CB        -0.1325  -24.0210  -51.1825 C.3       18 UNK        -0.1800 
    102 C         -1.6659  -24.6752  -53.1569 C.2       18 UNK         0.5000 
    103 O         -0.7249  -24.4213  -53.9093 O.2       18 UNK        -0.5000 
    104 N         -2.9057  -24.9803  -53.5703 N.am      19 UNK        -0.5000 
    105 CA        -3.4285  -24.9540  -54.9391 C.3       19 UNK         0.1400 
    106 CB        -2.6816  -25.9456  -55.8563 C.3       19 UNK        -0.1800 
    107 C         -3.4843  -23.5143  -55.4875 C.2       19 UNK         0.5000 
    108 O         -3.0152  -23.2491  -56.5959 O.2       19 UNK        -0.5000 
    109 N         -4.0638  -22.6173  -54.6747 N.am      20 UNK        -0.5000 
    110 CA        -4.2460  -21.1813  -54.9090 C.3       20 UNK         0.1400 
    111 CB        -5.3026  -20.9472  -56.0080 C.3       20 UNK        -0.1800 
    112 C         -2.9222  -20.4335  -55.1732 C.2       20 UNK         0.5000 
    113 O         -2.8445  -19.6168  -56.0937 O.2       20 UNK        -0.5000 
    114 N         -1.9016  -20.7133  -54.3503 N.am      21 UNK        -0.5000 
    115 CA        -0.5518  -20.1514  -54.4643 C.3       21 UNK         0.1400 
    116 CB         0.3726  -20.8387  -53.4497 C.3       21 UNK        -0.1800 
    117 C         -0.5018  -18.6226  -54.2853 C.2       21 UNK         0.5000 
    118 O          0.3355  -17.9653  -54.9048 O.2       21 UNK        -0.5000 
    119 N         -1.4149  -18.0899  -53.4657 N.am      22 UNK        -0.5000 
    120 CA        -1.6495  -16.6514  -53.2792 C.3       22 UNK         0.1400 
    121 C         -2.6315  -16.0184  -54.3121 C.2       22 UNK         0.5000 
    122 N         -3.1405  -16.7484  -55.2987 N.am      22 UNK        -0.7600 
    123 O         -2.9225  -14.8279  -54.2336 O.2       22 UNK        -0.5000 
    124 C124       -2.0193  -16.3204  -51.8102 C.3       23 UNK        -0.0398 
    125 S125       -3.4841  -17.2149  -51.1713 S.3       23 UNK        -0.2404 
    126 C126       -2.8301  -17.9667  -49.6447 C.3       23 UNK        -0.0205 
    127 H127       -2.4389  -12.4523  -40.3763 H         1 UNK         0.0600 
    128 H128       -0.7216  -12.1544  -40.6613 H         1 UNK         0.0600 
    129 H129       -1.4042  -13.7501  -40.9834 H         1 UNK         0.0600 
    130 H130       -2.0167  -14.1546  -43.0967 H         1 UNK         0.3000 
    131 H131       -3.0622  -12.1611  -44.8948 H         1 UNK         0.0600 
    132 H132       -2.1786  -15.0452  -45.4386 H         1 UNK         0.0800 
    133 H133       -2.9919  -14.0084  -46.5796 H         1 UNK         0.0800 
    134 H134       -6.4835  -15.1295  -46.0840 H         1 UNK         0.0800 
    135 H135       -5.2845  -14.3509  -47.0779 H         1 UNK         0.0800 
    136 H136       -3.6789  -15.7152  -48.3659 H         1 UNK         0.1150 
    137 H137       -4.1417  -19.9731  -48.3492 H         1 UNK         0.1150 
    138 H138       -6.3343  -17.5753  -45.5565 H         1 UNK         0.1150 
    139 H139       -7.0273  -20.0214  -46.2698 H         1 UNK         0.0800 
    140 H140       -5.7892  -21.0158  -46.9779 H         1 UNK         0.0800 
    141 H141       -3.2559  -19.5830  -45.2599 H         1 UNK         0.0800 
    142 H142       -3.0799  -20.5407  -43.8287 H         1 UNK         0.0800 
    143 H143       -3.6797  -21.9054  -46.4897 H         1 UNK         0.0600 
    144 H144       -1.1305  -20.6881  -45.7992 H         1 UNK         0.3000 
    145 H145        0.7623  -22.3668  -48.1075 H         1 UNK         0.0600 
    146 H146        1.0157  -20.4640  -49.6478 H         1 UNK         0.0600 
    147 H147       -0.4866  -19.7460  -49.0757 H         1 UNK         0.0600 
    148 H148       -0.5184  -21.2592  -49.9613 H         1 UNK         0.0600 
    149 H149        0.6860  -19.6391  -46.9714 H         1 UNK         0.3000 
    150 H150        2.2043  -20.5814  -43.9355 H         1 UNK         0.0600 
    151 H151        3.7105  -19.2152  -46.2325 H         1 UNK         0.0600 
    152 H152        4.0895  -19.0708  -44.5164 H         1 UNK         0.0600 
    153 H153        4.2814  -20.6153  -45.3314 H         1 UNK         0.0600 
    154 H154        1.8684  -18.0147  -45.1088 H         1 UNK         0.3000 
    155 H155       -1.5776  -17.5960  -44.8100 H         1 UNK         0.0600 
    156 H156       -1.1653  -17.2789  -42.4231 H         1 UNK         0.0600 
    157 H157       -0.9962  -15.7184  -43.2107 H         1 UNK         0.0600 
    158 H158        0.4348  -16.6216  -42.7194 H         1 UNK         0.0600 
    159 H159        0.5096  -15.6965  -45.1704 H         1 UNK         0.3000 
    160 H160        1.2963  -16.3424  -48.5241 H         1 UNK         0.0600 
    161 H161       -0.7881  -14.2593  -47.7099 H         1 UNK         0.0600 
    162 H162       -0.9587  -15.4348  -48.9937 H         1 UNK         0.0600 
    163 H163        0.2605  -14.1825  -49.1225 H         1 UNK         0.0600 
    164 H164        1.4391  -14.1191  -46.5793 H         1 UNK         0.3000 
    165 H165        4.7025  -15.0619  -45.5034 H         1 UNK         0.0600 
    166 H166        5.4727  -12.9245  -46.4128 H         1 UNK         0.0600 
    167 H167        5.1827  -14.0212  -47.7511 H         1 UNK         0.0600 
    168 H168        4.0155  -12.7528  -47.3919 H         1 UNK         0.0600 
    169 H169        3.3986  -12.6536  -44.9916 H         1 UNK         0.3000 
    170 H170        1.1408  -12.8795  -43.1696 H         1 UNK         0.0600 
    171 H171        1.1472  -14.6447  -41.4938 H         1 UNK         0.0600 
    172 H172        2.8227  -14.3304  -41.0695 H         1 UNK         0.0600 
    173 H173        1.5771  -13.1397  -40.7009 H         1 UNK         0.0600 
    174 H174        2.4651  -11.1480  -43.0358 H         1 UNK         0.3000 
    175 H175        4.7563  -10.0599  -41.4152 H         1 UNK         0.0600 
    176 H176        6.5642  -11.0537  -43.6811 H         1 UNK         0.0600 
    177 H177        6.8119   -9.5635  -42.7717 H         1 UNK         0.0600 
    178 H178        6.9111  -11.1154  -41.9590 H         1 UNK         0.0600 
    179 H179        3.7948   -8.7427  -42.8995 H         1 UNK         0.3000 
    180 H180        2.7208   -8.0008  -44.6196 H         1 UNK         0.0600 
    181 H181        4.5000   -8.4300  -47.0821 H         1 UNK         0.0600 
    182 H182        4.8677   -7.3560  -45.7380 H         1 UNK         0.0600 
    183 H183        3.4842   -7.0221  -46.7676 H         1 UNK         0.0600 
    184 H184        2.0998   -9.0828  -47.1377 H         1 UNK         0.3000 
    185 H185       -0.3853   -9.6610  -47.1275 H         1 UNK         0.0600 
    186 H186        1.3882  -10.7397  -48.4071 H         1 UNK         0.0600 
    187 H187        1.3391  -12.1786  -47.4085 H         1 UNK         0.0600 
    188 H188       -0.0143  -11.7869  -48.4712 H         1 UNK         0.0600 
    189 H189       -1.9038  -10.7538  -45.9872 H         1 UNK         0.3000 
    190 H190       -4.6945  -23.5554  -45.3492 H         1 UNK         0.3000 
    191 H191       -4.9325  -25.5387  -44.4361 H         1 UNK         0.0600 
    192 H192       -4.0535  -25.9826  -42.1927 H         1 UNK         0.0600 
    193 H193       -4.5324  -24.2971  -42.2930 H         1 UNK         0.0600 
    194 H194       -2.8264  -24.7373  -42.3641 H         1 UNK         0.0600 
    195 H195       -2.9562  -25.2183  -46.5738 H         1 UNK         0.3000 
    196 H196       -0.9566  -27.3109  -46.2471 H         1 UNK         0.0600 
    197 H197       -1.9528  -25.7392  -48.6874 H         1 UNK         0.0600 
    198 H198       -0.5490  -25.3436  -47.7061 H         1 UNK         0.0600 
    199 H199       -0.5485  -26.7996  -48.6816 H         1 UNK         0.0600 
    200 H200       -0.9115  -28.9928  -48.1211 H         1 UNK         0.3000 
    201 H201       -3.0401  -30.8393  -47.7516 H         1 UNK         0.0600 
    202 H202       -1.7234  -32.2167  -49.3690 H         1 UNK         0.0600 
    203 H203       -0.6830  -31.5115  -48.1435 H         1 UNK         0.0600 
    204 H204       -0.7287  -30.8212  -49.7669 H         1 UNK         0.0600 
    205 H205       -2.7545  -28.2500  -49.9884 H         1 UNK         0.3000 
    206 H206       -5.1939  -29.1034  -51.4365 H         1 UNK         0.0600 
    207 H207       -3.3059  -29.3299  -53.0587 H         1 UNK         0.0600 
    208 H208       -4.2779  -27.9258  -53.4704 H         1 UNK         0.0600 
    209 H209       -2.7302  -27.7158  -52.6571 H         1 UNK         0.0600 
    210 H210       -6.5174  -27.2738  -51.9550 H         1 UNK         0.3000 
    211 H211       -6.8696  -25.4063  -49.9230 H         1 UNK         0.0600 
    212 H212       -7.8986  -25.3794  -52.8104 H         1 UNK         0.0600 
    213 H213       -8.5463  -24.4055  -51.4964 H         1 UNK         0.0600 
    214 H214       -8.6744  -26.1559  -51.4299 H         1 UNK         0.0600 
    215 H215       -5.5334  -23.8234  -49.3653 H         1 UNK         0.3000 
    216 H216       -4.0490  -22.1791  -49.3211 H         1 UNK         0.0600 
    217 H217       -5.8633  -20.8142  -50.2476 H         1 UNK         0.0600 
    218 H218       -5.4432  -21.2715  -51.8920 H         1 UNK         0.0600 
    219 H219       -4.3490  -20.2738  -50.9465 H         1 UNK         0.0600 
    220 H220       -3.1485  -24.6195  -50.3566 H         1 UNK         0.3000 
    221 H221       -1.4733  -25.6801  -51.2992 H         1 UNK         0.0600 
    222 H222        0.7102  -24.5805  -51.5895 H         1 UNK         0.0600 
    223 H223       -0.0324  -22.9905  -51.5175 H         1 UNK         0.0600 
    224 H224       -0.0362  -24.0305  -50.0969 H         1 UNK         0.0600 
    225 H225       -3.6125  -25.0875  -52.8555 H         1 UNK         0.3000 
    226 H226       -4.4634  -25.2935  -54.8730 H         1 UNK         0.0600 
    227 H227       -2.6630  -26.9459  -55.4240 H         1 UNK         0.0600 
    228 H228       -3.1740  -26.0201  -56.8263 H         1 UNK         0.0600 
    229 H229       -1.6515  -25.6397  -56.0398 H         1 UNK         0.0600 
    230 H230       -4.4447  -22.9665  -53.7995 H         1 UNK         0.3000 
    231 H231       -4.6417  -20.7645  -53.9835 H         1 UNK         0.0600 
    232 H232       -5.5316  -19.8859  -56.1113 H         1 UNK         0.0600 
    233 H233       -6.2362  -21.4575  -55.7711 H         1 UNK         0.0600 
    234 H234       -4.9618  -21.3050  -56.9801 H         1 UNK         0.0600 
    235 H235       -2.0658  -21.3411  -53.5660 H         1 UNK         0.3000 
    236 H236       -0.1845  -20.3765  -55.4675 H         1 UNK         0.0600 
    237 H237        0.4261  -21.9113  -53.6339 H         1 UNK         0.0600 
    238 H238        1.3886  -20.4478  -53.5155 H         1 UNK         0.0600 
    239 H239        0.0268  -20.6871  -52.4266 H         1 UNK         0.0600 
    240 H240       -2.0690  -18.7064  -53.0057 H         1 UNK         0.3000 
    241 H241       -0.7049  -16.1376  -53.4671 H         1 UNK         0.0600 
    242 H242       -2.8934  -17.7234  -55.4254 H         1 UNK         0.3800 
    243 H243       -3.7647  -16.3102  -55.9571 H         1 UNK         0.3800 
    244 H244       -2.1888  -15.2498  -51.6844 H         1 UNK         0.0800 
    245 H245       -1.1525  -16.5453  -51.1893 H         1 UNK         0.0800 
    246 H246       -1.9005  -17.4906  -49.3437 H         1 UNK         0.0800 
    247 H247       -2.5839  -19.0091  -49.8489 H         1 UNK         0.0800 
@<TRIPOS>BOND
     1    1    2 1    
     2    1  127 1    
     3    1  128 1    
     4    1  129 1    
     5    2    3 2    
     6    2    4 am   BACKBONE|DICT|INTERRES
     7    4    5 1    
     8    4  130 1    
     9    5    6 1    
    10    5   65 1    
    11    5  131 1    
    12    6    7 1    
    13    6  132 1    
    14    6  133 1    
    15    7    8 1    
    16    8    9 1    
    17    8  134 1    
    18    8  135 1    
    19    9   10 ar   
    20    9   14 ar   
    21   10   11 ar   
    22   10  136 1    
    23   11   12 ar   
    24   11  126 1    
    25   12   13 ar   
    26   12  137 1    
    27   13   14 ar   
    28   13   15 1    
    29   14  138 1    
    30   15   16 1    
    31   15  139 1    
    32   15  140 1    
    33   16   17 1    
    34   17   18 1    
    35   17  141 1    
    36   17  142 1    
    37   18   19 1    
    38   18   67 1    
    39   18  143 1    
    40   19   20 am   BACKBONE|DICT|INTERRES
    41   19  144 1    
    42   20   21 2    
    43   20   22 1    
    44   22   23 1    
    45   22   24 1    
    46   22  145 1    
    47   23  146 1    
    48   23  147 1    
    49   23  148 1    
    50   24   25 am   BACKBONE|DICT|INTERRES
    51   24  149 1    
    52   25   26 2    
    53   25   27 1    
    54   27   28 1    
    55   27   29 1    
    56   27  150 1    
    57   28  151 1    
    58   28  152 1    
    59   28  153 1    
    60   29   30 am   BACKBONE|DICT|INTERRES
    61   29  154 1    
    62   30   31 2    
    63   30   32 1    
    64   32   33 1    
    65   32   34 1    
    66   32  155 1    
    67   33  156 1    
    68   33  157 1    
    69   33  158 1    
    70   34   35 am   BACKBONE|DICT|INTERRES
    71   34  159 1    
    72   35   36 2    
    73   35   37 1    
    74   37   38 1    
    75   37   39 1    
    76   37  160 1    
    77   38  161 1    
    78   38  162 1    
    79   38  163 1    
    80   39   40 am   BACKBONE|DICT|INTERRES
    81   39  164 1    
    82   40   41 2    
    83   40   42 1    
    84   42   43 1    
    85   42   44 1    
    86   42  165 1    
    87   43  166 1    
    88   43  167 1    
    89   43  168 1    
    90   44   45 am   BACKBONE|DICT|INTERRES
    91   44  169 1    
    92   45   46 2    
    93   45   47 1    
    94   47   48 1    
    95   47   49 1    
    96   47  170 1    
    97   48  171 1    
    98   48  172 1    
    99   48  173 1    
   100   49   50 am   BACKBONE|DICT|INTERRES
   101   49  174 1    
   102   50   51 2    
   103   50   52 1    
   104   52   53 1    
   105   52   54 1    
   106   52  175 1    
   107   53  176 1    
   108   53  177 1    
   109   53  178 1    
   110   54   55 am   BACKBONE|DICT|INTERRES
   111   54  179 1    
   112   55   56 2    
   113   55   57 1    
   114   57   58 1    
   115   57   59 1    
   116   57  180 1    
   117   58  181 1    
   118   58  182 1    
   119   58  183 1    
   120   59   60 am   BACKBONE|DICT|INTERRES
   121   59  184 1    
   122   60   61 2    
   123   60   62 1    
   124   62   63 1    
   125   62   64 1    
   126   62  185 1    
   127   63  186 1    
   128   63  187 1    
   129   63  188 1    
   130   64   65 am   BACKBONE|DICT|INTERRES
   131   64  189 1    
   132   65   66 2    
   133   67   68 2    
   134   67   69 am   BACKBONE|DICT|INTERRES
   135   69   70 1    
   136   69  190 1    
   137   70   71 1    
   138   70   72 1    
   139   70  191 1    
   140   71  192 1    
   141   71  193 1    
   142   71  194 1    
   143   72   73 2    
   144   72   74 am   BACKBONE|DICT|INTERRES
   145   74   75 1    
   146   74  195 1    
   147   75   76 1    
   148   75   77 1    
   149   75  196 1    
   150   76  197 1    
   151   76  198 1    
   152   76  199 1    
   153   77   78 2    
   154   77   79 am   BACKBONE|DICT|INTERRES
   155   79   80 1    
   156   79  200 1    
   157   80   81 1    
   158   80   82 1    
   159   80  201 1    
   160   81  202 1    
   161   81  203 1    
   162   81  204 1    
   163   82   83 2    
   164   82   84 am   BACKBONE|DICT|INTERRES
   165   84   85 1    
   166   84  205 1    
   167   85   86 1    
   168   85   87 1    
   169   85  206 1    
   170   86  207 1    
   171   86  208 1    
   172   86  209 1    
   173   87   88 2    
   174   87   89 am   BACKBONE|DICT|INTERRES
   175   89   90 1    
   176   89  210 1    
   177   90   91 1    
   178   90   92 1    
   179   90  211 1    
   180   91  212 1    
   181   91  213 1    
   182   91  214 1    
   183   92   93 2    
   184   92   94 am   BACKBONE|DICT|INTERRES
   185   94   95 1    
   186   94  215 1    
   187   95   96 1    
   188   95   97 1    
   189   95  216 1    
   190   96  217 1    
   191   96  218 1    
   192   96  219 1    
   193   97   98 2    
   194   97   99 am   BACKBONE|DICT|INTERRES
   195   99  100 1    
   196   99  220 1    
   197  100  101 1    
   198  100  102 1    
   199  100  221 1    
   200  101  222 1    
   201  101  223 1    
   202  101  224 1    
   203  102  103 2    
   204  102  104 am   BACKBONE|DICT|INTERRES
   205  104  105 1    
   206  104  225 1    
   207  105  106 1    
   208  105  107 1    
   209  105  226 1    
   210  106  227 1    
   211  106  228 1    
   212  106  229 1    
   213  107  108 2    
   214  107  109 am   BACKBONE|DICT|INTERRES
   215  109  110 1    
   216  109  230 1    
   217  110  111 1    
   218  110  112 1    
   219  110  231 1    
   220  111  232 1    
   221  111  233 1    
   222  111  234 1    
   223  112  113 2    
   224  112  114 am   BACKBONE|DICT|INTERRES
   225  114  115 1    
   226  114  235 1    
   227  115  116 1    
   228  115  117 1    
   229  115  236 1    
   230  116  237 1    
   231  116  238 1    
   232  116  239 1    
   233  117  118 2    
   234  117  119 am   BACKBONE|DICT|INTERRES
   235  119  120 1    
   236  119  240 1    
   237  120  121 1    
   238  120  124 1    
   239  120  241 1    
   240  121  122 am   BACKBONE|DICT|INTERRES
   241  121  123 2    
   242  122  242 1    
   243  122  243 1    
   244  124  125 1    
   245  124  244 1    
   246  124  245 1    
   247  125  126 1    
   248  126  246 1    
   249  126  247 1    
@<TRIPOS>SUBSTRUCTURE
     1 UNK         1 GROUP             0       ****    0 ROOT    
