@<TRIPOS>MOLECULE
3R540
247   249    1
SMALL
USER_CHARGES


@<TRIPOS>ATOM
      1 CA          1.1931  -13.3343  -45.1637 C.3       0 UNK        -0.1800 
      2 C           0.5020  -14.5703  -45.7200 C.2       0 UNK         0.5000 
      3 O           0.1951  -15.4862  -44.9551 O.2       0 UNK        -0.5000 
      4 N           0.2779  -14.5963  -47.0403 N.am      1 UNK        -0.5000 
      5 CA         -0.4093  -15.6795  -47.7603 C.3       1 UNK         0.1400 
      6 C6          0.5254  -16.4221  -48.7548 C.3       23 UNK        -0.0398 
      7 S7          1.9858  -17.1515  -47.9462 S.3       23 UNK        -0.2404 
      8 C8          2.9953  -17.6536  -49.3712 C.3       23 UNK        -0.0205 
      9 C9          2.5274  -18.9758  -49.9593 C.ar      23 UNK        -0.0193 
     10 C10         1.7102  -18.9973  -51.0902 C.ar      23 UNK        -0.1150 
     11 C11         1.2983  -20.2072  -51.6550 C.ar      23 UNK        -0.0193 
     12 C12         1.7110  -21.4073  -51.0573 C.ar      23 UNK        -0.1150 
     13 C13         2.5441  -21.4095  -49.9321 C.ar      23 UNK        -0.0193 
     14 C14         2.9383  -20.1809  -49.3855 C.ar      23 UNK        -0.1150 
     15 C15         2.9867  -22.7586  -49.3526 C.3       23 UNK        -0.0205 
     16 S16         4.5186  -22.7307  -48.3528 S.3       23 UNK        -0.2404 
     17 C17         3.8777  -22.1904  -46.7309 C.3       23 UNK        -0.0398 
     18 CA          4.2264  -23.1232  -45.5432 C.3       11 UNK         0.1400 
     19 N           3.9997  -22.4108  -44.2811 N.am      11 UNK        -0.5000 
     20 C           4.4537  -22.7629  -43.0718 C.2       10 UNK         0.5000 
     21 O           5.2190  -23.7066  -42.8739 O.2       10 UNK        -0.5000 
     22 CA          3.9145  -21.9455  -41.8802 C.3       10 UNK         0.1400 
     23 CB          4.7571  -20.6809  -41.6569 C.3       10 UNK        -0.1800 
     24 N           2.5043  -21.5736  -42.0454 N.am      10 UNK        -0.5000 
     25 C           1.4855  -22.4468  -42.0388 C.2       9 UNK         0.5000 
     26 O           1.6252  -23.6543  -41.8482 O.2       9 UNK        -0.5000 
     27 CA          0.0816  -21.8943  -42.3445 C.3       9 UNK         0.1400 
     28 CB         -0.5518  -21.2900  -41.0827 C.3       9 UNK        -0.1800 
     29 N           0.0891  -20.8972  -43.4135 N.am      9 UNK        -0.5000 
     30 C           0.4049  -21.1422  -44.6926 C.2       8 UNK         0.5000 
     31 O           0.6655  -22.2634  -45.1280 O.2       8 UNK        -0.5000 
     32 CA          0.5103  -19.9208  -45.6256 C.3       8 UNK         0.1400 
     33 CB         -0.8651  -19.5180  -46.1774 C.3       8 UNK        -0.1800 
     34 N           1.1419  -18.7765  -44.9635 N.am      8 UNK        -0.5000 
     35 C           2.4179  -18.7617  -44.5499 C.2       7 UNK         0.5000 
     36 O           3.1982  -19.6950  -44.7284 O.2       7 UNK        -0.5000 
     37 CA          2.8916  -17.5386  -43.7493 C.3       7 UNK         0.1400 
     38 CB          3.5503  -16.4881  -44.6530 C.3       7 UNK        -0.1800 
     39 N           1.7987  -16.9386  -42.9848 N.am      7 UNK        -0.5000 
     40 C           1.3935  -17.4114  -41.7989 C.2       6 UNK         0.5000 
     41 O           1.9106  -18.3788  -41.2379 O.2       6 UNK        -0.5000 
     42 CA          0.1965  -16.7042  -41.1391 C.3       6 UNK         0.1400 
     43 CB          0.6416  -15.3919  -40.4755 C.3       6 UNK        -0.1800 
     44 N          -0.9139  -16.4263  -42.0516 N.am      6 UNK        -0.5000 
     45 C          -1.6122  -17.3479  -42.7306 C.2       5 UNK         0.5000 
     46 O          -1.3232  -18.5430  -42.7337 O.2       5 UNK        -0.5000 
     47 CA         -2.8478  -16.8731  -43.5203 C.3       5 UNK         0.1400 
     48 CB         -4.0817  -17.7289  -43.1863 C.3       5 UNK        -0.1800 
     49 N          -3.1605  -15.4666  -43.2479 N.am      5 UNK        -0.5000 
     50 C          -3.0756  -14.4896  -44.1550 C.2       4 UNK         0.5000 
     51 O          -2.8284  -14.6839  -45.3488 O.2       4 UNK        -0.5000 
     52 CA         -3.2795  -13.0516  -43.6467 C.3       4 UNK         0.1400 
     53 CB         -2.2918  -12.6873  -42.5207 C.3       4 UNK        -0.1800 
     54 N          -3.0709  -12.1759  -44.7881 N.am      4 UNK        -0.5000 
     55 C          -3.5487  -10.9463  -44.9872 C.2       3 UNK         0.5000 
     56 O          -4.1876  -10.3116  -44.1473 O.2       3 UNK        -0.5000 
     57 CA         -3.2651  -10.3273  -46.3733 C.3       3 UNK         0.1400 
     58 CB         -2.1294   -9.2966  -46.2761 C.3       3 UNK        -0.1800 
     59 N          -2.9112  -11.3252  -47.3934 N.am      3 UNK        -0.5000 
     60 C          -3.7769  -12.1950  -47.9375 C.2       2 UNK         0.5000 
     61 O          -4.9800  -12.2138  -47.6780 O.2       2 UNK        -0.5000 
     62 CA         -3.1942  -13.2395  -48.8993 C.3       2 UNK         0.1400 
     63 CB         -2.8633  -12.6183  -50.2674 C.3       2 UNK        -0.1800 
     64 N          -2.0075  -13.8734  -48.3221 N.am      2 UNK        -0.5000 
     65 C          -1.6676  -15.1587  -48.4903 C.2       1 UNK         0.5000 
     66 O          -2.2995  -15.9324  -49.2104 O.2       1 UNK        -0.5000 
     67 C           3.4653  -24.4732  -45.6079 C.2       11 UNK         0.5000 
     68 O           3.7987  -25.3180  -46.4393 O.2       11 UNK        -0.5000 
     69 N           2.4739  -24.6578  -44.7222 N.am      12 UNK        -0.5000 
     70 CA          1.5671  -25.8021  -44.6061 C.3       12 UNK         0.1400 
     71 CB          2.3331  -27.0881  -44.2313 C.3       12 UNK        -0.1800 
     72 C           0.6647  -25.9593  -45.8459 C.2       12 UNK         0.5000 
     73 O           0.4527  -27.0748  -46.3261 O.2       12 UNK        -0.5000 
     74 N           0.1515  -24.8266  -46.3449 N.am      13 UNK        -0.5000 
     75 CA         -0.7831  -24.7502  -47.4634 C.3       13 UNK         0.1400 
     76 CB         -0.9841  -23.2743  -47.8408 C.3       13 UNK        -0.1800 
     77 C          -2.1351  -25.3962  -47.1095 C.2       13 UNK         0.5000 
     78 O          -2.7504  -25.0156  -46.1105 O.2       13 UNK        -0.5000 
     79 N          -2.6018  -26.3258  -47.9518 N.am      14 UNK        -0.5000 
     80 CA         -3.8934  -27.0078  -47.8232 C.3       14 UNK         0.1400 
     81 CB         -3.8021  -28.3750  -48.5246 C.3       14 UNK        -0.1800 
     82 C          -5.0281  -26.1248  -48.3816 C.2       14 UNK         0.5000 
     83 O          -5.6421  -26.4674  -49.3927 O.2       14 UNK        -0.5000 
     84 N          -5.2175  -24.9573  -47.7485 N.am      15 UNK        -0.5000 
     85 CA         -6.0787  -23.8338  -48.1511 C.3       15 UNK         0.1400 
     86 CB         -7.5608  -24.2546  -48.2238 C.3       15 UNK        -0.1800 
     87 C          -5.6073  -23.1160  -49.4376 C.2       15 UNK         0.5000 
     88 O          -6.3225  -22.2599  -49.9611 O.2       15 UNK        -0.5000 
     89 N          -4.3981  -23.4463  -49.9091 N.am      16 UNK        -0.5000 
     90 CA         -3.7368  -22.8860  -51.0844 C.3       16 UNK         0.1400 
     91 CB         -2.7024  -23.9070  -51.5937 C.3       16 UNK        -0.1800 
     92 C          -3.1135  -21.5117  -50.7742 C.2       16 UNK         0.5000 
     93 O          -1.8941  -21.3588  -50.8156 O.2       16 UNK        -0.5000 
     94 N          -3.9659  -20.5373  -50.4422 N.am      17 UNK        -0.5000 
     95 CA         -3.5956  -19.1360  -50.2577 C.3       17 UNK         0.1400 
     96 CB         -4.7837  -18.4003  -49.6178 C.3       17 UNK        -0.1800 
     97 C          -3.2275  -18.4833  -51.6012 C.2       17 UNK         0.5000 
     98 O          -3.7517  -18.8839  -52.6429 O.2       17 UNK        -0.5000 
     99 N          -2.4005  -17.4334  -51.5609 N.am      18 UNK        -0.5000 
    100 CA        -2.0715  -16.6068  -52.7259 C.3       18 UNK         0.1400 
    101 CB        -0.8855  -15.6902  -52.3938 C.3       18 UNK        -0.1800 
    102 C         -3.2868  -15.7980  -53.2219 C.2       18 UNK         0.5000 
    103 O         -3.4094  -15.5582  -54.4226 O.2       18 UNK        -0.5000 
    104 N         -4.2088  -15.4743  -52.3017 N.am      19 UNK        -0.5000 
    105 CA        -5.5305  -14.9091  -52.5920 C.3       19 UNK         0.1400 
    106 CB        -6.1878  -14.4728  -51.2736 C.3       19 UNK        -0.1800 
    107 C         -6.4591  -15.8779  -53.3573 C.2       19 UNK         0.5000 
    108 O         -7.3787  -15.4222  -54.0368 O.2       19 UNK        -0.5000 
    109 N         -6.1886  -17.1863  -53.2536 N.am      20 UNK        -0.5000 
    110 CA        -6.8605  -18.2644  -53.9808 C.3       20 UNK         0.1400 
    111 CB        -7.1610  -19.4074  -52.9935 C.3       20 UNK        -0.1800 
    112 C         -6.0085  -18.7539  -55.1723 C.2       20 UNK         0.5000 
    113 O         -6.2330  -19.8609  -55.6660 O.2       20 UNK        -0.5000 
    114 N         -5.0196  -17.9455  -55.5907 N.am      21 UNK        -0.5000 
    115 CA        -4.0608  -18.1848  -56.6767 C.3       21 UNK         0.1400 
    116 CB        -4.7801  -18.1677  -58.0414 C.3       21 UNK        -0.1800 
    117 C         -3.1944  -19.4482  -56.4784 C.2       21 UNK         0.5000 
    118 O         -2.7136  -20.0223  -57.4570 O.2       21 UNK        -0.5000 
    119 N         -3.0145  -19.8628  -55.2170 N.am      22 UNK        -0.5000 
    120 CA        -2.3587  -21.1095  -54.8014 C.3       22 UNK         0.1400 
    121 C         -3.1481  -22.4038  -55.1739 C.2       22 UNK         0.5000 
    122 N         -4.4432  -22.3278  -55.4637 N.am      22 UNK        -0.7600 
    123 O         -2.5936  -23.4987  -55.1812 O.2       22 UNK        -0.5000 
    124 C124       -0.8502  -21.1447  -55.1896 C.3       23 UNK        -0.0398 
    125 S125        0.2149  -21.7140  -53.8235 S.3       23 UNK        -0.2404 
    126 C126        0.4069  -20.1492  -52.8979 C.3       23 UNK        -0.0205 
    127 H127        2.0493  -13.6253  -44.5552 H         1 UNK         0.0600 
    128 H128        0.5033  -12.7709  -44.5363 H         1 UNK         0.0600 
    129 H129        1.5489  -12.6764  -45.9567 H         1 UNK         0.0600 
    130 H130        0.6227  -13.8412  -47.6159 H         1 UNK         0.3000 
    131 H131       -0.7848  -16.4114  -47.0439 H         1 UNK         0.0600 
    132 H132       -0.0069  -17.2335  -49.2544 H         1 UNK         0.0800 
    133 H133        0.8631  -15.7423  -49.5388 H         1 UNK         0.0800 
    134 H134        2.9916  -16.8673  -50.1275 H         1 UNK         0.0800 
    135 H135        4.0316  -17.7519  -49.0445 H         1 UNK         0.0800 
    136 H136        1.3985  -18.0651  -51.5381 H         1 UNK         0.1150 
    137 H137        1.3916  -22.3541  -51.4668 H         1 UNK         0.1150 
    138 H138        3.5743  -20.1422  -48.5152 H         1 UNK         0.1150 
    139 H139        2.1751  -23.1884  -48.7655 H         1 UNK         0.0800 
    140 H140        3.1588  -23.4518  -50.1774 H         1 UNK         0.0800 
    141 H141        4.3171  -21.2083  -46.5531 H         1 UNK         0.0800 
    142 H142        2.8011  -22.0260  -46.7854 H         1 UNK         0.0800 
    143 H143        5.2921  -23.3551  -45.5955 H         1 UNK         0.0600 
    144 H144        3.4487  -21.5596  -44.3506 H         1 UNK         0.3000 
    145 H145        3.9948  -22.5676  -40.9863 H         1 UNK         0.0600 
    146 H146        4.3906  -20.1064  -40.8058 H         1 UNK         0.0600 
    147 H147        4.7483  -20.0290  -42.5300 H         1 UNK         0.0600 
    148 H148        5.7971  -20.9385  -41.4529 H         1 UNK         0.0600 
    149 H149        2.3025  -20.5928  -42.1865 H         1 UNK         0.3000 
    150 H150       -0.5409  -22.7300  -42.6713 H         1 UNK         0.0600 
    151 H151       -0.5746  -22.0159  -40.2691 H         1 UNK         0.0600 
    152 H152       -1.5797  -20.9786  -41.2699 H         1 UNK         0.0600 
    153 H153        0.0017  -20.4180  -40.7323 H         1 UNK         0.0600 
    154 H154       -0.1929  -19.9549  -43.1528 H         1 UNK         0.3000 
    155 H155        1.1380  -20.2049  -46.4729 H         1 UNK         0.0600 
    156 H156       -1.3529  -20.3609  -46.6666 H         1 UNK         0.0600 
    157 H157       -0.7712  -18.7303  -46.9233 H         1 UNK         0.0600 
    158 H158       -1.5322  -19.1655  -45.3913 H         1 UNK         0.0600 
    159 H159        0.5657  -17.9671  -44.7796 H         1 UNK         0.3000 
    160 H160        3.6594  -17.8835  -43.0535 H         1 UNK         0.0600 
    161 H161        2.8559  -16.0941  -45.3907 H         1 UNK         0.0600 
    162 H162        4.3917  -16.9181  -45.1977 H         1 UNK         0.0600 
    163 H163        3.9322  -15.6500  -44.0702 H         1 UNK         0.0600 
    164 H164        1.2655  -16.2039  -43.4399 H         1 UNK         0.3000 
    165 H165       -0.1820  -17.3674  -40.3584 H         1 UNK         0.0600 
    166 H166       -0.1734  -14.9388  -39.9108 H         1 UNK         0.0600 
    167 H167        1.4618  -15.5653  -39.7774 H         1 UNK         0.0600 
    168 H168        0.9850  -14.6641  -41.2120 H         1 UNK         0.0600 
    169 H169       -1.1799  -15.4599  -42.1560 H         1 UNK         0.3000 
    170 H170       -2.6100  -17.0222  -44.5754 H         1 UNK         0.0600 
    171 H171       -3.9076  -18.7802  -43.4198 H         1 UNK         0.0600 
    172 H172       -4.3417  -17.6648  -42.1291 H         1 UNK         0.0600 
    173 H173       -4.9484  -17.4100  -43.7654 H         1 UNK         0.0600 
    174 H174       -3.4005  -15.2387  -42.2932 H         1 UNK         0.3000 
    175 H175       -4.3076  -12.9513  -43.2935 H         1 UNK         0.0600 
    176 H176       -1.2576  -12.8548  -42.8228 H         1 UNK         0.0600 
    177 H177       -2.3883  -11.6399  -42.2343 H         1 UNK         0.0600 
    178 H178       -2.4745  -13.2795  -41.6238 H         1 UNK         0.0600 
    179 H179       -2.6395  -12.6558  -45.5670 H         1 UNK         0.3000 
    180 H180       -4.1717   -9.8099  -46.6943 H         1 UNK         0.0600 
    181 H181       -2.3687   -8.5190  -45.5494 H         1 UNK         0.0600 
    182 H182       -1.9608   -8.8029  -47.2334 H         1 UNK         0.0600 
    183 H183       -1.1917   -9.7587  -45.9648 H         1 UNK         0.0600 
    184 H184       -1.9518  -11.3208  -47.7054 H         1 UNK         0.3000 
    185 H185       -3.9694  -13.9955  -49.0415 H         1 UNK         0.0600 
    186 H186       -3.7141  -12.0627  -50.6636 H         1 UNK         0.0600 
    187 H187       -2.0208  -11.9290  -50.2054 H         1 UNK         0.0600 
    188 H188       -2.6145  -13.3852  -50.9984 H         1 UNK         0.0600 
    189 H189       -1.4836  -13.3358  -47.6502 H         1 UNK         0.3000 
    190 H190        2.2766  -23.8956  -44.0879 H         1 UNK         0.3000 
    191 H191        0.8969  -25.5712  -43.7771 H         1 UNK         0.0600 
    192 H192        1.6417  -27.9003  -44.0043 H         1 UNK         0.0600 
    193 H193        2.9520  -26.9330  -43.3474 H         1 UNK         0.0600 
    194 H194        2.9805  -27.4287  -45.0395 H         1 UNK         0.0600 
    195 H195        0.3645  -23.9480  -45.8776 H         1 UNK         0.3000 
    196 H196       -0.3404  -25.2708  -48.3150 H         1 UNK         0.0600 
    197 H197       -1.4296  -22.7117  -47.0201 H         1 UNK         0.0600 
    198 H198       -0.0430  -22.7915  -48.1013 H         1 UNK         0.0600 
    199 H199       -1.6471  -23.1751  -48.6981 H         1 UNK         0.0600 
    200 H200       -2.0438  -26.5850  -48.7528 H         1 UNK         0.3000 
    201 H201       -4.1053  -27.1899  -46.7673 H         1 UNK         0.0600 
    202 H202       -4.7418  -28.9221  -48.4378 H         1 UNK         0.0600 
    203 H203       -3.0248  -28.9948  -48.0773 H         1 UNK         0.0600 
    204 H204       -3.5779  -28.2716  -49.5870 H         1 UNK         0.0600 
    205 H205       -4.6193  -24.7781  -46.9474 H         1 UNK         0.3000 
    206 H206       -5.9902  -23.0951  -47.3534 H         1 UNK         0.0600 
    207 H207       -7.8735  -24.7592  -47.3097 H         1 UNK         0.0600 
    208 H208       -8.2068  -23.3851  -48.3499 H         1 UNK         0.0600 
    209 H209       -7.7547  -24.9244  -49.0618 H         1 UNK         0.0600 
    210 H210       -3.8837  -24.1495  -49.4031 H         1 UNK         0.3000 
    211 H211       -4.4758  -22.7375  -51.8748 H         1 UNK         0.0600 
    212 H212       -1.9603  -24.1525  -50.8342 H         1 UNK         0.0600 
    213 H213       -2.1622  -23.5204  -52.4582 H         1 UNK         0.0600 
    214 H214       -3.1850  -24.8343  -51.9028 H         1 UNK         0.0600 
    215 H215       -4.9534  -20.7637  -50.4087 H         1 UNK         0.3000 
    216 H216       -2.7348  -19.0807  -49.5876 H         1 UNK         0.0600 
    217 H217       -5.0436  -18.8388  -48.6541 H         1 UNK         0.0600 
    218 H218       -5.6706  -18.4379  -50.2519 H         1 UNK         0.0600 
    219 H219       -4.5525  -17.3498  -49.4406 H         1 UNK         0.0600 
    220 H220       -2.1194  -17.0675  -50.6544 H         1 UNK         0.3000 
    221 H221       -1.7670  -17.2704  -53.5385 H         1 UNK         0.0600 
    222 H222       -0.6313  -15.0564  -53.2443 H         1 UNK         0.0600 
    223 H223        0.0022  -16.2711  -52.1473 H         1 UNK         0.0600 
    224 H224       -1.0990  -15.0366  -51.5496 H         1 UNK         0.0600 
    225 H225       -4.0142  -15.7026  -51.3373 H         1 UNK         0.3000 
    226 H226       -5.3926  -14.0248  -53.2176 H         1 UNK         0.0600 
    227 H227       -5.6165  -13.6819  -50.7901 H         1 UNK         0.0600 
    228 H228       -7.1908  -14.0801  -51.4466 H         1 UNK         0.0600 
    229 H229       -6.2773  -15.3036  -50.5725 H         1 UNK         0.0600 
    230 H230       -5.3801  -17.4743  -52.7183 H         1 UNK         0.3000 
    231 H231       -7.8094  -17.9109  -54.3883 H         1 UNK         0.0600 
    232 H232       -7.7440  -20.1959  -53.4707 H         1 UNK         0.0600 
    233 H233       -7.7395  -19.0506  -52.1413 H         1 UNK         0.0600 
    234 H234       -6.2479  -19.8636  -52.6100 H         1 UNK         0.0600 
    235 H235       -4.8871  -17.0715  -55.0979 H         1 UNK         0.3000 
    236 H236       -3.3681  -17.3425  -56.6591 H         1 UNK         0.0600 
    237 H237       -5.4451  -19.0239  -58.1585 H         1 UNK         0.0600 
    238 H238       -5.3745  -17.2621  -58.1622 H         1 UNK         0.0600 
    239 H239       -4.0642  -18.1950  -58.8636 H         1 UNK         0.0600 
    240 H240       -3.4480  -19.3419  -54.4594 H         1 UNK         0.3000 
    241 H241       -2.4229  -21.0751  -53.7143 H         1 UNK         0.0600 
    242 H242       -4.9431  -23.1699  -55.6999 H         1 UNK         0.3800 
    243 H243       -4.9293  -21.4378  -55.4865 H         1 UNK         0.3800 
    244 H244       -0.5006  -20.1549  -55.4861 H         1 UNK         0.0800 
    245 H245       -0.6792  -21.7769  -56.0624 H         1 UNK         0.0800 
    246 H246        0.8079  -19.3980  -53.5800 H         1 UNK         0.0800 
    247 H247       -0.5793  -19.7969  -52.5947 H         1 UNK         0.0800 
@<TRIPOS>BOND
     1    1    2 1    
     2    1  127 1    
     3    1  128 1    
     4    1  129 1    
     5    2    3 2    
     6    2    4 am   BACKBONE|DICT|INTERRES
     7    4    5 1    
     8    4  130 1    
     9    5    6 1    
    10    5   65 1    
    11    5  131 1    
    12    6    7 1    
    13    6  132 1    
    14    6  133 1    
    15    7    8 1    
    16    8    9 1    
    17    8  134 1    
    18    8  135 1    
    19    9   10 ar   
    20    9   14 ar   
    21   10   11 ar   
    22   10  136 1    
    23   11   12 ar   
    24   11  126 1    
    25   12   13 ar   
    26   12  137 1    
    27   13   14 ar   
    28   13   15 1    
    29   14  138 1    
    30   15   16 1    
    31   15  139 1    
    32   15  140 1    
    33   16   17 1    
    34   17   18 1    
    35   17  141 1    
    36   17  142 1    
    37   18   19 1    
    38   18   67 1    
    39   18  143 1    
    40   19   20 am   BACKBONE|DICT|INTERRES
    41   19  144 1    
    42   20   21 2    
    43   20   22 1    
    44   22   23 1    
    45   22   24 1    
    46   22  145 1    
    47   23  146 1    
    48   23  147 1    
    49   23  148 1    
    50   24   25 am   BACKBONE|DICT|INTERRES
    51   24  149 1    
    52   25   26 2    
    53   25   27 1    
    54   27   28 1    
    55   27   29 1    
    56   27  150 1    
    57   28  151 1    
    58   28  152 1    
    59   28  153 1    
    60   29   30 am   BACKBONE|DICT|INTERRES
    61   29  154 1    
    62   30   31 2    
    63   30   32 1    
    64   32   33 1    
    65   32   34 1    
    66   32  155 1    
    67   33  156 1    
    68   33  157 1    
    69   33  158 1    
    70   34   35 am   BACKBONE|DICT|INTERRES
    71   34  159 1    
    72   35   36 2    
    73   35   37 1    
    74   37   38 1    
    75   37   39 1    
    76   37  160 1    
    77   38  161 1    
    78   38  162 1    
    79   38  163 1    
    80   39   40 am   BACKBONE|DICT|INTERRES
    81   39  164 1    
    82   40   41 2    
    83   40   42 1    
    84   42   43 1    
    85   42   44 1    
    86   42  165 1    
    87   43  166 1    
    88   43  167 1    
    89   43  168 1    
    90   44   45 am   BACKBONE|DICT|INTERRES
    91   44  169 1    
    92   45   46 2    
    93   45   47 1    
    94   47   48 1    
    95   47   49 1    
    96   47  170 1    
    97   48  171 1    
    98   48  172 1    
    99   48  173 1    
   100   49   50 am   BACKBONE|DICT|INTERRES
   101   49  174 1    
   102   50   51 2    
   103   50   52 1    
   104   52   53 1    
   105   52   54 1    
   106   52  175 1    
   107   53  176 1    
   108   53  177 1    
   109   53  178 1    
   110   54   55 am   BACKBONE|DICT|INTERRES
   111   54  179 1    
   112   55   56 2    
   113   55   57 1    
   114   57   58 1    
   115   57   59 1    
   116   57  180 1    
   117   58  181 1    
   118   58  182 1    
   119   58  183 1    
   120   59   60 am   BACKBONE|DICT|INTERRES
   121   59  184 1    
   122   60   61 2    
   123   60   62 1    
   124   62   63 1    
   125   62   64 1    
   126   62  185 1    
   127   63  186 1    
   128   63  187 1    
   129   63  188 1    
   130   64   65 am   BACKBONE|DICT|INTERRES
   131   64  189 1    
   132   65   66 2    
   133   67   68 2    
   134   67   69 am   BACKBONE|DICT|INTERRES
   135   69   70 1    
   136   69  190 1    
   137   70   71 1    
   138   70   72 1    
   139   70  191 1    
   140   71  192 1    
   141   71  193 1    
   142   71  194 1    
   143   72   73 2    
   144   72   74 am   BACKBONE|DICT|INTERRES
   145   74   75 1    
   146   74  195 1    
   147   75   76 1    
   148   75   77 1    
   149   75  196 1    
   150   76  197 1    
   151   76  198 1    
   152   76  199 1    
   153   77   78 2    
   154   77   79 am   BACKBONE|DICT|INTERRES
   155   79   80 1    
   156   79  200 1    
   157   80   81 1    
   158   80   82 1    
   159   80  201 1    
   160   81  202 1    
   161   81  203 1    
   162   81  204 1    
   163   82   83 2    
   164   82   84 am   BACKBONE|DICT|INTERRES
   165   84   85 1    
   166   84  205 1    
   167   85   86 1    
   168   85   87 1    
   169   85  206 1    
   170   86  207 1    
   171   86  208 1    
   172   86  209 1    
   173   87   88 2    
   174   87   89 am   BACKBONE|DICT|INTERRES
   175   89   90 1    
   176   89  210 1    
   177   90   91 1    
   178   90   92 1    
   179   90  211 1    
   180   91  212 1    
   181   91  213 1    
   182   91  214 1    
   183   92   93 2    
   184   92   94 am   BACKBONE|DICT|INTERRES
   185   94   95 1    
   186   94  215 1    
   187   95   96 1    
   188   95   97 1    
   189   95  216 1    
   190   96  217 1    
   191   96  218 1    
   192   96  219 1    
   193   97   98 2    
   194   97   99 am   BACKBONE|DICT|INTERRES
   195   99  100 1    
   196   99  220 1    
   197  100  101 1    
   198  100  102 1    
   199  100  221 1    
   200  101  222 1    
   201  101  223 1    
   202  101  224 1    
   203  102  103 2    
   204  102  104 am   BACKBONE|DICT|INTERRES
   205  104  105 1    
   206  104  225 1    
   207  105  106 1    
   208  105  107 1    
   209  105  226 1    
   210  106  227 1    
   211  106  228 1    
   212  106  229 1    
   213  107  108 2    
   214  107  109 am   BACKBONE|DICT|INTERRES
   215  109  110 1    
   216  109  230 1    
   217  110  111 1    
   218  110  112 1    
   219  110  231 1    
   220  111  232 1    
   221  111  233 1    
   222  111  234 1    
   223  112  113 2    
   224  112  114 am   BACKBONE|DICT|INTERRES
   225  114  115 1    
   226  114  235 1    
   227  115  116 1    
   228  115  117 1    
   229  115  236 1    
   230  116  237 1    
   231  116  238 1    
   232  116  239 1    
   233  117  118 2    
   234  117  119 am   BACKBONE|DICT|INTERRES
   235  119  120 1    
   236  119  240 1    
   237  120  121 1    
   238  120  124 1    
   239  120  241 1    
   240  121  122 am   BACKBONE|DICT|INTERRES
   241  121  123 2    
   242  122  242 1    
   243  122  243 1    
   244  124  125 1    
   245  124  244 1    
   246  124  245 1    
   247  125  126 1    
   248  126  246 1    
   249  126  247 1    
@<TRIPOS>SUBSTRUCTURE
     1 UNK         1 GROUP             0       ****    0 ROOT    
