@<TRIPOS>MOLECULE
3R540
247   249    1
SMALL
USER_CHARGES


@<TRIPOS>ATOM
      1 CA          7.4898  -12.0371  -48.1476 C.3       0 UNK        -0.1800 
      2 C           6.8701  -13.4229  -48.0321 C.2       0 UNK         0.5000 
      3 O           7.5312  -14.4168  -48.3348 O.2       0 UNK        -0.5000 
      4 N           5.6034  -13.4915  -47.6040 N.am      1 UNK        -0.5000 
      5 CA          4.8675  -14.7359  -47.3604 C.3       1 UNK         0.1400 
      6 C6          3.3454  -14.4719  -47.2473 C.3       23 UNK        -0.0398 
      7 S7          2.3516  -15.8974  -47.8059 S.3       23 UNK        -0.2404 
      8 C8          1.6424  -15.2380  -49.3485 C.3       23 UNK        -0.0205 
      9 C9          0.5576  -16.1363  -49.9284 C.ar      23 UNK        -0.0193 
     10 C10        -0.7591  -15.6743  -50.0310 C.ar      23 UNK        -0.1150 
     11 C11        -1.7501  -16.4623  -50.6245 C.ar      23 UNK        -0.0193 
     12 C12        -1.4024  -17.7198  -51.1268 C.ar      23 UNK        -0.1150 
     13 C13        -0.1061  -18.2239  -50.9814 C.ar      23 UNK        -0.0193 
     14 C14         0.8734  -17.4156  -50.3966 C.ar      23 UNK        -0.1150 
     15 C15         0.2503  -19.6423  -51.4280 C.3       23 UNK        -0.0205 
     16 S16        -1.0963  -20.8724  -51.2462 S.3       23 UNK        -0.2404 
     17 C17        -1.5919  -20.6529  -49.5033 C.3       23 UNK        -0.0398 
     18 CA         -0.9223  -21.6804  -48.5574 C.3       11 UNK         0.1400 
     19 N          -0.3196  -21.0134  -47.4041 N.am      11 UNK        -0.5000 
     20 C           0.5101  -21.5799  -46.5225 C.2       10 UNK         0.5000 
     21 O           0.8768  -22.7520  -46.5737 O.2       10 UNK        -0.5000 
     22 CA          0.9734  -20.6758  -45.3713 C.3       10 UNK         0.1400 
     23 CB          2.0851  -19.7374  -45.8669 C.3       10 UNK        -0.1800 
     24 N          -0.1370  -19.8995  -44.8102 N.am      10 UNK        -0.5000 
     25 C          -1.1655  -20.4478  -44.1417 C.2       9 UNK         0.5000 
     26 O          -1.2399  -21.6489  -43.8801 O.2       9 UNK        -0.5000 
     27 CA         -2.3333  -19.5225  -43.7382 C.3       9 UNK         0.1400 
     28 CB         -2.0719  -18.9008  -42.3593 C.3       9 UNK        -0.1800 
     29 N          -2.6068  -18.4538  -44.6996 N.am      9 UNK        -0.5000 
     30 C          -2.8775  -18.6258  -46.0020 C.2       8 UNK         0.5000 
     31 O          -3.0221  -19.7285  -46.5280 O.2       8 UNK        -0.5000 
     32 CA         -2.9488  -17.3642  -46.8841 C.3       8 UNK         0.1400 
     33 CB         -4.4134  -16.9368  -47.0575 C.3       8 UNK        -0.1800 
     34 N          -2.1867  -16.2145  -46.3893 N.am      8 UNK        -0.5000 
     35 C          -0.9066  -16.1923  -45.9886 C.2       7 UNK         0.5000 
     36 O          -0.1720  -17.1804  -45.9672 O.2       7 UNK        -0.5000 
     37 CA         -0.3759  -14.8375  -45.4800 C.3       7 UNK         0.1400 
     38 CB         -0.9971  -13.6341  -46.2166 C.3       7 UNK        -0.1800 
     39 N          -0.4847  -14.6276  -44.0322 N.am      7 UNK        -0.5000 
     40 C          -1.4800  -14.9478  -43.1866 C.2       6 UNK         0.5000 
     41 O          -2.4516  -15.6438  -43.4834 O.2       6 UNK        -0.5000 
     42 CA         -1.3989  -14.3667  -41.7586 C.3       6 UNK         0.1400 
     43 CB         -1.1682  -15.4633  -40.7084 C.3       6 UNK        -0.1800 
     44 N          -0.3727  -13.3290  -41.6185 N.am      6 UNK        -0.5000 
     45 C          -0.5439  -12.0536  -41.9997 C.2       5 UNK         0.5000 
     46 O          -1.6076  -11.6142  -42.4381 O.2       5 UNK        -0.5000 
     47 CA          0.6676  -11.1045  -41.8960 C.3       5 UNK         0.1400 
     48 CB          0.5734  -10.2527  -40.6208 C.3       5 UNK        -0.1800 
     49 N           1.9683  -11.7768  -41.9200 N.am      5 UNK        -0.5000 
     50 C           2.4633  -12.4807  -42.9465 C.2       4 UNK         0.5000 
     51 O           1.8563  -12.6652  -44.0028 O.2       4 UNK        -0.5000 
     52 CA          3.8523  -13.1256  -42.7600 C.3       4 UNK         0.1400 
     53 CB          4.5587  -12.7532  -41.4368 C.3       4 UNK        -0.1800 
     54 N           3.7902  -14.5812  -42.9087 N.am      4 UNK        -0.5000 
     55 C           3.0134  -15.4332  -42.2198 C.2       3 UNK         0.5000 
     56 O           2.2343  -15.0729  -41.3357 O.2       3 UNK        -0.5000 
     57 CA          3.1032  -16.9320  -42.5760 C.3       3 UNK         0.1400 
     58 CB          1.7103  -17.5318  -42.8259 C.3       3 UNK        -0.1800 
     59 N           3.9467  -17.1828  -43.7480 N.am      3 UNK        -0.5000 
     60 C           5.2444  -17.5123  -43.7001 C.2       2 UNK         0.5000 
     61 O           5.8649  -17.7003  -42.6533 O.2       2 UNK        -0.5000 
     62 CA          5.9870  -17.6233  -45.0476 C.3       2 UNK         0.1400 
     63 CB          6.0347  -19.0833  -45.5219 C.3       2 UNK        -0.1800 
     64 N           5.4325  -16.7860  -46.1186 N.am      2 UNK        -0.5000 
     65 C           5.4086  -15.4465  -46.1012 C.2       1 UNK         0.5000 
     66 O           5.7641  -14.7742  -45.1300 O.2       1 UNK        -0.5000 
     67 C          -1.9083  -22.7811  -48.1211 C.2       11 UNK         0.5000 
     68 O          -1.9231  -23.8641  -48.7107 O.2       11 UNK        -0.5000 
     69 N          -2.6952  -22.4859  -47.0765 N.am      12 UNK        -0.5000 
     70 CA         -3.6215  -23.4072  -46.4248 C.3       12 UNK         0.1400 
     71 CB         -4.4422  -22.6603  -45.3644 C.3       12 UNK        -0.1800 
     72 C          -2.9038  -24.6240  -45.8187 C.2       12 UNK         0.5000 
     73 O          -3.3337  -25.7549  -46.0471 O.2       12 UNK        -0.5000 
     74 N          -1.8004  -24.3725  -45.1012 N.am      13 UNK        -0.5000 
     75 CA         -0.9365  -25.4067  -44.5335 C.3       13 UNK         0.1400 
     76 CB          0.0783  -24.7567  -43.5806 C.3       13 UNK        -0.1800 
     77 C          -0.2174  -26.2443  -45.6082 C.2       13 UNK         0.5000 
     78 O          -0.0932  -27.4586  -45.4438 O.2       13 UNK        -0.5000 
     79 N           0.2420  -25.5846  -46.6804 N.am      14 UNK        -0.5000 
     80 CA          0.9688  -26.2032  -47.7858 C.3       14 UNK         0.1400 
     81 CB          1.6392  -25.1167  -48.6420 C.3       14 UNK        -0.1800 
     82 C           0.0927  -27.1161  -48.6598 C.2       14 UNK         0.5000 
     83 O           0.4717  -28.2659  -48.8899 O.2       14 UNK        -0.5000 
     84 N          -1.0353  -26.5915  -49.1590 N.am      15 UNK        -0.5000 
     85 CA         -1.8455  -27.2564  -50.1824 C.3       15 UNK         0.1400 
     86 CB         -1.1589  -27.1256  -51.5604 C.3       15 UNK        -0.1800 
     87 C          -3.2972  -26.7488  -50.2052 C.2       15 UNK         0.5000 
     88 O          -3.8802  -26.6320  -51.2840 O.2       15 UNK        -0.5000 
     89 N          -3.8657  -26.4335  -49.0304 N.am      16 UNK        -0.5000 
     90 CA         -5.2596  -25.9981  -48.8292 C.3       16 UNK         0.1400 
     91 CB         -6.2295  -27.1602  -49.1299 C.3       16 UNK        -0.1800 
     92 C          -5.6424  -24.7067  -49.5929 C.2       16 UNK         0.5000 
     93 O          -6.8245  -24.4757  -49.8504 O.2       16 UNK        -0.5000 
     94 N          -4.6303  -23.9015  -49.9517 N.am      17 UNK        -0.5000 
     95 CA         -4.6888  -22.7024  -50.7931 C.3       17 UNK         0.1400 
     96 CB         -5.4412  -21.5612  -50.0774 C.3       17 UNK        -0.1800 
     97 C          -5.2102  -22.9669  -52.2232 C.2       17 UNK         0.5000 
     98 O          -5.7353  -22.0496  -52.8584 O.2       17 UNK        -0.5000 
     99 N          -5.0493  -24.2058  -52.7164 N.am      18 UNK        -0.5000 
    100 CA        -5.4469  -24.6351  -54.0579 C.3       18 UNK         0.1400 
    101 CB        -5.1704  -26.1372  -54.2160 C.3       18 UNK        -0.1800 
    102 C         -4.7289  -23.8351  -55.1593 C.2       18 UNK         0.5000 
    103 O         -3.5422  -23.5291  -55.0195 O.2       18 UNK        -0.5000 
    104 N         -5.4772  -23.4862  -56.2139 N.am      19 UNK        -0.5000 
    105 CA        -5.1124  -22.6472  -57.3656 C.3       19 UNK         0.1400 
    106 CB        -3.9254  -23.2392  -58.1498 C.3       19 UNK        -0.1800 
    107 C         -4.8746  -21.1594  -57.0279 C.2       19 UNK         0.5000 
    108 O         -5.2631  -20.2998  -57.8197 O.2       19 UNK        -0.5000 
    109 N         -4.2643  -20.8731  -55.8708 N.am      20 UNK        -0.5000 
    110 CA        -4.0267  -19.5270  -55.3525 C.3       20 UNK         0.1400 
    111 CB        -3.0416  -19.5963  -54.1764 C.3       20 UNK        -0.1800 
    112 C         -5.3284  -18.8251  -54.9288 C.2       20 UNK         0.5000 
    113 O         -5.5192  -17.6548  -55.2627 O.2       20 UNK        -0.5000 
    114 N         -6.1934  -19.5553  -54.2077 N.am      21 UNK        -0.5000 
    115 CA        -7.5199  -19.1936  -53.6876 C.3       21 UNK         0.1400 
    116 CB        -8.4949  -18.8691  -54.8349 C.3       21 UNK        -0.1800 
    117 C         -7.5333  -18.0816  -52.6173 C.2       21 UNK         0.5000 
    118 O         -8.2740  -18.1997  -51.6407 O.2       21 UNK        -0.5000 
    119 N         -6.7263  -17.0336  -52.8160 N.am      22 UNK        -0.5000 
    120 CA        -6.5447  -15.8624  -51.9398 C.3       22 UNK         0.1400 
    121 C         -7.7748  -14.9059  -51.8615 C.2       22 UNK         0.5000 
    122 N         -8.7454  -14.9989  -52.7625 N.am      22 UNK        -0.7600 
    123 O         -7.8405  -14.0406  -50.9923 O.2       22 UNK        -0.5000 
    124 C124       -5.9806  -16.2189  -50.5344 C.3       23 UNK        -0.0398 
    125 S125       -4.4604  -17.2270  -50.5937 S.3       23 UNK        -0.2404 
    126 C126       -3.1788  -15.9311  -50.7288 C.3       23 UNK        -0.0205 
    127 H127        6.7888  -11.2536  -47.8587 H         1 UNK         0.0600 
    128 H128        7.8036  -11.8506  -49.1747 H         1 UNK         0.0600 
    129 H129        8.3660  -11.9636  -47.5034 H         1 UNK         0.0600 
    130 H130        5.1291  -12.6404  -47.3392 H         1 UNK         0.3000 
    131 H131        5.0479  -15.3808  -48.2237 H         1 UNK         0.0600 
    132 H132        3.0708  -13.6074  -47.8530 H         1 UNK         0.0800 
    133 H133        3.0544  -14.2067  -46.2286 H         1 UNK         0.0800 
    134 H134        1.2382  -14.2424  -49.1595 H         1 UNK         0.0800 
    135 H135        2.4378  -15.1145  -50.0849 H         1 UNK         0.0800 
    136 H136       -1.0115  -14.6901  -49.6626 H         1 UNK         0.1150 
    137 H137       -2.1562  -18.3308  -51.5985 H         1 UNK         0.1150 
    138 H138        1.8860  -17.7812  -50.2990 H         1 UNK         0.1150 
    139 H139        0.5556  -19.6112  -52.4744 H         1 UNK         0.0800 
    140 H140        1.1117  -20.0028  -50.8635 H         1 UNK         0.0800 
    141 H141       -2.6811  -20.6880  -49.4517 H         1 UNK         0.0800 
    142 H142       -1.3546  -19.6385  -49.1872 H         1 UNK         0.0800 
    143 H143       -0.1049  -22.1765  -49.0846 H         1 UNK         0.0600 
    144 H144       -0.5983  -20.0571  -47.2403 H         1 UNK         0.3000 
    145 H145        1.3840  -21.3137  -44.5857 H         1 UNK         0.0600 
    146 H146        2.5459  -19.1972  -45.0444 H         1 UNK         0.0600 
    147 H147        2.8763  -20.3024  -46.3610 H         1 UNK         0.0600 
    148 H148        1.7129  -19.0055  -46.5846 H         1 UNK         0.0600 
    149 H149       -0.1656  -18.9095  -45.0401 H         1 UNK         0.3000 
    150 H150       -3.2327  -20.1364  -43.6699 H         1 UNK         0.0600 
    151 H151       -1.8743  -19.6701  -41.6117 H         1 UNK         0.0600 
    152 H152       -2.9332  -18.3271  -42.0166 H         1 UNK         0.0600 
    153 H153       -1.2118  -18.2314  -42.3799 H         1 UNK         0.0600 
    154 H154       -2.5136  -17.5024  -44.3573 H         1 UNK         0.3000 
    155 H155       -2.5424  -17.6250  -47.8631 H         1 UNK         0.0600 
    156 H156       -5.0077  -17.7441  -47.4881 H         1 UNK         0.0600 
    157 H157       -4.5002  -16.0793  -47.7243 H         1 UNK         0.0600 
    158 H158       -4.8677  -16.6659  -46.1036 H         1 UNK         0.0600 
    159 H159       -2.7072  -15.3544  -46.3043 H         1 UNK         0.3000 
    160 H160        0.6918  -14.8311  -45.6941 H         1 UNK         0.0600 
    161 H161       -2.0412  -13.4787  -45.9428 H         1 UNK         0.0600 
    162 H162       -0.9473  -13.7639  -47.2984 H         1 UNK         0.0600 
    163 H163       -0.4572  -12.7172  -45.9789 H         1 UNK         0.0600 
    164 H164        0.2581  -14.0523  -43.6539 H         1 UNK         0.3000 
    165 H165       -2.3747  -13.9234  -41.5488 H         1 UNK         0.0600 
    166 H166       -1.2282  -15.0559  -39.6991 H         1 UNK         0.0600 
    167 H167       -1.9230  -16.2465  -40.7851 H         1 UNK         0.0600 
    168 H168       -0.1935  -15.9326  -40.8169 H         1 UNK         0.0600 
    169 H169        0.5379  -13.6324  -41.2920 H         1 UNK         0.3000 
    170 H170        0.6267  -10.4348  -42.7575 H         1 UNK         0.0600 
    171 H171       -0.3717   -9.7093  -40.5817 H         1 UNK         0.0600 
    172 H172        0.6361  -10.8671  -39.7218 H         1 UNK         0.0600 
    173 H173        1.3729   -9.5127  -40.5797 H         1 UNK         0.0600 
    174 H174        2.5239  -11.7063  -41.0799 H         1 UNK         0.3000 
    175 H175        4.4700  -12.7563  -43.5799 H         1 UNK         0.0600 
    176 H176        4.0094  -13.1013  -40.5613 H         1 UNK         0.0600 
    177 H177        5.5542  -13.1953  -41.3943 H         1 UNK         0.0600 
    178 H178        4.6874  -11.6738  -41.3468 H         1 UNK         0.0600 
    179 H179        4.4054  -14.9576  -43.6210 H         1 UNK         0.3000 
    180 H180        3.5229  -17.4343  -41.7023 H         1 UNK         0.0600 
    181 H181        1.2238  -17.0802  -43.6898 H         1 UNK         0.0600 
    182 H182        1.0606  -17.3884  -41.9649 H         1 UNK         0.0600 
    183 H183        1.7689  -18.6071  -42.9871 H         1 UNK         0.0600 
    184 H184        3.5207  -17.0397  -44.6522 H         1 UNK         0.3000 
    185 H185        7.0136  -17.2937  -44.8738 H         1 UNK         0.0600 
    186 H186        6.4636  -19.7303  -44.7554 H         1 UNK         0.0600 
    187 H187        5.0408  -19.4642  -45.7533 H         1 UNK         0.0600 
    188 H188        6.6512  -19.1885  -46.4149 H         1 UNK         0.0600 
    189 H189        5.1017  -17.2706  -46.9409 H         1 UNK         0.3000 
    190 H190       -2.6681  -21.5374  -46.7087 H         1 UNK         0.3000 
    191 H191       -4.3141  -23.7640  -47.1836 H         1 UNK         0.0600 
    192 H192       -4.9674  -21.8092  -45.7986 H         1 UNK         0.0600 
    193 H193       -5.1930  -23.3157  -44.9216 H         1 UNK         0.0600 
    194 H194       -3.8144  -22.2896  -44.5550 H         1 UNK         0.0600 
    195 H195       -1.5307  -23.4096  -44.9292 H         1 UNK         0.3000 
    196 H196       -1.5632  -26.0841  -43.9497 H         1 UNK         0.0600 
    197 H197        0.7277  -25.5073  -43.1287 H         1 UNK         0.0600 
    198 H198       -0.4251  -24.2303  -42.7694 H         1 UNK         0.0600 
    199 H199        0.7150  -24.0387  -44.0987 H         1 UNK         0.0600 
    200 H200        0.1646  -24.5724  -46.7005 H         1 UNK         0.3000 
    201 H201        1.7619  -26.8203  -47.3581 H         1 UNK         0.0600 
    202 H202        2.3568  -24.5417  -48.0567 H         1 UNK         0.0600 
    203 H203        0.9095  -24.4202  -49.0553 H         1 UNK         0.0600 
    204 H204        2.1830  -25.5572  -49.4785 H         1 UNK         0.0600 
    205 H205       -1.2925  -25.6339  -48.9271 H         1 UNK         0.3000 
    206 H206       -1.9155  -28.3182  -49.9377 H         1 UNK         0.0600 
    207 H207       -0.1570  -27.5544  -51.5537 H         1 UNK         0.0600 
    208 H208       -1.7204  -27.6493  -52.3351 H         1 UNK         0.0600 
    209 H209       -1.0736  -26.0813  -51.8632 H         1 UNK         0.0600 
    210 H210       -3.3154  -26.5212  -48.1843 H         1 UNK         0.3000 
    211 H211       -5.3637  -25.7658  -47.7699 H         1 UNK         0.0600 
    212 H212       -6.2477  -27.4089  -50.1915 H         1 UNK         0.0600 
    213 H213       -7.2491  -26.9071  -48.8370 H         1 UNK         0.0600 
    214 H214       -5.9509  -28.0586  -48.5793 H         1 UNK         0.0600 
    215 H215       -3.6965  -24.1803  -49.6691 H         1 UNK         0.3000 
    216 H216       -3.6549  -22.3848  -50.9207 H         1 UNK         0.0600 
    217 H217       -5.3330  -20.6203  -50.6191 H         1 UNK         0.0600 
    218 H218       -5.0538  -21.4008  -49.0710 H         1 UNK         0.0600 
    219 H219       -6.5081  -21.7699  -49.9963 H         1 UNK         0.0600 
    220 H220       -4.6019  -24.9101  -52.1389 H         1 UNK         0.3000 
    221 H221       -6.5226  -24.4706  -54.1464 H         1 UNK         0.0600 
    222 H222       -4.1086  -26.3625  -54.1059 H         1 UNK         0.0600 
    223 H223       -5.7144  -26.7189  -53.4715 H         1 UNK         0.0600 
    224 H224       -5.4823  -26.4928  -55.1988 H         1 UNK         0.0600 
    225 H225       -6.4458  -23.7751  -56.2068 H         1 UNK         0.3000 
    226 H226       -5.9798  -22.6750  -58.0270 H         1 UNK         0.0600 
    227 H227       -4.1139  -24.2760  -58.4282 H         1 UNK         0.0600 
    228 H228       -3.7543  -22.6812  -59.0711 H         1 UNK         0.0600 
    229 H229       -2.9982  -23.2077  -57.5773 H         1 UNK         0.0600 
    230 H230       -3.9503  -21.6536  -55.3026 H         1 UNK         0.3000 
    231 H231       -3.5672  -18.9341  -56.1461 H         1 UNK         0.0600 
    232 H232       -3.4444  -20.1722  -53.3420 H         1 UNK         0.0600 
    233 H233       -2.8142  -18.5957  -53.8080 H         1 UNK         0.0600 
    234 H234       -2.0984  -20.0545  -54.4742 H         1 UNK         0.0600 
    235 H235       -5.8967  -20.4891  -53.9326 H         1 UNK         0.3000 
    236 H236       -7.8874  -20.0955  -53.1953 H         1 UNK         0.0600 
    237 H237       -8.5496  -19.6915  -55.5482 H         1 UNK         0.0600 
    238 H238       -9.5028  -18.7021  -54.4531 H         1 UNK         0.0600 
    239 H239       -8.2006  -17.9721  -55.3802 H         1 UNK         0.0600 
    240 H240       -6.1818  -17.0354  -53.6749 H         1 UNK         0.3000 
    241 H241       -5.7813  -15.2644  -52.4379 H         1 UNK         0.0600 
    242 H242       -9.5319  -14.3703  -52.7129 H         1 UNK         0.3800 
    243 H243       -8.7016  -15.6930  -53.4911 H         1 UNK         0.3800 
    244 H244       -5.7713  -15.3143  -49.9615 H         1 UNK         0.0800 
    245 H245       -6.7252  -16.7684  -49.9571 H         1 UNK         0.0800 
    246 H246       -3.2912  -15.4154  -51.6830 H         1 UNK         0.0800 
    247 H247       -3.3506  -15.1905  -49.9463 H         1 UNK         0.0800 
@<TRIPOS>BOND
     1    1    2 1    
     2    1  127 1    
     3    1  128 1    
     4    1  129 1    
     5    2    3 2    
     6    2    4 am   BACKBONE|DICT|INTERRES
     7    4    5 1    
     8    4  130 1    
     9    5    6 1    
    10    5   65 1    
    11    5  131 1    
    12    6    7 1    
    13    6  132 1    
    14    6  133 1    
    15    7    8 1    
    16    8    9 1    
    17    8  134 1    
    18    8  135 1    
    19    9   10 ar   
    20    9   14 ar   
    21   10   11 ar   
    22   10  136 1    
    23   11   12 ar   
    24   11  126 1    
    25   12   13 ar   
    26   12  137 1    
    27   13   14 ar   
    28   13   15 1    
    29   14  138 1    
    30   15   16 1    
    31   15  139 1    
    32   15  140 1    
    33   16   17 1    
    34   17   18 1    
    35   17  141 1    
    36   17  142 1    
    37   18   19 1    
    38   18   67 1    
    39   18  143 1    
    40   19   20 am   BACKBONE|DICT|INTERRES
    41   19  144 1    
    42   20   21 2    
    43   20   22 1    
    44   22   23 1    
    45   22   24 1    
    46   22  145 1    
    47   23  146 1    
    48   23  147 1    
    49   23  148 1    
    50   24   25 am   BACKBONE|DICT|INTERRES
    51   24  149 1    
    52   25   26 2    
    53   25   27 1    
    54   27   28 1    
    55   27   29 1    
    56   27  150 1    
    57   28  151 1    
    58   28  152 1    
    59   28  153 1    
    60   29   30 am   BACKBONE|DICT|INTERRES
    61   29  154 1    
    62   30   31 2    
    63   30   32 1    
    64   32   33 1    
    65   32   34 1    
    66   32  155 1    
    67   33  156 1    
    68   33  157 1    
    69   33  158 1    
    70   34   35 am   BACKBONE|DICT|INTERRES
    71   34  159 1    
    72   35   36 2    
    73   35   37 1    
    74   37   38 1    
    75   37   39 1    
    76   37  160 1    
    77   38  161 1    
    78   38  162 1    
    79   38  163 1    
    80   39   40 am   BACKBONE|DICT|INTERRES
    81   39  164 1    
    82   40   41 2    
    83   40   42 1    
    84   42   43 1    
    85   42   44 1    
    86   42  165 1    
    87   43  166 1    
    88   43  167 1    
    89   43  168 1    
    90   44   45 am   BACKBONE|DICT|INTERRES
    91   44  169 1    
    92   45   46 2    
    93   45   47 1    
    94   47   48 1    
    95   47   49 1    
    96   47  170 1    
    97   48  171 1    
    98   48  172 1    
    99   48  173 1    
   100   49   50 am   BACKBONE|DICT|INTERRES
   101   49  174 1    
   102   50   51 2    
   103   50   52 1    
   104   52   53 1    
   105   52   54 1    
   106   52  175 1    
   107   53  176 1    
   108   53  177 1    
   109   53  178 1    
   110   54   55 am   BACKBONE|DICT|INTERRES
   111   54  179 1    
   112   55   56 2    
   113   55   57 1    
   114   57   58 1    
   115   57   59 1    
   116   57  180 1    
   117   58  181 1    
   118   58  182 1    
   119   58  183 1    
   120   59   60 am   BACKBONE|DICT|INTERRES
   121   59  184 1    
   122   60   61 2    
   123   60   62 1    
   124   62   63 1    
   125   62   64 1    
   126   62  185 1    
   127   63  186 1    
   128   63  187 1    
   129   63  188 1    
   130   64   65 am   BACKBONE|DICT|INTERRES
   131   64  189 1    
   132   65   66 2    
   133   67   68 2    
   134   67   69 am   BACKBONE|DICT|INTERRES
   135   69   70 1    
   136   69  190 1    
   137   70   71 1    
   138   70   72 1    
   139   70  191 1    
   140   71  192 1    
   141   71  193 1    
   142   71  194 1    
   143   72   73 2    
   144   72   74 am   BACKBONE|DICT|INTERRES
   145   74   75 1    
   146   74  195 1    
   147   75   76 1    
   148   75   77 1    
   149   75  196 1    
   150   76  197 1    
   151   76  198 1    
   152   76  199 1    
   153   77   78 2    
   154   77   79 am   BACKBONE|DICT|INTERRES
   155   79   80 1    
   156   79  200 1    
   157   80   81 1    
   158   80   82 1    
   159   80  201 1    
   160   81  202 1    
   161   81  203 1    
   162   81  204 1    
   163   82   83 2    
   164   82   84 am   BACKBONE|DICT|INTERRES
   165   84   85 1    
   166   84  205 1    
   167   85   86 1    
   168   85   87 1    
   169   85  206 1    
   170   86  207 1    
   171   86  208 1    
   172   86  209 1    
   173   87   88 2    
   174   87   89 am   BACKBONE|DICT|INTERRES
   175   89   90 1    
   176   89  210 1    
   177   90   91 1    
   178   90   92 1    
   179   90  211 1    
   180   91  212 1    
   181   91  213 1    
   182   91  214 1    
   183   92   93 2    
   184   92   94 am   BACKBONE|DICT|INTERRES
   185   94   95 1    
   186   94  215 1    
   187   95   96 1    
   188   95   97 1    
   189   95  216 1    
   190   96  217 1    
   191   96  218 1    
   192   96  219 1    
   193   97   98 2    
   194   97   99 am   BACKBONE|DICT|INTERRES
   195   99  100 1    
   196   99  220 1    
   197  100  101 1    
   198  100  102 1    
   199  100  221 1    
   200  101  222 1    
   201  101  223 1    
   202  101  224 1    
   203  102  103 2    
   204  102  104 am   BACKBONE|DICT|INTERRES
   205  104  105 1    
   206  104  225 1    
   207  105  106 1    
   208  105  107 1    
   209  105  226 1    
   210  106  227 1    
   211  106  228 1    
   212  106  229 1    
   213  107  108 2    
   214  107  109 am   BACKBONE|DICT|INTERRES
   215  109  110 1    
   216  109  230 1    
   217  110  111 1    
   218  110  112 1    
   219  110  231 1    
   220  111  232 1    
   221  111  233 1    
   222  111  234 1    
   223  112  113 2    
   224  112  114 am   BACKBONE|DICT|INTERRES
   225  114  115 1    
   226  114  235 1    
   227  115  116 1    
   228  115  117 1    
   229  115  236 1    
   230  116  237 1    
   231  116  238 1    
   232  116  239 1    
   233  117  118 2    
   234  117  119 am   BACKBONE|DICT|INTERRES
   235  119  120 1    
   236  119  240 1    
   237  120  121 1    
   238  120  124 1    
   239  120  241 1    
   240  121  122 am   BACKBONE|DICT|INTERRES
   241  121  123 2    
   242  122  242 1    
   243  122  243 1    
   244  124  125 1    
   245  124  244 1    
   246  124  245 1    
   247  125  126 1    
   248  126  246 1    
   249  126  247 1    
@<TRIPOS>SUBSTRUCTURE
     1 UNK         1 GROUP             0       ****    0 ROOT    
