@<TRIPOS>MOLECULE
3R540
247   249    1
SMALL
USER_CHARGES


@<TRIPOS>ATOM
      1 CA          2.3497  -11.4778  -51.0210 C.3       0 UNK        -0.1800 
      2 C           1.5974  -12.2045  -49.9160 C.2       0 UNK         0.5000 
      3 O           1.3305  -11.6185  -48.8682 O.2       0 UNK        -0.5000 
      4 N           1.2280  -13.4691  -50.1555 N.am      1 UNK        -0.5000 
      5 CA          0.5652  -14.3730  -49.1995 C.3       1 UNK         0.1400 
      6 C6          0.7521  -15.8576  -49.5979 C.3       23 UNK        -0.0398 
      7 S7          2.5026  -16.3516  -49.4394 S.3       23 UNK        -0.2404 
      8 C8          2.7612  -17.3263  -50.9508 C.3       23 UNK        -0.0205 
      9 C9          2.2099  -18.7347  -50.8018 C.ar      23 UNK        -0.0193 
     10 C10         0.9394  -19.0545  -51.2890 C.ar      23 UNK        -0.1150 
     11 C11         0.4498  -20.3590  -51.1813 C.ar      23 UNK        -0.0193 
     12 C12         1.2267  -21.3360  -50.5541 C.ar      23 UNK        -0.1150 
     13 C13         2.4946  -21.0280  -50.0547 C.ar      23 UNK        -0.0193 
     14 C14         2.9843  -19.7258  -50.1906 C.ar      23 UNK        -0.1150 
     15 C15         3.3401  -22.1165  -49.4050 C.3       23 UNK        -0.0205 
     16 S16         3.8873  -21.7170  -47.7104 S.3       23 UNK        -0.2404 
     17 C17         2.3320  -21.3196  -46.8442 C.3       23 UNK        -0.0398 
     18 CA          1.5658  -22.5725  -46.3414 C.3       11 UNK         0.1400 
     19 N           0.9845  -22.3568  -45.0133 N.am      11 UNK        -0.5000 
     20 C           0.3619  -23.2916  -44.2810 C.2       10 UNK         0.5000 
     21 O           0.2745  -24.4760  -44.6066 O.2       10 UNK        -0.5000 
     22 CA         -0.3371  -22.7988  -43.0014 C.3       10 UNK         0.1400 
     23 CB          0.6561  -22.6746  -41.8362 C.3       10 UNK        -0.1800 
     24 N          -1.0145  -21.5183  -43.2163 N.am      10 UNK        -0.5000 
     25 C          -2.1024  -21.3687  -43.9861 C.2       9 UNK         0.5000 
     26 O          -2.6773  -22.3040  -44.5391 O.2       9 UNK        -0.5000 
     27 CA         -2.6119  -19.9359  -44.2153 C.3       9 UNK         0.1400 
     28 CB         -3.6124  -19.5413  -43.1202 C.3       9 UNK        -0.1800 
     29 N          -1.5273  -18.9540  -44.2922 N.am      9 UNK        -0.5000 
     30 C          -0.6380  -18.9113  -45.2960 C.2       8 UNK         0.5000 
     31 O          -0.6550  -19.6891  -46.2482 O.2       8 UNK        -0.5000 
     32 CA          0.4888  -17.8689  -45.2148 C.3       8 UNK         0.1400 
     33 CB          0.0311  -16.5221  -45.7815 C.3       8 UNK        -0.1800 
     34 N           1.0199  -17.6752  -43.8688 N.am      8 UNK        -0.5000 
     35 C           1.6515  -18.6179  -43.1569 C.2       7 UNK         0.5000 
     36 O           1.7742  -19.7862  -43.5285 O.2       7 UNK        -0.5000 
     37 CA          2.2332  -18.1794  -41.8047 C.3       7 UNK         0.1400 
     38 CB          3.5443  -17.4042  -42.0085 C.3       7 UNK        -0.1800 
     39 N           1.2837  -17.3354  -41.0825 N.am      7 UNK        -0.5000 
     40 C           0.4446  -17.7783  -40.1374 C.2       6 UNK         0.5000 
     41 O           0.4344  -18.9360  -39.7172 O.2       6 UNK        -0.5000 
     42 CA         -0.5698  -16.7630  -39.5717 C.3       6 UNK         0.1400 
     43 CB          0.0079  -16.0597  -38.3342 C.3       6 UNK        -0.1800 
     44 N          -1.0048  -15.7500  -40.5375 N.am      6 UNK        -0.5000 
     45 C          -1.6454  -16.0130  -41.6847 C.2       5 UNK         0.5000 
     46 O          -1.9248  -17.1470  -42.0671 O.2       5 UNK        -0.5000 
     47 CA         -1.9945  -14.8152  -42.5849 C.3       5 UNK         0.1400 
     48 CB         -3.3442  -14.2114  -42.1697 C.3       5 UNK        -0.1800 
     49 N          -0.9875  -13.7506  -42.6362 N.am      5 UNK        -0.5000 
     50 C           0.3284  -13.8889  -42.8606 C.2       4 UNK         0.5000 
     51 O           0.9118  -14.9748  -42.9126 O.2       4 UNK        -0.5000 
     52 CA          1.1020  -12.5710  -43.0751 C.3       4 UNK         0.1400 
     53 CB          2.5575  -12.7960  -43.5372 C.3       4 UNK        -0.1800 
     54 N           0.3947  -11.6500  -43.9796 N.am      4 UNK        -0.5000 
     55 C           0.0729  -11.8763  -45.2634 C.2       3 UNK         0.5000 
     56 O           0.3669  -12.9075  -45.8721 O.2       3 UNK        -0.5000 
     57 CA         -0.7026  -10.7519  -45.9778 C.3       3 UNK         0.1400 
     58 CB          0.1928   -9.5192  -46.1881 C.3       3 UNK        -0.1800 
     59 N          -1.1556  -11.2190  -47.2857 N.am      3 UNK        -0.5000 
     60 C          -2.4114  -11.5564  -47.6111 C.2       2 UNK         0.5000 
     61 O          -3.3816  -11.3704  -46.8757 O.2       2 UNK        -0.5000 
     62 CA         -2.6233  -12.2345  -48.9850 C.3       2 UNK         0.1400 
     63 CB         -3.0762  -11.2116  -50.0373 C.3       2 UNK        -0.1800 
     64 N          -1.4148  -12.9083  -49.4626 N.am      2 UNK        -0.5000 
     65 C          -0.9130  -14.0189  -48.9046 C.2       1 UNK         0.5000 
     66 O          -1.5630  -14.7213  -48.1317 O.2       1 UNK        -0.5000 
     67 C           0.4890  -23.0151  -47.3548 C.2       11 UNK         0.5000 
     68 O           0.6714  -24.0073  -48.0598 O.2       11 UNK        -0.5000 
     69 N          -0.6350  -22.2884  -47.3758 N.am      12 UNK        -0.5000 
     70 CA         -1.7823  -22.5456  -48.2394 C.3       12 UNK         0.1400 
     71 CB         -2.7544  -21.3687  -48.1360 C.3       12 UNK        -0.1800 
     72 C          -2.4837  -23.8800  -47.9441 C.2       12 UNK         0.5000 
     73 O          -2.8754  -24.5692  -48.8844 O.2       12 UNK        -0.5000 
     74 N          -2.5863  -24.2492  -46.6601 N.am      13 UNK        -0.5000 
     75 CA         -3.1017  -25.5425  -46.2108 C.3       13 UNK         0.1400 
     76 CB         -3.2689  -25.5352  -44.6841 C.3       13 UNK        -0.1800 
     77 C          -2.2152  -26.7189  -46.6574 C.2       13 UNK         0.5000 
     78 O          -2.7469  -27.7482  -47.0738 O.2       13 UNK        -0.5000 
     79 N          -0.8877  -26.5352  -46.6011 N.am      14 UNK        -0.5000 
     80 CA          0.0996  -27.5008  -47.0879 C.3       14 UNK         0.1400 
     81 CB          1.4975  -27.1074  -46.5861 C.3       14 UNK        -0.1800 
     82 C           0.0805  -27.6425  -48.6226 C.2       14 UNK         0.5000 
     83 O           0.1897  -28.7591  -49.1307 O.2       14 UNK        -0.5000 
     84 N          -0.0844  -26.5160  -49.3298 N.am      15 UNK        -0.5000 
     85 CA         -0.2209  -26.4543  -50.7878 C.3       15 UNK         0.1400 
     86 CB          0.0149  -25.0072  -51.2470 C.3       15 UNK        -0.1800 
     87 C          -1.5823  -26.9629  -51.3063 C.2       15 UNK         0.5000 
     88 O          -1.6793  -27.3174  -52.4817 O.2       15 UNK        -0.5000 
     89 N          -2.5967  -26.9748  -50.4293 N.am      16 UNK        -0.5000 
     90 CA         -4.0080  -27.2785  -50.6803 C.3       16 UNK         0.1400 
     91 CB         -4.1949  -28.7466  -51.1172 C.3       16 UNK        -0.1800 
     92 C          -4.6466  -26.2578  -51.6455 C.2       16 UNK         0.5000 
     93 O          -5.2607  -26.6391  -52.6443 O.2       16 UNK        -0.5000 
     94 N          -4.4668  -24.9706  -51.3304 N.am      17 UNK        -0.5000 
     95 CA         -4.9351  -23.8276  -52.1113 C.3       17 UNK         0.1400 
     96 CB         -3.7862  -23.3551  -53.0210 C.3       17 UNK        -0.1800 
     97 C          -5.4167  -22.7046  -51.1754 C.2       17 UNK         0.5000 
     98 O          -5.3590  -22.8511  -49.9530 O.2       17 UNK        -0.5000 
     99 N          -5.8814  -21.5958  -51.7639 N.am      18 UNK        -0.5000 
    100 CA        -6.1611  -20.3442  -51.0595 C.3       18 UNK         0.1400 
    101 CB        -7.2428  -19.5669  -51.8255 C.3       18 UNK        -0.1800 
    102 C         -4.8708  -19.5136  -50.9753 C.2       18 UNK         0.5000 
    103 O         -4.1232  -19.4712  -51.9514 O.2       18 UNK        -0.5000 
    104 N         -4.6341  -18.8528  -49.8351 N.am      19 UNK        -0.5000 
    105 CA        -3.4148  -18.0787  -49.5744 C.3       19 UNK         0.1400 
    106 CB        -3.3714  -17.6875  -48.0885 C.3       19 UNK        -0.1800 
    107 C         -3.2752  -16.8368  -50.4733 C.2       19 UNK         0.5000 
    108 O         -2.1929  -16.5772  -50.9986 O.2       19 UNK        -0.5000 
    109 N         -4.3861  -16.1117  -50.6519 N.am      20 UNK        -0.5000 
    110 CA        -4.4533  -14.8735  -51.4301 C.3       20 UNK         0.1400 
    111 CB        -5.6065  -14.0189  -50.8788 C.3       20 UNK        -0.1800 
    112 C         -4.6328  -15.1027  -52.9448 C.2       20 UNK         0.5000 
    113 O         -4.5585  -14.1376  -53.7064 O.2       20 UNK        -0.5000 
    114 N         -4.8902  -16.3490  -53.3598 N.am      21 UNK        -0.5000 
    115 CA        -5.1971  -16.7288  -54.7372 C.3       21 UNK         0.1400 
    116 CB        -6.7134  -16.6010  -54.9833 C.3       21 UNK        -0.1800 
    117 C         -4.6507  -18.1379  -55.0091 C.2       21 UNK         0.5000 
    118 O         -5.4090  -19.0447  -55.3591 O.2       21 UNK        -0.5000 
    119 N         -3.3405  -18.3002  -54.7927 N.am      22 UNK        -0.5000 
    120 CA        -2.6180  -19.5683  -54.9649 C.3       22 UNK         0.1400 
    121 C         -2.5267  -20.0353  -56.4469 C.2       22 UNK         0.5000 
    122 N         -2.3967  -21.3329  -56.6863 N.am      22 UNK        -0.7600 
    123 O         -2.5349  -19.2332  -57.3788 O.2       22 UNK        -0.5000 
    124 C124       -1.2199  -19.5136  -54.2921 C.3       23 UNK        -0.0398 
    125 S125       -0.7784  -21.1144  -53.5337 S.3       23 UNK        -0.2404 
    126 C126       -0.9051  -20.7263  -51.7610 C.3       23 UNK        -0.0205 
    127 H127        1.7948  -10.5935  -51.3340 H         1 UNK         0.0600 
    128 H128        2.5010  -12.1124  -51.8945 H         1 UNK         0.0600 
    129 H129        3.3270  -11.1579  -50.6597 H         1 UNK         0.0600 
    130 H130        1.4676  -13.8856  -51.0437 H         1 UNK         0.3000 
    131 H131        1.0666  -14.2370  -48.2384 H         1 UNK         0.0600 
    132 H132        0.1640  -16.5278  -48.9714 H         1 UNK         0.0800 
    133 H133        0.4023  -16.0196  -50.6179 H         1 UNK         0.0800 
    134 H134        2.3154  -16.8208  -51.8087 H         1 UNK         0.0800 
    135 H135        3.8319  -17.3765  -51.1545 H         1 UNK         0.0800 
    136 H136        0.3397  -18.2931  -51.7667 H         1 UNK         0.1150 
    137 H137        0.8478  -22.3435  -50.4681 H         1 UNK         0.1150 
    138 H138        3.9686  -19.4826  -49.8155 H         1 UNK         0.1150 
    139 H139        2.8048  -23.0665  -49.3871 H         1 UNK         0.0800 
    140 H140        4.2232  -22.2832  -50.0230 H         1 UNK         0.0800 
    141 H141        1.7106  -20.6623  -47.4554 H         1 UNK         0.0800 
    142 H142        2.6290  -20.7034  -45.9945 H         1 UNK         0.0800 
    143 H143        2.2705  -23.3998  -46.2330 H         1 UNK         0.0600 
    144 H144        1.0339  -21.4142  -44.6430 H         1 UNK         0.3000 
    145 H145       -1.0898  -23.5402  -42.7251 H         1 UNK         0.0600 
    146 H146        1.1335  -23.6334  -41.6302 H         1 UNK         0.0600 
    147 H147        1.4471  -21.9554  -42.0483 H         1 UNK         0.0600 
    148 H148        0.1537  -22.3584  -40.9218 H         1 UNK         0.0600 
    149 H149       -0.5768  -20.6956  -42.8272 H         1 UNK         0.3000 
    150 H150       -3.1419  -19.9217  -45.1695 H         1 UNK         0.0600 
    151 H151       -4.4530  -20.2357  -43.0920 H         1 UNK         0.0600 
    152 H152       -4.0195  -18.5457  -43.2976 H         1 UNK         0.0600 
    153 H153       -3.1506  -19.5461  -42.1321 H         1 UNK         0.0600 
    154 H154       -1.4668  -18.2843  -43.5294 H         1 UNK         0.3000 
    155 H155        1.3078  -18.2303  -45.8403 H         1 UNK         0.0600 
    156 H156       -0.7542  -16.0723  -45.1776 H         1 UNK         0.0600 
    157 H157        0.8561  -15.8118  -45.8422 H         1 UNK         0.0600 
    158 H158       -0.3660  -16.6476  -46.7858 H         1 UNK         0.0600 
    159 H159        0.9694  -16.7294  -43.4979 H         1 UNK         0.3000 
    160 H160        2.4604  -19.0789  -41.2285 H         1 UNK         0.0600 
    161 H161        3.3884  -16.4841  -42.5737 H         1 UNK         0.0600 
    162 H162        4.2730  -18.0060  -42.5531 H         1 UNK         0.0600 
    163 H163        3.9936  -17.1359  -41.0523 H         1 UNK         0.0600 
    164 H164        1.1850  -16.3817  -41.4119 H         1 UNK         0.3000 
    165 H165       -1.4542  -17.3246  -39.2636 H         1 UNK         0.0600 
    166 H166       -0.7320  -15.4088  -37.8681 H         1 UNK         0.0600 
    167 H167        0.3198  -16.7856  -37.5820 H         1 UNK         0.0600 
    168 H168        0.8789  -15.4534  -38.5865 H         1 UNK         0.0600 
    169 H169       -0.7972  -14.7879  -40.3143 H         1 UNK         0.3000 
    170 H170       -2.1060  -15.1977  -43.5996 H         1 UNK         0.0600 
    171 H171       -4.1226  -14.9753  -42.1404 H         1 UNK         0.0600 
    172 H172       -3.2938  -13.7554  -41.1802 H         1 UNK         0.0600 
    173 H173       -3.6694  -13.4474  -42.8762 H         1 UNK         0.0600 
    174 H174       -1.3511  -12.8097  -42.6049 H         1 UNK         0.3000 
    175 H175        1.1415  -12.0801  -42.1017 H         1 UNK         0.0600 
    176 H176        2.6062  -13.3417  -44.4800 H         1 UNK         0.0600 
    177 H177        3.0800  -11.8489  -43.6703 H         1 UNK         0.0600 
    178 H178        3.1152  -13.3739  -42.7993 H         1 UNK         0.0600 
    179 H179        0.1160  -10.7703  -43.5674 H         1 UNK         0.3000 
    180 H180       -1.5533  -10.4706  -45.3541 H         1 UNK         0.0600 
    181 H181        1.0868   -9.7652  -46.7627 H         1 UNK         0.0600 
    182 H182        0.5194   -9.0980  -45.2368 H         1 UNK         0.0600 
    183 H183       -0.3407   -8.7329  -46.7224 H         1 UNK         0.0600 
    184 H184       -0.4034  -11.4673  -47.9218 H         1 UNK         0.3000 
    185 H185       -3.4126  -12.9794  -48.8676 H         1 UNK         0.0600 
    186 H186       -3.9971  -10.7161  -49.7271 H         1 UNK         0.0600 
    187 H187       -2.3238  -10.4381  -50.1964 H         1 UNK         0.0600 
    188 H188       -3.2736  -11.6914  -50.9960 H         1 UNK         0.0600 
    189 H189       -0.8185  -12.3849  -50.0862 H         1 UNK         0.3000 
    190 H190       -0.6865  -21.4507  -46.8002 H         1 UNK         0.3000 
    191 H191       -1.4110  -22.5938  -49.2618 H         1 UNK         0.0600 
    192 H192       -3.2305  -21.3197  -47.1569 H         1 UNK         0.0600 
    193 H193       -3.5398  -21.4408  -48.8846 H         1 UNK         0.0600 
    194 H194       -2.2317  -20.4297  -48.3042 H         1 UNK         0.0600 
    195 H195       -2.3139  -23.5912  -45.9357 H         1 UNK         0.3000 
    196 H196       -4.0878  -25.6816  -46.6589 H         1 UNK         0.0600 
    197 H197       -3.6567  -26.4905  -44.3284 H         1 UNK         0.0600 
    198 H198       -3.9706  -24.7628  -44.3689 H         1 UNK         0.0600 
    199 H199       -2.3217  -25.3545  -44.1755 H         1 UNK         0.0600 
    200 H200       -0.5282  -25.6699  -46.2137 H         1 UNK         0.3000 
    201 H201       -0.1467  -28.4759  -46.6626 H         1 UNK         0.0600 
    202 H202        1.5267  -27.0642  -45.4971 H         1 UNK         0.0600 
    203 H203        1.8071  -26.1338  -46.9657 H         1 UNK         0.0600 
    204 H204        2.2447  -27.8356  -46.9037 H         1 UNK         0.0600 
    205 H205       -0.0821  -25.6290  -48.8337 H         1 UNK         0.3000 
    206 H206        0.5546  -27.0822  -51.2311 H         1 UNK         0.0600 
    207 H207        1.0039  -24.6591  -50.9493 H         1 UNK         0.0600 
    208 H208       -0.0463  -24.9231  -52.3328 H         1 UNK         0.0600 
    209 H209       -0.7256  -24.3277  -50.8248 H         1 UNK         0.0600 
    210 H210       -2.4066  -26.5800  -49.5167 H         1 UNK         0.3000 
    211 H211       -4.5176  -27.1555  -49.7234 H         1 UNK         0.0600 
    212 H212       -3.7530  -28.9430  -52.0942 H         1 UNK         0.0600 
    213 H213       -5.2536  -29.0000  -51.1822 H         1 UNK         0.0600 
    214 H214       -3.7408  -29.4302  -50.3998 H         1 UNK         0.0600 
    215 H215       -3.9951  -24.7367  -50.4585 H         1 UNK         0.3000 
    216 H216       -5.7874  -24.1198  -52.7280 H         1 UNK         0.0600 
    217 H217       -4.0879  -22.5184  -53.6513 H         1 UNK         0.0600 
    218 H218       -3.4557  -24.1545  -53.6845 H         1 UNK         0.0600 
    219 H219       -2.9250  -23.0349  -52.4348 H         1 UNK         0.0600 
    220 H220       -5.8585  -21.5323  -52.7713 H         1 UNK         0.3000 
    221 H221       -6.5267  -20.5540  -50.0520 H         1 UNK         0.0600 
    222 H222       -6.9273  -19.3333  -52.8433 H         1 UNK         0.0600 
    223 H223       -8.1689  -20.1387  -51.8862 H         1 UNK         0.0600 
    224 H224       -7.4747  -18.6240  -51.3287 H         1 UNK         0.0600 
    225 H225       -5.2980  -18.9205  -49.0773 H         1 UNK         0.3000 
    226 H226       -2.5569  -18.7201  -49.7800 H         1 UNK         0.0600 
    227 H227       -3.4682  -18.5570  -47.4390 H         1 UNK         0.0600 
    228 H228       -2.4222  -17.2124  -47.8440 H         1 UNK         0.0600 
    229 H229       -4.1656  -16.9867  -47.8288 H         1 UNK         0.0600 
    230 H230       -5.2372  -16.4101  -50.1986 H         1 UNK         0.3000 
    231 H231       -3.5232  -14.3178  -51.2923 H         1 UNK         0.0600 
    232 H232       -5.6486  -13.0492  -51.3765 H         1 UNK         0.0600 
    233 H233       -5.4863  -13.8288  -49.8124 H         1 UNK         0.0600 
    234 H234       -6.5720  -14.5048  -51.0250 H         1 UNK         0.0600 
    235 H235       -4.8658  -17.1037  -52.6871 H         1 UNK         0.3000 
    236 H236       -4.6812  -16.0604  -55.4298 H         1 UNK         0.0600 
    237 H237       -7.0516  -15.5750  -54.8380 H         1 UNK         0.0600 
    238 H238       -6.9698  -16.8842  -56.0049 H         1 UNK         0.0600 
    239 H239       -7.2850  -17.2399  -54.3093 H         1 UNK         0.0600 
    240 H240       -2.7934  -17.5031  -54.5048 H         1 UNK         0.3000 
    241 H241       -3.2222  -20.3100  -54.4383 H         1 UNK         0.0600 
    242 H242       -2.3430  -22.0012  -55.9334 H         1 UNK         0.3800 
    243 H243       -2.3227  -21.6522  -57.6397 H         1 UNK         0.3800 
    244 H244       -1.2003  -18.7467  -53.5176 H         1 UNK         0.0800 
    245 H245       -0.4403  -19.2253  -54.9995 H         1 UNK         0.0800 
    246 H246       -1.3122  -21.5981  -51.2524 H         1 UNK         0.0800 
    247 H247       -1.6175  -19.9207  -51.5913 H         1 UNK         0.0800 
@<TRIPOS>BOND
     1    1    2 1    
     2    1  127 1    
     3    1  128 1    
     4    1  129 1    
     5    2    3 2    
     6    2    4 am   BACKBONE|DICT|INTERRES
     7    4    5 1    
     8    4  130 1    
     9    5    6 1    
    10    5   65 1    
    11    5  131 1    
    12    6    7 1    
    13    6  132 1    
    14    6  133 1    
    15    7    8 1    
    16    8    9 1    
    17    8  134 1    
    18    8  135 1    
    19    9   10 ar   
    20    9   14 ar   
    21   10   11 ar   
    22   10  136 1    
    23   11   12 ar   
    24   11  126 1    
    25   12   13 ar   
    26   12  137 1    
    27   13   14 ar   
    28   13   15 1    
    29   14  138 1    
    30   15   16 1    
    31   15  139 1    
    32   15  140 1    
    33   16   17 1    
    34   17   18 1    
    35   17  141 1    
    36   17  142 1    
    37   18   19 1    
    38   18   67 1    
    39   18  143 1    
    40   19   20 am   BACKBONE|DICT|INTERRES
    41   19  144 1    
    42   20   21 2    
    43   20   22 1    
    44   22   23 1    
    45   22   24 1    
    46   22  145 1    
    47   23  146 1    
    48   23  147 1    
    49   23  148 1    
    50   24   25 am   BACKBONE|DICT|INTERRES
    51   24  149 1    
    52   25   26 2    
    53   25   27 1    
    54   27   28 1    
    55   27   29 1    
    56   27  150 1    
    57   28  151 1    
    58   28  152 1    
    59   28  153 1    
    60   29   30 am   BACKBONE|DICT|INTERRES
    61   29  154 1    
    62   30   31 2    
    63   30   32 1    
    64   32   33 1    
    65   32   34 1    
    66   32  155 1    
    67   33  156 1    
    68   33  157 1    
    69   33  158 1    
    70   34   35 am   BACKBONE|DICT|INTERRES
    71   34  159 1    
    72   35   36 2    
    73   35   37 1    
    74   37   38 1    
    75   37   39 1    
    76   37  160 1    
    77   38  161 1    
    78   38  162 1    
    79   38  163 1    
    80   39   40 am   BACKBONE|DICT|INTERRES
    81   39  164 1    
    82   40   41 2    
    83   40   42 1    
    84   42   43 1    
    85   42   44 1    
    86   42  165 1    
    87   43  166 1    
    88   43  167 1    
    89   43  168 1    
    90   44   45 am   BACKBONE|DICT|INTERRES
    91   44  169 1    
    92   45   46 2    
    93   45   47 1    
    94   47   48 1    
    95   47   49 1    
    96   47  170 1    
    97   48  171 1    
    98   48  172 1    
    99   48  173 1    
   100   49   50 am   BACKBONE|DICT|INTERRES
   101   49  174 1    
   102   50   51 2    
   103   50   52 1    
   104   52   53 1    
   105   52   54 1    
   106   52  175 1    
   107   53  176 1    
   108   53  177 1    
   109   53  178 1    
   110   54   55 am   BACKBONE|DICT|INTERRES
   111   54  179 1    
   112   55   56 2    
   113   55   57 1    
   114   57   58 1    
   115   57   59 1    
   116   57  180 1    
   117   58  181 1    
   118   58  182 1    
   119   58  183 1    
   120   59   60 am   BACKBONE|DICT|INTERRES
   121   59  184 1    
   122   60   61 2    
   123   60   62 1    
   124   62   63 1    
   125   62   64 1    
   126   62  185 1    
   127   63  186 1    
   128   63  187 1    
   129   63  188 1    
   130   64   65 am   BACKBONE|DICT|INTERRES
   131   64  189 1    
   132   65   66 2    
   133   67   68 2    
   134   67   69 am   BACKBONE|DICT|INTERRES
   135   69   70 1    
   136   69  190 1    
   137   70   71 1    
   138   70   72 1    
   139   70  191 1    
   140   71  192 1    
   141   71  193 1    
   142   71  194 1    
   143   72   73 2    
   144   72   74 am   BACKBONE|DICT|INTERRES
   145   74   75 1    
   146   74  195 1    
   147   75   76 1    
   148   75   77 1    
   149   75  196 1    
   150   76  197 1    
   151   76  198 1    
   152   76  199 1    
   153   77   78 2    
   154   77   79 am   BACKBONE|DICT|INTERRES
   155   79   80 1    
   156   79  200 1    
   157   80   81 1    
   158   80   82 1    
   159   80  201 1    
   160   81  202 1    
   161   81  203 1    
   162   81  204 1    
   163   82   83 2    
   164   82   84 am   BACKBONE|DICT|INTERRES
   165   84   85 1    
   166   84  205 1    
   167   85   86 1    
   168   85   87 1    
   169   85  206 1    
   170   86  207 1    
   171   86  208 1    
   172   86  209 1    
   173   87   88 2    
   174   87   89 am   BACKBONE|DICT|INTERRES
   175   89   90 1    
   176   89  210 1    
   177   90   91 1    
   178   90   92 1    
   179   90  211 1    
   180   91  212 1    
   181   91  213 1    
   182   91  214 1    
   183   92   93 2    
   184   92   94 am   BACKBONE|DICT|INTERRES
   185   94   95 1    
   186   94  215 1    
   187   95   96 1    
   188   95   97 1    
   189   95  216 1    
   190   96  217 1    
   191   96  218 1    
   192   96  219 1    
   193   97   98 2    
   194   97   99 am   BACKBONE|DICT|INTERRES
   195   99  100 1    
   196   99  220 1    
   197  100  101 1    
   198  100  102 1    
   199  100  221 1    
   200  101  222 1    
   201  101  223 1    
   202  101  224 1    
   203  102  103 2    
   204  102  104 am   BACKBONE|DICT|INTERRES
   205  104  105 1    
   206  104  225 1    
   207  105  106 1    
   208  105  107 1    
   209  105  226 1    
   210  106  227 1    
   211  106  228 1    
   212  106  229 1    
   213  107  108 2    
   214  107  109 am   BACKBONE|DICT|INTERRES
   215  109  110 1    
   216  109  230 1    
   217  110  111 1    
   218  110  112 1    
   219  110  231 1    
   220  111  232 1    
   221  111  233 1    
   222  111  234 1    
   223  112  113 2    
   224  112  114 am   BACKBONE|DICT|INTERRES
   225  114  115 1    
   226  114  235 1    
   227  115  116 1    
   228  115  117 1    
   229  115  236 1    
   230  116  237 1    
   231  116  238 1    
   232  116  239 1    
   233  117  118 2    
   234  117  119 am   BACKBONE|DICT|INTERRES
   235  119  120 1    
   236  119  240 1    
   237  120  121 1    
   238  120  124 1    
   239  120  241 1    
   240  121  122 am   BACKBONE|DICT|INTERRES
   241  121  123 2    
   242  122  242 1    
   243  122  243 1    
   244  124  125 1    
   245  124  244 1    
   246  124  245 1    
   247  125  126 1    
   248  126  246 1    
   249  126  247 1    
@<TRIPOS>SUBSTRUCTURE
     1 UNK         1 GROUP             0       ****    0 ROOT    
