@<TRIPOS>MOLECULE
3R540
247   249    1
SMALL
USER_CHARGES


@<TRIPOS>ATOM
      1 CA          4.6319  -12.7974  -50.3380 C.3       0 UNK        -0.1800 
      2 C           3.8785  -13.4825  -49.2074 C.2       0 UNK         0.5000 
      3 O           3.6279  -12.8635  -48.1730 O.2       0 UNK        -0.5000 
      4 N           3.5002  -14.7532  -49.4040 N.am      1 UNK        -0.5000 
      5 CA          2.7754  -15.5843  -48.4315 C.3       1 UNK         0.1400 
      6 C6          2.7375  -17.0790  -48.8382 C.3       23 UNK        -0.0398 
      7 S7          2.1151  -17.3885  -50.5298 S.3       23 UNK        -0.2404 
      8 C8          0.7360  -18.5377  -50.2361 C.3       23 UNK        -0.0205 
      9 C9         -0.5528  -17.8144  -49.8798 C.ar      23 UNK        -0.0193 
     10 C10        -1.3746  -17.3203  -50.8958 C.ar      23 UNK        -0.1150 
     11 C11        -2.5551  -16.6420  -50.5872 C.ar      23 UNK        -0.0193 
     12 C12        -2.9096  -16.4605  -49.2472 C.ar      23 UNK        -0.1150 
     13 C13        -2.0973  -16.9410  -48.2143 C.ar      23 UNK        -0.0193 
     14 C14        -0.9229  -17.6331  -48.5440 C.ar      23 UNK        -0.1150 
     15 C15        -2.4850  -16.5961  -46.7738 C.3       23 UNK        -0.0205 
     16 S16        -1.6072  -17.5168  -45.4637 S.3       23 UNK        -0.2404 
     17 C17        -2.8144  -18.8026  -44.9992 C.3       23 UNK        -0.0398 
     18 CA         -2.6299  -20.1399  -45.7539 C.3       11 UNK         0.1400 
     19 N          -1.2412  -20.6207  -45.7385 N.am      11 UNK        -0.5000 
     20 C          -0.7852  -21.6873  -46.4112 C.2       10 UNK         0.5000 
     21 O          -1.4914  -22.4019  -47.1190 O.2       10 UNK        -0.5000 
     22 CA          0.6954  -22.0457  -46.2147 C.3       10 UNK         0.1400 
     23 CB          1.5915  -21.1612  -47.0944 C.3       10 UNK        -0.1800 
     24 N           1.0790  -21.9126  -44.8097 N.am      10 UNK        -0.5000 
     25 C           0.7872  -22.8238  -43.8684 C.2       9 UNK         0.5000 
     26 O           0.2678  -23.9120  -44.1156 O.2       9 UNK        -0.5000 
     27 CA          1.0964  -22.4578  -42.4014 C.3       9 UNK         0.1400 
     28 CB          2.4885  -22.9686  -42.0016 C.3       9 UNK        -0.1800 
     29 N           1.0198  -21.0217  -42.1299 N.am      9 UNK        -0.5000 
     30 C          -0.0900  -20.2775  -42.2361 C.2       8 UNK         0.5000 
     31 O          -1.1992  -20.7462  -42.4885 O.2       8 UNK        -0.5000 
     32 CA          0.0715  -18.7494  -42.1000 C.3       8 UNK         0.1400 
     33 CB         -0.3489  -18.2877  -40.6990 C.3       8 UNK        -0.1800 
     34 N           1.4182  -18.2485  -42.4105 N.am      8 UNK        -0.5000 
     35 C           2.0364  -18.4076  -43.5935 C.2       7 UNK         0.5000 
     36 O           1.5326  -19.0310  -44.5279 O.2       7 UNK        -0.5000 
     37 CA          3.4443  -17.8084  -43.7775 C.3       7 UNK         0.1400 
     38 CB          3.4997  -16.9246  -45.0325 C.3       7 UNK        -0.1800 
     39 N           3.8900  -17.0263  -42.6248 N.am      7 UNK        -0.5000 
     40 C           4.6015  -17.5079  -41.5958 C.2       6 UNK         0.5000 
     41 O           4.9733  -18.6787  -41.5139 O.2       6 UNK        -0.5000 
     42 CA          4.9348  -16.5259  -40.4520 C.3       6 UNK         0.1400 
     43 CB          6.3348  -15.9254  -40.6499 C.3       6 UNK        -0.1800 
     44 N           3.9635  -15.4370  -40.3187 N.am      6 UNK        -0.5000 
     45 C           2.6779  -15.6034  -39.9823 C.2       5 UNK         0.5000 
     46 O           2.1959  -16.6949  -39.6815 O.2       5 UNK        -0.5000 
     47 CA          1.7535  -14.3720  -40.0555 C.3       5 UNK         0.1400 
     48 CB          2.4988  -13.0197  -39.9939 C.3       5 UNK        -0.1800 
     49 N           0.8877  -14.4362  -41.2390 N.am      5 UNK        -0.5000 
     50 C           1.2776  -14.5014  -42.5215 C.2       4 UNK         0.5000 
     51 O           2.4589  -14.4967  -42.8749 O.2       4 UNK        -0.5000 
     52 CA          0.1836  -14.6184  -43.6033 C.3       4 UNK         0.1400 
     53 CB         -1.2647  -14.5848  -43.0670 C.3       4 UNK        -0.1800 
     54 N           0.3747  -13.6278  -44.6645 N.am      4 UNK        -0.5000 
     55 C           0.3793  -12.2902  -44.5394 C.2       3 UNK         0.5000 
     56 O           0.1494  -11.7008  -43.4823 O.2       3 UNK        -0.5000 
     57 CA          0.7008  -11.4538  -45.7982 C.3       3 UNK         0.1400 
     58 CB          2.1247  -10.8835  -45.7086 C.3       3 UNK        -0.1800 
     59 N           0.5750  -12.2013  -47.0498 N.am      3 UNK        -0.5000 
     60 C          -0.5840  -12.6121  -47.5847 C.2       2 UNK         0.5000 
     61 O          -1.6870  -12.2914  -47.1412 O.2       2 UNK        -0.5000 
     62 CA         -0.5084  -13.5644  -48.7973 C.3       2 UNK         0.1400 
     63 CB         -0.8552  -12.8258  -50.0982 C.3       2 UNK        -0.1800 
     64 N           0.7801  -14.2412  -48.9673 N.am      2 UNK        -0.5000 
     65 C           1.3729  -15.0486  -48.0747 C.2       1 UNK         0.5000 
     66 O           0.8873  -15.3262  -46.9789 O.2       1 UNK        -0.5000 
     67 C          -3.6243  -21.1893  -45.2069 C.2       11 UNK         0.5000 
     68 O          -4.7579  -21.2658  -45.6796 O.2       11 UNK        -0.5000 
     69 N          -3.1717  -22.0081  -44.2461 N.am      12 UNK        -0.5000 
     70 CA         -3.9009  -23.1446  -43.6780 C.3       12 UNK         0.1400 
     71 CB         -3.1102  -23.6928  -42.4807 C.3       12 UNK        -0.1800 
     72 C          -4.1979  -24.2706  -44.6924 C.2       12 UNK         0.5000 
     73 O          -5.1369  -25.0375  -44.4789 O.2       12 UNK        -0.5000 
     74 N          -3.4245  -24.3334  -45.7846 N.am      13 UNK        -0.5000 
     75 CA         -3.6224  -25.2311  -46.9244 C.3       13 UNK         0.1400 
     76 CB         -2.2674  -25.8661  -47.2856 C.3       13 UNK        -0.1800 
     77 C          -4.2362  -24.4734  -48.1216 C.2       13 UNK         0.5000 
     78 O          -4.0365  -24.8762  -49.2673 O.2       13 UNK        -0.5000 
     79 N          -4.9389  -23.3664  -47.8386 N.am      14 UNK        -0.5000 
     80 CA         -5.4365  -22.3261  -48.7436 C.3       14 UNK         0.1400 
     81 CB         -6.2891  -22.8806  -49.9030 C.3       14 UNK        -0.1800 
     82 C          -4.2980  -21.4213  -49.2393 C.2       14 UNK         0.5000 
     83 O          -4.3499  -20.2141  -49.0188 O.2       14 UNK        -0.5000 
     84 N          -3.2762  -22.0168  -49.8575 N.am      15 UNK        -0.5000 
     85 CA         -2.0713  -21.3541  -50.3341 C.3       15 UNK         0.1400 
     86 CB         -2.3692  -20.6495  -51.6708 C.3       15 UNK        -0.1800 
     87 C          -0.9532  -22.3961  -50.4821 C.2       15 UNK         0.5000 
     88 O          -1.2229  -23.5986  -50.4517 O.2       15 UNK        -0.5000 
     89 N           0.2838  -21.9166  -50.6783 N.am      16 UNK        -0.5000 
     90 CA          1.4627  -22.7423  -50.9678 C.3       16 UNK         0.1400 
     91 CB          2.7193  -21.8565  -50.9647 C.3       16 UNK        -0.1800 
     92 C           1.3289  -23.4934  -52.3072 C.2       16 UNK         0.5000 
     93 O           1.6911  -24.6667  -52.3964 O.2       16 UNK        -0.5000 
     94 N           0.7483  -22.8074  -53.2984 N.am      17 UNK        -0.5000 
     95 CA          0.1959  -23.3867  -54.5143 C.3       17 UNK         0.1400 
     96 CB          0.6258  -22.5344  -55.7214 C.3       17 UNK        -0.1800 
     97 C          -1.3258  -23.3955  -54.3155 C.2       17 UNK         0.5000 
     98 O          -1.9985  -22.4342  -54.6899 O.2       17 UNK        -0.5000 
     99 N          -1.8294  -24.4475  -53.6545 N.am      18 UNK        -0.5000 
    100 CA        -3.2040  -24.5798  -53.1492 C.3       18 UNK         0.1400 
    101 CB        -3.3548  -25.9464  -52.4664 C.3       18 UNK        -0.1800 
    102 C         -4.3167  -24.3752  -54.1962 C.2       18 UNK         0.5000 
    103 O         -5.4177  -23.9587  -53.8350 O.2       18 UNK        -0.5000 
    104 N         -3.9917  -24.6104  -55.4754 N.am      19 UNK        -0.5000 
    105 CA        -4.8274  -24.3362  -56.6465 C.3       19 UNK         0.1400 
    106 CB        -4.0955  -24.8388  -57.9005 C.3       19 UNK        -0.1800 
    107 C         -5.2295  -22.8540  -56.8152 C.2       19 UNK         0.5000 
    108 O         -6.2106  -22.5806  -57.5078 O.2       19 UNK        -0.5000 
    109 N         -4.4990  -21.9278  -56.1721 N.am      20 UNK        -0.5000 
    110 CA        -4.8532  -20.5089  -56.0726 C.3       20 UNK         0.1400 
    111 CB        -3.6861  -19.7357  -55.4396 C.3       20 UNK        -0.1800 
    112 C         -6.1524  -20.2641  -55.2766 C.2       20 UNK         0.5000 
    113 O         -6.8457  -19.2843  -55.5519 O.2       20 UNK        -0.5000 
    114 N         -6.4636  -21.1709  -54.3343 N.am      21 UNK        -0.5000 
    115 CA        -7.6950  -21.2495  -53.5417 C.3       21 UNK         0.1400 
    116 CB        -8.8672  -21.7006  -54.4376 C.3       21 UNK        -0.1800 
    117 C         -8.0091  -19.9690  -52.7374 C.2       21 UNK         0.5000 
    118 O         -9.1667  -19.5488  -52.6732 O.2       21 UNK        -0.5000 
    119 N         -6.9678  -19.3632  -52.1522 N.am      22 UNK        -0.5000 
    120 CA        -7.0580  -18.1473  -51.3285 C.3       22 UNK         0.1400 
    121 C         -7.9067  -18.3404  -50.0380 C.2       22 UNK         0.5000 
    122 N         -8.5782  -17.2960  -49.5712 N.am      22 UNK        -0.7600 
    123 O         -7.9338  -19.4119  -49.4361 O.2       22 UNK        -0.5000 
    124 C124       -5.6616  -17.5876  -50.9606 C.3       23 UNK        -0.0398 
    125 S125       -4.5729  -17.2943  -52.3943 S.3       23 UNK        -0.2404 
    126 C126       -3.4201  -16.0660  -51.7012 C.3       23 UNK        -0.0205 
    127 H127        4.7719  -13.4604  -51.1922 H         1 UNK         0.0600 
    128 H128        5.6141  -12.4753  -49.9923 H         1 UNK         0.0600 
    129 H129        4.0827  -11.9184  -50.6755 H         1 UNK         0.0600 
    130 H130        3.7147  -15.2069  -50.2813 H         1 UNK         0.3000 
    131 H131        3.3497  -15.5251  -47.5054 H         1 UNK         0.0600 
    132 H132        3.7488  -17.4846  -48.7895 H         1 UNK         0.0800 
    133 H133        2.1632  -17.6586  -48.1135 H         1 UNK         0.0800 
    134 H134        0.5831  -19.1100  -51.1509 H         1 UNK         0.0800 
    135 H135        1.0061  -19.2544  -49.4601 H         1 UNK         0.0800 
    136 H136       -1.0900  -17.4536  -51.9300 H         1 UNK         0.1150 
    137 H137       -3.8083  -15.9110  -49.0053 H         1 UNK         0.1150 
    138 H138       -0.2678  -17.9966  -47.7664 H         1 UNK         0.1150 
    139 H139       -2.2686  -15.5378  -46.6219 H         1 UNK         0.0800 
    140 H140       -3.5625  -16.7047  -46.6459 H         1 UNK         0.0800 
    141 H141       -3.8255  -18.4200  -45.1472 H         1 UNK         0.0800 
    142 H142       -2.7156  -18.9591  -43.9240 H         1 UNK         0.0800 
    143 H143       -2.8866  -19.9651  -46.8000 H         1 UNK         0.0600 
    144 H144       -0.5867  -20.0736  -45.1956 H         1 UNK         0.3000 
    145 H145        0.8388  -23.0827  -46.5265 H         1 UNK         0.0600 
    146 H146        2.6462  -21.3919  -46.9452 H         1 UNK         0.0600 
    147 H147        1.4468  -20.0994  -46.8949 H         1 UNK         0.0600 
    148 H148        1.3677  -21.3262  -48.1468 H         1 UNK         0.0600 
    149 H149        1.4576  -21.0129  -44.5326 H         1 UNK         0.3000 
    150 H150        0.3538  -22.9566  -41.7750 H         1 UNK         0.0600 
    151 H151        2.5731  -24.0432  -42.1688 H         1 UNK         0.0600 
    152 H152        2.6865  -22.7889  -40.9447 H         1 UNK         0.0600 
    153 H153        3.2764  -22.4830  -42.5789 H         1 UNK         0.0600 
    154 H154        1.8879  -20.5529  -41.9171 H         1 UNK         0.3000 
    155 H155       -0.6118  -18.2919  -42.8154 H         1 UNK         0.0600 
    156 H156       -1.3589  -18.6248  -40.4623 H         1 UNK         0.0600 
    157 H157       -0.3470  -17.2004  -40.6243 H         1 UNK         0.0600 
    158 H158        0.3170  -18.6814  -39.9303 H         1 UNK         0.0600 
    159 H159        1.8974  -17.7542  -41.6685 H         1 UNK         0.3000 
    160 H160        4.1272  -18.6457  -43.9347 H         1 UNK         0.0600 
    161 H161        2.7744  -16.1120  -44.9897 H         1 UNK         0.0600 
    162 H162        3.2811  -17.5108  -45.9249 H         1 UNK         0.0600 
    163 H163        4.4888  -16.4867  -45.1668 H         1 UNK         0.0600 
    164 H164        3.5932  -16.0538  -42.6078 H         1 UNK         0.3000 
    165 H165        4.9343  -17.0946  -39.5198 H         1 UNK         0.0600 
    166 H166        6.6138  -15.2889  -39.8100 H         1 UNK         0.0600 
    167 H167        7.0891  -16.7097  -40.7264 H         1 UNK         0.0600 
    168 H168        6.3903  -15.3263  -41.5597 H         1 UNK         0.0600 
    169 H169        4.2722  -14.5157  -40.5939 H         1 UNK         0.3000 
    170 H170        1.0994  -14.4274  -39.1841 H         1 UNK         0.0600 
    171 H171        3.1368  -12.8513  -40.8618 H         1 UNK         0.0600 
    172 H172        1.7912  -12.1918  -39.9459 H         1 UNK         0.0600 
    173 H173        3.1255  -12.9579  -39.1034 H         1 UNK         0.0600 
    174 H174       -0.1037  -14.4593  -41.0479 H         1 UNK         0.3000 
    175 H175        0.3346  -15.5910  -44.0735 H         1 UNK         0.0600 
    176 H176       -1.4910  -13.6556  -42.5433 H         1 UNK         0.0600 
    177 H177       -1.9801  -14.6843  -43.8836 H         1 UNK         0.0600 
    178 H178       -1.4509  -15.4130  -42.3822 H         1 UNK         0.0600 
    179 H179        0.5897  -14.0275  -45.5737 H         1 UNK         0.3000 
    180 H180       -0.0018  -10.6184  -45.8259 H         1 UNK         0.0600 
    181 H181        2.3520  -10.2495  -46.5658 H         1 UNK         0.0600 
    182 H182        2.8720  -11.6775  -45.6711 H         1 UNK         0.0600 
    183 H183        2.2475  -10.2746  -44.8120 H         1 UNK         0.0600 
    184 H184        1.4400  -12.5070  -47.4785 H         1 UNK         0.3000 
    185 H185       -1.2612  -14.3335  -48.6354 H         1 UNK         0.0600 
    186 H186       -0.9133  -13.5176  -50.9391 H         1 UNK         0.0600 
    187 H187       -1.8241  -12.3306  -50.0212 H         1 UNK         0.0600 
    188 H188       -0.1131  -12.0632  -50.3372 H         1 UNK         0.0600 
    189 H189        1.2661  -14.0682  -49.8346 H         1 UNK         0.3000 
    190 H190       -2.2604  -21.8118  -43.8452 H         1 UNK         0.3000 
    191 H191       -4.8605  -22.7731  -43.3131 H         1 UNK         0.0600 
    192 H192       -2.9511  -22.9224  -41.7258 H         1 UNK         0.0600 
    193 H193       -2.1337  -24.0710  -42.7843 H         1 UNK         0.0600 
    194 H194       -3.6452  -24.5129  -42.0002 H         1 UNK         0.0600 
    195 H195       -2.6983  -23.6363  -45.9096 H         1 UNK         0.3000 
    196 H196       -4.3138  -26.0341  -46.6626 H         1 UNK         0.0600 
    197 H197       -1.8263  -26.3715  -46.4263 H         1 UNK         0.0600 
    198 H198       -1.5551  -25.1183  -47.6371 H         1 UNK         0.0600 
    199 H199       -2.3792  -26.6088  -48.0763 H         1 UNK         0.0600 
    200 H200       -4.9883  -23.1005  -46.8629 H         1 UNK         0.3000 
    201 H201       -6.0937  -21.7026  -48.1349 H         1 UNK         0.0600 
    202 H202       -6.7823  -22.0645  -50.4313 H         1 UNK         0.0600 
    203 H203       -7.0683  -23.5486  -49.5367 H         1 UNK         0.0600 
    204 H204       -5.6940  -23.4253  -50.6365 H         1 UNK         0.0600 
    205 H205       -3.2560  -23.0319  -49.9163 H         1 UNK         0.3000 
    206 H206       -1.7496  -20.6203  -49.5919 H         1 UNK         0.0600 
    207 H207       -2.8011  -21.3390  -52.3952 H         1 UNK         0.0600 
    208 H208       -3.0760  -19.8318  -51.5323 H         1 UNK         0.0600 
    209 H209       -1.4710  -20.2227  -52.1163 H         1 UNK         0.0600 
    210 H210        0.4238  -20.9196  -50.6913 H         1 UNK         0.3000 
    211 H211        1.5602  -23.4853  -50.1733 H         1 UNK         0.0600 
    212 H212        2.6636  -21.0711  -51.7195 H         1 UNK         0.0600 
    213 H213        3.6117  -22.4479  -51.1738 H         1 UNK         0.0600 
    214 H214        2.8706  -21.3790  -49.9971 H         1 UNK         0.0600 
    215 H215        0.4657  -21.8572  -53.1094 H         1 UNK         0.3000 
    216 H216        0.5436  -24.4104  -54.6678 H         1 UNK         0.0600 
    217 H217        0.1844  -22.9154  -56.6430 H         1 UNK         0.0600 
    218 H218        1.7085  -22.5523  -55.8462 H         1 UNK         0.0600 
    219 H219        0.3207  -21.4923  -55.6165 H         1 UNK         0.0600 
    220 H220       -1.1874  -25.1679  -53.3560 H         1 UNK         0.3000 
    221 H221       -3.3412  -23.8086  -52.3890 H         1 UNK         0.0600 
    222 H222       -3.1830  -26.7673  -53.1633 H         1 UNK         0.0600 
    223 H223       -2.6525  -26.0504  -51.6387 H         1 UNK         0.0600 
    224 H224       -4.3566  -26.0675  -52.0514 H         1 UNK         0.0600 
    225 H225       -3.0555  -24.9366  -55.6636 H         1 UNK         0.3000 
    226 H226       -5.7498  -24.9091  -56.5327 H         1 UNK         0.0600 
    227 H227       -3.8850  -25.9064  -57.8345 H         1 UNK         0.0600 
    228 H228       -4.6997  -24.6836  -58.7955 H         1 UNK         0.0600 
    229 H229       -3.1493  -24.3168  -58.0486 H         1 UNK         0.0600 
    230 H230       -3.6785  -22.2223  -55.6490 H         1 UNK         0.3000 
    231 H231       -5.0065  -20.1293  -57.0848 H         1 UNK         0.0600 
    232 H232       -3.8994  -18.6666  -55.4033 H         1 UNK         0.0600 
    233 H233       -2.7673  -19.8666  -56.0114 H         1 UNK         0.0600 
    234 H234       -3.4940  -20.0643  -54.4180 H         1 UNK         0.0600 
    235 H235       -5.8369  -21.9593  -54.2150 H         1 UNK         0.3000 
    236 H236       -7.5290  -22.0361  -52.8047 H         1 UNK         0.0600 
    237 H237       -9.1180  -20.9460  -55.1837 H         1 UNK         0.0600 
    238 H238       -8.6258  -22.6243  -54.9641 H         1 UNK         0.0600 
    239 H239       -9.7638  -21.8904  -53.8465 H         1 UNK         0.0600 
    240 H240       -6.0453  -19.7536  -52.2689 H         1 UNK         0.3000 
    241 H241       -7.5624  -17.3980  -51.9418 H         1 UNK         0.0600 
    242 H242       -8.5736  -16.4054  -50.0441 H         1 UNK         0.3800 
    243 H243       -9.1225  -17.4038  -48.7293 H         1 UNK         0.3800 
    244 H244       -5.1434  -18.2604  -50.2812 H         1 UNK         0.0800 
    245 H245       -5.7766  -16.6460  -50.4215 H         1 UNK         0.0800 
    246 H246       -2.7798  -15.6966  -52.5035 H         1 UNK         0.0800 
    247 H247       -3.9793  -15.2008  -51.3420 H         1 UNK         0.0800 
@<TRIPOS>BOND
     1    1    2 1    
     2    1  127 1    
     3    1  128 1    
     4    1  129 1    
     5    2    3 2    
     6    2    4 am   BACKBONE|DICT|INTERRES
     7    4    5 1    
     8    4  130 1    
     9    5    6 1    
    10    5   65 1    
    11    5  131 1    
    12    6    7 1    
    13    6  132 1    
    14    6  133 1    
    15    7    8 1    
    16    8    9 1    
    17    8  134 1    
    18    8  135 1    
    19    9   10 ar   
    20    9   14 ar   
    21   10   11 ar   
    22   10  136 1    
    23   11   12 ar   
    24   11  126 1    
    25   12   13 ar   
    26   12  137 1    
    27   13   14 ar   
    28   13   15 1    
    29   14  138 1    
    30   15   16 1    
    31   15  139 1    
    32   15  140 1    
    33   16   17 1    
    34   17   18 1    
    35   17  141 1    
    36   17  142 1    
    37   18   19 1    
    38   18   67 1    
    39   18  143 1    
    40   19   20 am   BACKBONE|DICT|INTERRES
    41   19  144 1    
    42   20   21 2    
    43   20   22 1    
    44   22   23 1    
    45   22   24 1    
    46   22  145 1    
    47   23  146 1    
    48   23  147 1    
    49   23  148 1    
    50   24   25 am   BACKBONE|DICT|INTERRES
    51   24  149 1    
    52   25   26 2    
    53   25   27 1    
    54   27   28 1    
    55   27   29 1    
    56   27  150 1    
    57   28  151 1    
    58   28  152 1    
    59   28  153 1    
    60   29   30 am   BACKBONE|DICT|INTERRES
    61   29  154 1    
    62   30   31 2    
    63   30   32 1    
    64   32   33 1    
    65   32   34 1    
    66   32  155 1    
    67   33  156 1    
    68   33  157 1    
    69   33  158 1    
    70   34   35 am   BACKBONE|DICT|INTERRES
    71   34  159 1    
    72   35   36 2    
    73   35   37 1    
    74   37   38 1    
    75   37   39 1    
    76   37  160 1    
    77   38  161 1    
    78   38  162 1    
    79   38  163 1    
    80   39   40 am   BACKBONE|DICT|INTERRES
    81   39  164 1    
    82   40   41 2    
    83   40   42 1    
    84   42   43 1    
    85   42   44 1    
    86   42  165 1    
    87   43  166 1    
    88   43  167 1    
    89   43  168 1    
    90   44   45 am   BACKBONE|DICT|INTERRES
    91   44  169 1    
    92   45   46 2    
    93   45   47 1    
    94   47   48 1    
    95   47   49 1    
    96   47  170 1    
    97   48  171 1    
    98   48  172 1    
    99   48  173 1    
   100   49   50 am   BACKBONE|DICT|INTERRES
   101   49  174 1    
   102   50   51 2    
   103   50   52 1    
   104   52   53 1    
   105   52   54 1    
   106   52  175 1    
   107   53  176 1    
   108   53  177 1    
   109   53  178 1    
   110   54   55 am   BACKBONE|DICT|INTERRES
   111   54  179 1    
   112   55   56 2    
   113   55   57 1    
   114   57   58 1    
   115   57   59 1    
   116   57  180 1    
   117   58  181 1    
   118   58  182 1    
   119   58  183 1    
   120   59   60 am   BACKBONE|DICT|INTERRES
   121   59  184 1    
   122   60   61 2    
   123   60   62 1    
   124   62   63 1    
   125   62   64 1    
   126   62  185 1    
   127   63  186 1    
   128   63  187 1    
   129   63  188 1    
   130   64   65 am   BACKBONE|DICT|INTERRES
   131   64  189 1    
   132   65   66 2    
   133   67   68 2    
   134   67   69 am   BACKBONE|DICT|INTERRES
   135   69   70 1    
   136   69  190 1    
   137   70   71 1    
   138   70   72 1    
   139   70  191 1    
   140   71  192 1    
   141   71  193 1    
   142   71  194 1    
   143   72   73 2    
   144   72   74 am   BACKBONE|DICT|INTERRES
   145   74   75 1    
   146   74  195 1    
   147   75   76 1    
   148   75   77 1    
   149   75  196 1    
   150   76  197 1    
   151   76  198 1    
   152   76  199 1    
   153   77   78 2    
   154   77   79 am   BACKBONE|DICT|INTERRES
   155   79   80 1    
   156   79  200 1    
   157   80   81 1    
   158   80   82 1    
   159   80  201 1    
   160   81  202 1    
   161   81  203 1    
   162   81  204 1    
   163   82   83 2    
   164   82   84 am   BACKBONE|DICT|INTERRES
   165   84   85 1    
   166   84  205 1    
   167   85   86 1    
   168   85   87 1    
   169   85  206 1    
   170   86  207 1    
   171   86  208 1    
   172   86  209 1    
   173   87   88 2    
   174   87   89 am   BACKBONE|DICT|INTERRES
   175   89   90 1    
   176   89  210 1    
   177   90   91 1    
   178   90   92 1    
   179   90  211 1    
   180   91  212 1    
   181   91  213 1    
   182   91  214 1    
   183   92   93 2    
   184   92   94 am   BACKBONE|DICT|INTERRES
   185   94   95 1    
   186   94  215 1    
   187   95   96 1    
   188   95   97 1    
   189   95  216 1    
   190   96  217 1    
   191   96  218 1    
   192   96  219 1    
   193   97   98 2    
   194   97   99 am   BACKBONE|DICT|INTERRES
   195   99  100 1    
   196   99  220 1    
   197  100  101 1    
   198  100  102 1    
   199  100  221 1    
   200  101  222 1    
   201  101  223 1    
   202  101  224 1    
   203  102  103 2    
   204  102  104 am   BACKBONE|DICT|INTERRES
   205  104  105 1    
   206  104  225 1    
   207  105  106 1    
   208  105  107 1    
   209  105  226 1    
   210  106  227 1    
   211  106  228 1    
   212  106  229 1    
   213  107  108 2    
   214  107  109 am   BACKBONE|DICT|INTERRES
   215  109  110 1    
   216  109  230 1    
   217  110  111 1    
   218  110  112 1    
   219  110  231 1    
   220  111  232 1    
   221  111  233 1    
   222  111  234 1    
   223  112  113 2    
   224  112  114 am   BACKBONE|DICT|INTERRES
   225  114  115 1    
   226  114  235 1    
   227  115  116 1    
   228  115  117 1    
   229  115  236 1    
   230  116  237 1    
   231  116  238 1    
   232  116  239 1    
   233  117  118 2    
   234  117  119 am   BACKBONE|DICT|INTERRES
   235  119  120 1    
   236  119  240 1    
   237  120  121 1    
   238  120  124 1    
   239  120  241 1    
   240  121  122 am   BACKBONE|DICT|INTERRES
   241  121  123 2    
   242  122  242 1    
   243  122  243 1    
   244  124  125 1    
   245  124  244 1    
   246  124  245 1    
   247  125  126 1    
   248  126  246 1    
   249  126  247 1    
@<TRIPOS>SUBSTRUCTURE
     1 UNK         1 GROUP             0       ****    0 ROOT    
