@<TRIPOS>MOLECULE
3R540
247   249    1
SMALL
USER_CHARGES


@<TRIPOS>ATOM
      1 CA          3.8227   -8.6416  -48.7489 C.3       0 UNK        -0.1800 
      2 C           3.3468   -9.8516  -47.9587 C.2       0 UNK         0.5000 
      3 O           3.7684  -10.0427  -46.8186 O.2       0 UNK        -0.5000 
      4 N           2.4547  -10.6600  -48.5485 N.am      1 UNK        -0.5000 
      5 CA          1.8995  -11.8884  -47.9601 C.3       1 UNK         0.1400 
      6 C6          1.0525  -12.6712  -48.9945 C.3       23 UNK        -0.0398 
      7 S7          0.8911  -14.4410  -48.5886 S.3       23 UNK        -0.2404 
      8 C8          0.0120  -15.0395  -50.0621 C.3       23 UNK        -0.0205 
      9 C9         -0.4897  -16.4588  -49.8554 C.ar      23 UNK        -0.0193 
     10 C10        -1.7654  -16.6787  -49.3330 C.ar      23 UNK        -0.1150 
     11 C11        -2.2323  -17.9787  -49.1307 C.ar      23 UNK        -0.0193 
     12 C12        -1.4188  -19.0633  -49.4670 C.ar      23 UNK        -0.1150 
     13 C13        -0.1268  -18.8615  -49.9726 C.ar      23 UNK        -0.0193 
     14 C14         0.3220  -17.5516  -50.1711 C.ar      23 UNK        -0.1150 
     15 C15         0.8252  -20.0100  -50.3169 C.3       23 UNK        -0.0205 
     16 S16         0.3632  -21.6627  -49.6893 S.3       23 UNK        -0.2404 
     17 C17         0.4751  -21.3971  -47.8849 C.3       23 UNK        -0.0398 
     18 CA         -0.0855  -22.5652  -47.0418 C.3       11 UNK         0.1400 
     19 N           0.1527  -22.3549  -45.6149 N.am      11 UNK        -0.5000 
     20 C          -0.0436  -23.2679  -44.6548 C.2       10 UNK         0.5000 
     21 O          -0.4120  -24.4211  -44.8734 O.2       10 UNK        -0.5000 
     22 CA          0.1488  -22.7917  -43.2036 C.3       10 UNK         0.1400 
     23 CB          1.6377  -22.7453  -42.8306 C.3       10 UNK        -0.1800 
     24 N          -0.4645  -21.4831  -42.9687 N.am      10 UNK        -0.5000 
     25 C          -1.7822  -21.2487  -43.0522 C.2       9 UNK         0.5000 
     26 O          -2.6177  -22.1297  -43.2605 O.2       9 UNK        -0.5000 
     27 CA         -2.2409  -19.7840  -42.9236 C.3       9 UNK         0.1400 
     28 CB         -2.3345  -19.3714  -41.4474 C.3       9 UNK        -0.1800 
     29 N          -1.3763  -18.8465  -43.6445 N.am      9 UNK        -0.5000 
     30 C          -1.2084  -18.8339  -44.9751 C.2       8 UNK         0.5000 
     31 O          -1.7915  -19.5994  -45.7390 O.2       8 UNK        -0.5000 
     32 CA         -0.1724  -17.8474  -45.5456 C.3       8 UNK         0.1400 
     33 CB         -0.7431  -16.4236  -45.6117 C.3       8 UNK        -0.1800 
     34 N           1.0714  -17.8516  -44.7752 N.am      8 UNK        -0.5000 
     35 C           1.8718  -18.9178  -44.6329 C.2       7 UNK         0.5000 
     36 O           1.6833  -19.9949  -45.1959 O.2       7 UNK        -0.5000 
     37 CA          3.0466  -18.7792  -43.6521 C.3       7 UNK         0.1400 
     38 CB          4.2629  -18.1358  -44.3343 C.3       7 UNK        -0.1800 
     39 N           2.6684  -18.0085  -42.4680 N.am      7 UNK        -0.5000 
     40 C           1.8604  -18.4655  -41.5008 C.2       6 UNK         0.5000 
     41 O           1.3864  -19.6019  -41.4883 O.2       6 UNK        -0.5000 
     42 CA          1.4895  -17.4736  -40.3820 C.3       6 UNK         0.1400 
     43 CB          2.5873  -17.4312  -39.3089 C.3       6 UNK        -0.1800 
     44 N           1.2491  -16.1197  -40.8853 N.am      6 UNK        -0.5000 
     45 C           0.2183  -15.7816  -41.6724 C.2       5 UNK         0.5000 
     46 O          -0.6616  -16.5701  -42.0148 O.2       5 UNK        -0.5000 
     47 CA          0.1834  -14.3355  -42.2034 C.3       5 UNK         0.1400 
     48 CB         -0.5807  -13.4231  -41.2332 C.3       5 UNK        -0.1800 
     49 N           1.5006  -13.7532  -42.4746 N.am      5 UNK        -0.5000 
     50 C           2.4240  -14.2623  -43.3035 C.2       4 UNK         0.5000 
     51 O           2.3049  -15.3538  -43.8613 O.2       4 UNK        -0.5000 
     52 CA          3.6754  -13.3992  -43.5470 C.3       4 UNK         0.1400 
     53 CB          4.4501  -13.8281  -44.8061 C.3       4 UNK        -0.1800 
     54 N           3.2850  -11.9996  -43.6941 N.am      4 UNK        -0.5000 
     55 C           3.6228  -10.9918  -42.8800 C.2       3 UNK         0.5000 
     56 O           4.3256  -11.1331  -41.8788 O.2       3 UNK        -0.5000 
     57 CA          3.0832   -9.5894  -43.2295 C.3       3 UNK         0.1400 
     58 CB          4.2258   -8.6632  -43.6757 C.3       3 UNK        -0.1800 
     59 N           2.0613   -9.6254  -44.2788 N.am      3 UNK        -0.5000 
     60 C           0.7588   -9.8595  -44.0600 C.2       2 UNK         0.5000 
     61 O           0.2747  -10.0055  -42.9375 O.2       2 UNK        -0.5000 
     62 CA         -0.1573   -9.9773  -45.2967 C.3       2 UNK         0.1400 
     63 CB         -0.8371   -8.6316  -45.5906 C.3       2 UNK        -0.1800 
     64 N           0.5330  -10.4358  -46.5056 N.am      2 UNK        -0.5000 
     65 C           1.1183  -11.6344  -46.6485 C.2       1 UNK         0.5000 
     66 O           1.1108  -12.4932  -45.7681 O.2       1 UNK        -0.5000 
     67 C          -1.5712  -22.8686  -47.3370 C.2       11 UNK         0.5000 
     68 O          -1.8430  -23.8017  -48.0925 O.2       11 UNK        -0.5000 
     69 N          -2.5019  -22.1291  -46.7130 N.am      12 UNK        -0.5000 
     70 CA         -3.9518  -22.3431  -46.8006 C.3       12 UNK         0.1400 
     71 CB         -4.7017  -21.2814  -45.9809 C.3       12 UNK        -0.1800 
     72 C          -4.3852  -23.7492  -46.3541 C.2       12 UNK         0.5000 
     73 O          -5.2274  -24.3618  -47.0108 O.2       12 UNK        -0.5000 
     74 N          -3.7838  -24.2389  -45.2621 N.am      13 UNK        -0.5000 
     75 CA         -3.9845  -25.5947  -44.7558 C.3       13 UNK         0.1400 
     76 CB         -3.4218  -25.6921  -43.3295 C.3       13 UNK        -0.1800 
     77 C          -3.3574  -26.6657  -45.6693 C.2       13 UNK         0.5000 
     78 O          -3.9507  -27.7303  -45.8472 O.2       13 UNK        -0.5000 
     79 N          -2.1720  -26.3710  -46.2198 N.am      14 UNK        -0.5000 
     80 CA         -1.4023  -27.2754  -47.0698 C.3       14 UNK         0.1400 
     81 CB          0.0509  -26.7843  -47.1676 C.3       14 UNK        -0.1800 
     82 C          -2.0073  -27.4698  -48.4713 C.2       14 UNK         0.5000 
     83 O          -2.2166  -28.6149  -48.8759 O.2       14 UNK        -0.5000 
     84 N          -2.2416  -26.3693  -49.2014 N.am      15 UNK        -0.5000 
     85 CA         -2.6156  -26.4124  -50.6205 C.3       15 UNK         0.1400 
     86 CB         -1.3683  -26.7157  -51.4745 C.3       15 UNK        -0.1800 
     87 C          -3.3204  -25.1511  -51.1522 C.2       15 UNK         0.5000 
     88 O          -3.8497  -25.2106  -52.2620 O.2       15 UNK        -0.5000 
     89 N          -3.3013  -24.0361  -50.4068 N.am      16 UNK        -0.5000 
     90 CA         -3.8904  -22.7354  -50.7537 C.3       16 UNK         0.1400 
     91 CB         -5.4296  -22.8093  -50.7237 C.3       16 UNK        -0.1800 
     92 C          -3.3357  -22.1664  -52.0739 C.2       16 UNK         0.5000 
     93 O          -4.0961  -21.8662  -52.9984 O.2       16 UNK        -0.5000 
     94 N          -2.0008  -22.0589  -52.1283 N.am      17 UNK        -0.5000 
     95 CA         -1.2001  -21.5979  -53.2661 C.3       17 UNK         0.1400 
     96 CB         -1.4763  -20.1097  -53.5680 C.3       17 UNK        -0.1800 
     97 C          -1.3468  -22.5172  -54.4962 C.2       17 UNK         0.5000 
     98 O          -1.5339  -22.0354  -55.6130 O.2       17 UNK        -0.5000 
     99 N          -1.2581  -23.8335  -54.2503 N.am      18 UNK        -0.5000 
    100 CA        -1.3565  -24.9259  -55.2259 C.3       18 UNK         0.1400 
    101 CB        -0.1783  -24.8844  -56.2225 C.3       18 UNK        -0.1800 
    102 C         -2.7366  -24.9802  -55.9123 C.2       18 UNK         0.5000 
    103 O         -2.8227  -24.9913  -57.1416 O.2       18 UNK        -0.5000 
    104 N         -3.7919  -25.0069  -55.0852 N.am      19 UNK        -0.5000 
    105 CA        -5.2112  -25.0800  -55.4479 C.3       19 UNK         0.1400 
    106 CB        -5.5306  -26.3977  -56.1851 C.3       19 UNK        -0.1800 
    107 C         -5.7372  -23.8333  -56.1902 C.2       19 UNK         0.5000 
    108 O         -6.7606  -23.9131  -56.8717 O.2       19 UNK        -0.5000 
    109 N         -5.0587  -22.6917  -56.0157 N.am      20 UNK        -0.5000 
    110 CA        -5.4622  -21.3893  -56.5510 C.3       20 UNK         0.1400 
    111 CB        -4.2028  -20.5530  -56.8231 C.3       20 UNK        -0.1800 
    112 C         -6.4192  -20.6347  -55.6068 C.2       20 UNK         0.5000 
    113 O         -6.8114  -19.5106  -55.9242 O.2       20 UNK        -0.5000 
    114 N         -6.7405  -21.2343  -54.4491 N.am      21 UNK        -0.5000 
    115 CA        -7.5502  -20.6863  -53.3552 C.3       21 UNK         0.1400 
    116 CB        -9.0224  -20.5306  -53.7897 C.3       21 UNK        -0.1800 
    117 C         -6.9438  -19.3886  -52.7814 C.2       21 UNK         0.5000 
    118 O         -7.6748  -18.4478  -52.4672 O.2       21 UNK        -0.5000 
    119 N         -5.6061  -19.3634  -52.6991 N.am      22 UNK        -0.5000 
    120 CA        -4.7700  -18.2129  -52.3138 C.3       22 UNK         0.1400 
    121 C         -4.7520  -17.0474  -53.3523 C.2       22 UNK         0.5000 
    122 N         -5.2953  -17.2048  -54.5548 N.am      22 UNK        -0.7600 
    123 O         -4.2030  -15.9837  -53.0795 O.2       22 UNK        -0.5000 
    124 C124       -5.0419  -17.7159  -50.8664 C.3       23 UNK        -0.0398 
    125 S125       -4.7695  -19.0261  -49.6230 S.3       23 UNK        -0.2404 
    126 C126       -3.5943  -18.2124  -48.4978 C.3       23 UNK        -0.0205 
    127 H127        3.5826   -7.7248  -48.2106 H         1 UNK         0.0600 
    128 H128        3.3572   -8.5909  -49.7334 H         1 UNK         0.0600 
    129 H129        4.9032   -8.6853  -48.8848 H         1 UNK         0.0600 
    130 H130        2.1414  -10.4398  -49.4834 H         1 UNK         0.3000 
    131 H131        2.7603  -12.5064  -47.6952 H         1 UNK         0.0600 
    132 H132        0.0606  -12.2300  -49.1092 H         1 UNK         0.0800 
    133 H133        1.5241  -12.6151  -49.9768 H         1 UNK         0.0800 
    134 H134       -0.8277  -14.3785  -50.2826 H         1 UNK         0.0800 
    135 H135        0.6765  -14.9957  -50.9264 H         1 UNK         0.0800 
    136 H136       -2.3872  -15.8350  -49.0687 H         1 UNK         0.1150 
    137 H137       -1.8008  -20.0602  -49.3064 H         1 UNK         0.1150 
    138 H138        1.3145  -17.3791  -50.5635 H         1 UNK         0.1150 
    139 H139        0.9135  -20.0668  -51.4020 H         1 UNK         0.0800 
    140 H140        1.8220  -19.7736  -49.9415 H         1 UNK         0.0800 
    141 H141       -0.0255  -20.4684  -47.6136 H         1 UNK         0.0800 
    142 H142        1.5281  -21.2466  -47.6432 H         1 UNK         0.0800 
    143 H143        0.4794  -23.4570  -47.3193 H         1 UNK         0.0600 
    144 H144        0.5053  -21.4381  -45.3506 H         1 UNK         0.3000 
    145 H145       -0.3422  -23.5147  -42.5488 H         1 UNK         0.0600 
    146 H146        1.7733  -22.4644  -41.7860 H         1 UNK         0.0600 
    147 H147        2.1044  -23.7213  -42.9689 H         1 UNK         0.0600 
    148 H148        2.1866  -22.0296  -43.4424 H         1 UNK         0.0600 
    149 H149        0.1594  -20.7170  -42.7398 H         1 UNK         0.3000 
    150 H150       -3.2399  -19.7127  -43.3582 H         1 UNK         0.0600 
    151 H151       -2.9818  -20.0507  -40.8914 H         1 UNK         0.0600 
    152 H152       -2.7506  -18.3691  -41.3449 H         1 UNK         0.0600 
    153 H153       -1.3571  -19.3780  -40.9642 H         1 UNK         0.0600 
    154 H154       -0.9030  -18.1436  -43.0835 H         1 UNK         0.3000 
    155 H155        0.0681  -18.1604  -46.5640 H         1 UNK         0.0600 
    156 H156        0.0020  -15.7139  -45.9713 H         1 UNK         0.0600 
    157 H157       -1.0891  -16.0794  -44.6381 H         1 UNK         0.0600 
    158 H158       -1.5923  -16.3796  -46.2943 H         1 UNK         0.0600 
    159 H159        1.3379  -16.9838  -44.3190 H         1 UNK         0.3000 
    160 H160        3.3352  -19.7817  -43.3293 H         1 UNK         0.0600 
    161 H161        4.0313  -17.1479  -44.7311 H         1 UNK         0.0600 
    162 H162        4.6056  -18.7481  -45.1692 H         1 UNK         0.0600 
    163 H163        5.0980  -18.0337  -43.6412 H         1 UNK         0.0600 
    164 H164        2.9415  -17.0358  -42.4577 H         1 UNK         0.3000 
    165 H165        0.5696  -17.8305  -39.9138 H         1 UNK         0.0600 
    166 H166        2.2986  -16.7915  -38.4747 H         1 UNK         0.0600 
    167 H167        2.7749  -18.4266  -38.9039 H         1 UNK         0.0600 
    168 H168        3.5301  -17.0566  -39.7094 H         1 UNK         0.0600 
    169 H169        1.9297  -15.4122  -40.6510 H         1 UNK         0.3000 
    170 H170       -0.3589  -14.3495  -43.1504 H         1 UNK         0.0600 
    171 H171       -1.5777  -13.8162  -41.0297 H         1 UNK         0.0600 
    172 H172       -0.0631  -13.3278  -40.2780 H         1 UNK         0.0600 
    173 H173       -0.7063  -12.4229  -41.6489 H         1 UNK         0.0600 
    174 H174        1.6802  -12.8465  -42.0692 H         1 UNK         0.3000 
    175 H175        4.3284  -13.5313  -42.6824 H         1 UNK         0.0600 
    176 H176        3.8178  -13.8003  -45.6946 H         1 UNK         0.0600 
    177 H177        5.3054  -13.1759  -44.9838 H         1 UNK         0.0600 
    178 H178        4.8335  -14.8435  -44.7043 H         1 UNK         0.0600 
    179 H179        2.6447  -11.8134  -44.4571 H         1 UNK         0.3000 
    180 H180        2.6492   -9.1697  -42.3196 H         1 UNK         0.0600 
    181 H181        4.7444   -9.0533  -44.5517 H         1 UNK         0.0600 
    182 H182        4.9665   -8.5485  -42.8833 H         1 UNK         0.0600 
    183 H183        3.8555   -7.6674  -43.9197 H         1 UNK         0.0600 
    184 H184        2.4008   -9.5630  -45.2319 H         1 UNK         0.3000 
    185 H185       -0.9328  -10.7085  -45.0588 H         1 UNK         0.0600 
    186 H186       -1.3849   -8.2718  -44.7185 H         1 UNK         0.0600 
    187 H187       -0.1104   -7.8646  -45.8613 H         1 UNK         0.0600 
    188 H188       -1.5531   -8.7207  -46.4078 H         1 UNK         0.0600 
    189 H189        0.6027   -9.7755  -47.2661 H         1 UNK         0.3000 
    190 H190       -2.1984  -21.3308  -46.1586 H         1 UNK         0.3000 
    191 H191       -4.2427  -22.2226  -47.8431 H         1 UNK         0.0600 
    192 H192       -4.4542  -20.2732  -46.3017 H         1 UNK         0.0600 
    193 H193       -5.7804  -21.3971  -46.0926 H         1 UNK         0.0600 
    194 H194       -4.4764  -21.3543  -44.9179 H         1 UNK         0.0600 
    195 H195       -3.1306  -23.6495  -44.7585 H         1 UNK         0.3000 
    196 H196       -5.0588  -25.7850  -44.7081 H         1 UNK         0.0600 
    197 H197       -3.5866  -26.6861  -42.9119 H         1 UNK         0.0600 
    198 H198       -3.9054  -24.9750  -42.6658 H         1 UNK         0.0600 
    199 H199       -2.3491  -25.4986  -43.3035 H         1 UNK         0.0600 
    200 H200       -1.7278  -25.4927  -45.9735 H         1 UNK         0.3000 
    201 H201       -1.3835  -28.2526  -46.5825 H         1 UNK         0.0600 
    202 H202        0.5172  -26.7349  -46.1835 H         1 UNK         0.0600 
    203 H203        0.1141  -25.7941  -47.6178 H         1 UNK         0.0600 
    204 H204        0.6512  -27.4603  -47.7778 H         1 UNK         0.0600 
    205 H205       -2.0646  -25.4588  -48.7836 H         1 UNK         0.3000 
    206 H206       -3.3323  -27.2244  -50.7606 H         1 UNK         0.0600 
    207 H207       -0.9076  -27.6621  -51.1918 H         1 UNK         0.0600 
    208 H208       -1.6261  -26.7957  -52.5303 H         1 UNK         0.0600 
    209 H209       -0.6146  -25.9341  -51.3728 H         1 UNK         0.0600 
    210 H210       -2.8018  -24.0499  -49.5202 H         1 UNK         0.3000 
    211 H211       -3.5769  -22.0347  -49.9801 H         1 UNK         0.0600 
    212 H212       -5.8237  -23.4362  -51.5242 H         1 UNK         0.0600 
    213 H213       -5.8644  -21.8161  -50.8344 H         1 UNK         0.0600 
    214 H214       -5.7851  -23.2131  -49.7756 H         1 UNK         0.0600 
    215 H215       -1.4706  -22.3335  -51.3121 H         1 UNK         0.3000 
    216 H216       -0.1568  -21.6776  -52.9584 H         1 UNK         0.0600 
    217 H217       -0.7972  -19.7343  -54.3342 H         1 UNK         0.0600 
    218 H218       -1.3344  -19.4945  -52.6798 H         1 UNK         0.0600 
    219 H219       -2.4919  -19.9479  -53.9261 H         1 UNK         0.0600 
    220 H220       -1.1321  -24.1179  -53.2903 H         1 UNK         0.3000 
    221 H221       -1.2640  -25.8542  -54.6620 H         1 UNK         0.0600 
    222 H222       -0.2156  -24.0037  -56.8641 H         1 UNK         0.0600 
    223 H223        0.7787  -24.8790  -55.7010 H         1 UNK         0.0600 
    224 H224       -0.1881  -25.7603  -56.8723 H         1 UNK         0.0600 
    225 H225       -3.6245  -24.9896  -54.0805 H         1 UNK         0.3000 
    226 H226       -5.7506  -25.1033  -54.4999 H         1 UNK         0.0600 
    227 H227       -5.1572  -27.2593  -55.6316 H         1 UNK         0.0600 
    228 H228       -6.6068  -26.5311  -56.3003 H         1 UNK         0.0600 
    229 H229       -5.0916  -26.4223  -57.1827 H         1 UNK         0.0600 
    230 H230       -4.2356  -22.7015  -55.4274 H         1 UNK         0.3000 
    231 H231       -5.9833  -21.5308  -57.4999 H         1 UNK         0.0600 
    232 H232       -3.6736  -20.3174  -55.9004 H         1 UNK         0.0600 
    233 H233       -4.4534  -19.6083  -57.3069 H         1 UNK         0.0600 
    234 H234       -3.5119  -21.0810  -57.4808 H         1 UNK         0.0600 
    235 H235       -6.2917  -22.1188  -54.2576 H         1 UNK         0.3000 
    236 H236       -7.5220  -21.4216  -52.5508 H         1 UNK         0.0600 
    237 H237       -9.4164  -21.4658  -54.1875 H         1 UNK         0.0600 
    238 H238       -9.6509  -20.2479  -52.9445 H         1 UNK         0.0600 
    239 H239       -9.1413  -19.7638  -54.5557 H         1 UNK         0.0600 
    240 H240       -5.0981  -20.1994  -52.9733 H         1 UNK         0.3000 
    241 H241       -3.7481  -18.5917  -52.3249 H         1 UNK         0.0600 
    242 H242       -5.2596  -16.4408  -55.2106 H         1 UNK         0.3800 
    243 H243       -5.7779  -18.0571  -54.8117 H         1 UNK         0.3800 
    244 H244       -4.3974  -16.8684  -50.6310 H         1 UNK         0.0800 
    245 H245       -6.0612  -17.3437  -50.7637 H         1 UNK         0.0800 
    246 H246       -4.0275  -17.2782  -48.1372 H         1 UNK         0.0800 
    247 H247       -3.4544  -18.8381  -47.6199 H         1 UNK         0.0800 
@<TRIPOS>BOND
     1    1    2 1    
     2    1  127 1    
     3    1  128 1    
     4    1  129 1    
     5    2    3 2    
     6    2    4 am   BACKBONE|DICT|INTERRES
     7    4    5 1    
     8    4  130 1    
     9    5    6 1    
    10    5   65 1    
    11    5  131 1    
    12    6    7 1    
    13    6  132 1    
    14    6  133 1    
    15    7    8 1    
    16    8    9 1    
    17    8  134 1    
    18    8  135 1    
    19    9   10 ar   
    20    9   14 ar   
    21   10   11 ar   
    22   10  136 1    
    23   11   12 ar   
    24   11  126 1    
    25   12   13 ar   
    26   12  137 1    
    27   13   14 ar   
    28   13   15 1    
    29   14  138 1    
    30   15   16 1    
    31   15  139 1    
    32   15  140 1    
    33   16   17 1    
    34   17   18 1    
    35   17  141 1    
    36   17  142 1    
    37   18   19 1    
    38   18   67 1    
    39   18  143 1    
    40   19   20 am   BACKBONE|DICT|INTERRES
    41   19  144 1    
    42   20   21 2    
    43   20   22 1    
    44   22   23 1    
    45   22   24 1    
    46   22  145 1    
    47   23  146 1    
    48   23  147 1    
    49   23  148 1    
    50   24   25 am   BACKBONE|DICT|INTERRES
    51   24  149 1    
    52   25   26 2    
    53   25   27 1    
    54   27   28 1    
    55   27   29 1    
    56   27  150 1    
    57   28  151 1    
    58   28  152 1    
    59   28  153 1    
    60   29   30 am   BACKBONE|DICT|INTERRES
    61   29  154 1    
    62   30   31 2    
    63   30   32 1    
    64   32   33 1    
    65   32   34 1    
    66   32  155 1    
    67   33  156 1    
    68   33  157 1    
    69   33  158 1    
    70   34   35 am   BACKBONE|DICT|INTERRES
    71   34  159 1    
    72   35   36 2    
    73   35   37 1    
    74   37   38 1    
    75   37   39 1    
    76   37  160 1    
    77   38  161 1    
    78   38  162 1    
    79   38  163 1    
    80   39   40 am   BACKBONE|DICT|INTERRES
    81   39  164 1    
    82   40   41 2    
    83   40   42 1    
    84   42   43 1    
    85   42   44 1    
    86   42  165 1    
    87   43  166 1    
    88   43  167 1    
    89   43  168 1    
    90   44   45 am   BACKBONE|DICT|INTERRES
    91   44  169 1    
    92   45   46 2    
    93   45   47 1    
    94   47   48 1    
    95   47   49 1    
    96   47  170 1    
    97   48  171 1    
    98   48  172 1    
    99   48  173 1    
   100   49   50 am   BACKBONE|DICT|INTERRES
   101   49  174 1    
   102   50   51 2    
   103   50   52 1    
   104   52   53 1    
   105   52   54 1    
   106   52  175 1    
   107   53  176 1    
   108   53  177 1    
   109   53  178 1    
   110   54   55 am   BACKBONE|DICT|INTERRES
   111   54  179 1    
   112   55   56 2    
   113   55   57 1    
   114   57   58 1    
   115   57   59 1    
   116   57  180 1    
   117   58  181 1    
   118   58  182 1    
   119   58  183 1    
   120   59   60 am   BACKBONE|DICT|INTERRES
   121   59  184 1    
   122   60   61 2    
   123   60   62 1    
   124   62   63 1    
   125   62   64 1    
   126   62  185 1    
   127   63  186 1    
   128   63  187 1    
   129   63  188 1    
   130   64   65 am   BACKBONE|DICT|INTERRES
   131   64  189 1    
   132   65   66 2    
   133   67   68 2    
   134   67   69 am   BACKBONE|DICT|INTERRES
   135   69   70 1    
   136   69  190 1    
   137   70   71 1    
   138   70   72 1    
   139   70  191 1    
   140   71  192 1    
   141   71  193 1    
   142   71  194 1    
   143   72   73 2    
   144   72   74 am   BACKBONE|DICT|INTERRES
   145   74   75 1    
   146   74  195 1    
   147   75   76 1    
   148   75   77 1    
   149   75  196 1    
   150   76  197 1    
   151   76  198 1    
   152   76  199 1    
   153   77   78 2    
   154   77   79 am   BACKBONE|DICT|INTERRES
   155   79   80 1    
   156   79  200 1    
   157   80   81 1    
   158   80   82 1    
   159   80  201 1    
   160   81  202 1    
   161   81  203 1    
   162   81  204 1    
   163   82   83 2    
   164   82   84 am   BACKBONE|DICT|INTERRES
   165   84   85 1    
   166   84  205 1    
   167   85   86 1    
   168   85   87 1    
   169   85  206 1    
   170   86  207 1    
   171   86  208 1    
   172   86  209 1    
   173   87   88 2    
   174   87   89 am   BACKBONE|DICT|INTERRES
   175   89   90 1    
   176   89  210 1    
   177   90   91 1    
   178   90   92 1    
   179   90  211 1    
   180   91  212 1    
   181   91  213 1    
   182   91  214 1    
   183   92   93 2    
   184   92   94 am   BACKBONE|DICT|INTERRES
   185   94   95 1    
   186   94  215 1    
   187   95   96 1    
   188   95   97 1    
   189   95  216 1    
   190   96  217 1    
   191   96  218 1    
   192   96  219 1    
   193   97   98 2    
   194   97   99 am   BACKBONE|DICT|INTERRES
   195   99  100 1    
   196   99  220 1    
   197  100  101 1    
   198  100  102 1    
   199  100  221 1    
   200  101  222 1    
   201  101  223 1    
   202  101  224 1    
   203  102  103 2    
   204  102  104 am   BACKBONE|DICT|INTERRES
   205  104  105 1    
   206  104  225 1    
   207  105  106 1    
   208  105  107 1    
   209  105  226 1    
   210  106  227 1    
   211  106  228 1    
   212  106  229 1    
   213  107  108 2    
   214  107  109 am   BACKBONE|DICT|INTERRES
   215  109  110 1    
   216  109  230 1    
   217  110  111 1    
   218  110  112 1    
   219  110  231 1    
   220  111  232 1    
   221  111  233 1    
   222  111  234 1    
   223  112  113 2    
   224  112  114 am   BACKBONE|DICT|INTERRES
   225  114  115 1    
   226  114  235 1    
   227  115  116 1    
   228  115  117 1    
   229  115  236 1    
   230  116  237 1    
   231  116  238 1    
   232  116  239 1    
   233  117  118 2    
   234  117  119 am   BACKBONE|DICT|INTERRES
   235  119  120 1    
   236  119  240 1    
   237  120  121 1    
   238  120  124 1    
   239  120  241 1    
   240  121  122 am   BACKBONE|DICT|INTERRES
   241  121  123 2    
   242  122  242 1    
   243  122  243 1    
   244  124  125 1    
   245  124  244 1    
   246  124  245 1    
   247  125  126 1    
   248  126  246 1    
   249  126  247 1    
@<TRIPOS>SUBSTRUCTURE
     1 UNK         1 GROUP             0       ****    0 ROOT    
