@<TRIPOS>MOLECULE
3R540
247   249    1
SMALL
USER_CHARGES


@<TRIPOS>ATOM
      1 CA         -3.3263  -13.4184  -49.9071 C.3       0 UNK        -0.1800 
      2 C          -3.2763  -14.3621  -48.7069 C.2       0 UNK         0.5000 
      3 O          -4.0711  -14.2022  -47.7839 O.2       0 UNK        -0.5000 
      4 N          -2.3813  -15.3604  -48.6679 N.am      1 UNK        -0.5000 
      5 CA         -1.3612  -15.6967  -49.6716 C.3       1 UNK         0.1400 
      6 C6         -0.6906  -17.0725  -49.4051 C.3       23 UNK        -0.0398 
      7 S7         -1.7734  -18.4027  -48.7819 S.3       23 UNK        -0.2404 
      8 C8         -3.0758  -18.4986  -50.0475 C.3       23 UNK        -0.0205 
      9 C9         -4.1104  -19.5574  -49.6924 C.ar      23 UNK        -0.0193 
     10 C10        -4.4201  -20.5755  -50.5969 C.ar      23 UNK        -0.1150 
     11 C11        -5.3791  -21.5434  -50.2817 C.ar      23 UNK        -0.0193 
     12 C12        -6.0186  -21.4975  -49.0396 C.ar      23 UNK        -0.1150 
     13 C13        -5.7139  -20.4880  -48.1227 C.ar      23 UNK        -0.0193 
     14 C14        -4.7721  -19.5137  -48.4615 C.ar      23 UNK        -0.1150 
     15 C15        -6.4082  -20.4433  -46.7702 C.3       23 UNK        -0.0205 
     16 S16        -5.7787  -21.7169  -45.6296 S.3       23 UNK        -0.2404 
     17 C17        -4.0446  -21.1981  -45.3703 C.3       23 UNK        -0.0398 
     18 CA         -3.0109  -22.1957  -45.9516 C.3       11 UNK         0.1400 
     19 N          -1.6621  -21.6287  -45.9802 N.am      11 UNK        -0.5000 
     20 C          -0.6178  -22.1593  -46.6310 C.2       10 UNK         0.5000 
     21 O          -0.6956  -23.1341  -47.3807 O.2       10 UNK        -0.5000 
     22 CA          0.7607  -21.5219  -46.3855 C.3       10 UNK         0.1400 
     23 CB          1.0195  -20.3768  -47.3713 C.3       10 UNK        -0.1800 
     24 N           0.9444  -21.0395  -45.0170 N.am      10 UNK        -0.5000 
     25 C           0.9892  -21.8255  -43.9331 C.2       9 UNK         0.5000 
     26 O           0.8648  -23.0490  -43.9726 O.2       9 UNK        -0.5000 
     27 CA          1.1660  -21.1271  -42.5729 C.3       9 UNK         0.1400 
     28 CB          2.6156  -20.6580  -42.3781 C.3       9 UNK        -0.1800 
     29 N           0.2558  -19.9966  -42.3942 N.am      9 UNK        -0.5000 
     30 C          -1.0808  -20.0981  -42.3608 C.2       8 UNK         0.5000 
     31 O          -1.6947  -21.1604  -42.4642 O.2       8 UNK        -0.5000 
     32 CA         -1.8676  -18.7810  -42.2499 C.3       8 UNK         0.1400 
     33 CB         -1.8260  -18.2345  -40.8151 C.3       8 UNK        -0.1800 
     34 N          -1.3857  -17.7628  -43.1830 N.am      8 UNK        -0.5000 
     35 C          -1.3800  -17.9047  -44.5164 C.2       7 UNK         0.5000 
     36 O          -1.8108  -18.8955  -45.1022 O.2       7 UNK        -0.5000 
     37 CA         -0.7444  -16.7708  -45.3319 C.3       7 UNK         0.1400 
     38 CB         -1.6885  -15.5620  -45.4030 C.3       7 UNK        -0.1800 
     39 N           0.5457  -16.3513  -44.7951 N.am      7 UNK        -0.5000 
     40 C           1.6285  -17.1279  -44.6617 C.2       6 UNK         0.5000 
     41 O           1.6832  -18.3027  -45.0187 O.2       6 UNK        -0.5000 
     42 CA          2.8403  -16.4932  -43.9626 C.3       6 UNK         0.1400 
     43 CB          3.6409  -15.6150  -44.9367 C.3       6 UNK        -0.1800 
     44 N           2.4407  -15.7014  -42.8001 N.am      6 UNK        -0.5000 
     45 C           1.9385  -16.2143  -41.6684 C.2       5 UNK         0.5000 
     46 O           1.7870  -17.4206  -41.4684 O.2       5 UNK        -0.5000 
     47 CA          1.5038  -15.1995  -40.5949 C.3       5 UNK         0.1400 
     48 CB          2.7144  -14.7137  -39.7837 C.3       5 UNK        -0.1800 
     49 N           0.8015  -14.0447  -41.1608 N.am      5 UNK        -0.5000 
     50 C          -0.4175  -14.1096  -41.7131 C.2       4 UNK         0.5000 
     51 O          -1.0721  -15.1488  -41.8002 O.2       4 UNK        -0.5000 
     52 CA         -0.9906  -12.8033  -42.2988 C.3       4 UNK         0.1400 
     53 CB         -1.5927  -11.9339  -41.1845 C.3       4 UNK        -0.1800 
     54 N          -0.0502  -11.9969  -43.0893 N.am      4 UNK        -0.5000 
     55 C           0.6827  -12.4466  -44.1164 C.2       3 UNK         0.5000 
     56 O           0.7928  -13.6377  -44.4053 O.2       3 UNK        -0.5000 
     57 CA          1.4353  -11.4007  -44.9615 C.3       3 UNK         0.1400 
     58 CB          2.8041  -11.0968  -44.3340 C.3       3 UNK        -0.1800 
     59 N           1.6405  -11.8817  -46.3318 N.am      3 UNK        -0.5000 
     60 C           0.6586  -12.1246  -47.2118 C.2       2 UNK         0.5000 
     61 O          -0.5155  -11.7966  -47.0252 O.2       2 UNK        -0.5000 
     62 CA          1.0212  -12.8964  -48.4947 C.3       2 UNK         0.1400 
     63 CB          2.4399  -13.5106  -48.4885 C.3       2 UNK        -0.1800 
     64 N           0.0192  -13.9432  -48.6635 N.am      2 UNK        -0.5000 
     65 C          -0.2625  -14.6158  -49.7850 C.2       1 UNK         0.5000 
     66 O           0.2947  -14.4201  -50.8642 O.2       1 UNK        -0.5000 
     67 C          -3.0205  -23.5407  -45.1938 C.2       11 UNK         0.5000 
     68 O          -3.5062  -24.5344  -45.7345 O.2       11 UNK        -0.5000 
     69 N          -2.4541  -23.5598  -43.9763 N.am      12 UNK        -0.5000 
     70 CA         -2.3896  -24.7355  -43.1022 C.3       12 UNK         0.1400 
     71 CB         -1.8302  -24.3279  -41.7309 C.3       12 UNK        -0.1800 
     72 C          -1.5740  -25.8990  -43.6946 C.2       12 UNK         0.5000 
     73 O          -1.9823  -27.0542  -43.5696 O.2       12 UNK        -0.5000 
     74 N          -0.4550  -25.5725  -44.3535 N.am      13 UNK        -0.5000 
     75 CA          0.3945  -26.5227  -45.0731 C.3       13 UNK         0.1400 
     76 CB          1.7666  -25.8716  -45.3115 C.3       13 UNK        -0.1800 
     77 C          -0.2056  -26.9875  -46.4152 C.2       13 UNK         0.5000 
     78 O           0.2831  -27.9679  -46.9779 O.2       13 UNK        -0.5000 
     79 N          -1.2137  -26.2579  -46.9203 N.am      14 UNK        -0.5000 
     80 CA         -1.8287  -26.3774  -48.2482 C.3       14 UNK         0.1400 
     81 CB         -2.5839  -27.7145  -48.3921 C.3       14 UNK        -0.1800 
     82 C          -0.8233  -26.1197  -49.3932 C.2       14 UNK         0.5000 
     83 O          -0.9611  -26.6768  -50.4836 O.2       14 UNK        -0.5000 
     84 N           0.1779  -25.2771  -49.1115 N.am      15 UNK        -0.5000 
     85 CA          1.2405  -24.8836  -50.0310 C.3       15 UNK         0.1400 
     86 CB          2.4968  -24.5418  -49.2147 C.3       15 UNK        -0.1800 
     87 C           0.8261  -23.6846  -50.8976 C.2       15 UNK         0.5000 
     88 O           1.3089  -23.5590  -52.0229 O.2       15 UNK        -0.5000 
     89 N          -0.0382  -22.8152  -50.3484 N.am      16 UNK        -0.5000 
     90 CA         -0.6430  -21.6250  -50.9644 C.3       16 UNK         0.1400 
     91 CB         -1.5218  -22.0332  -52.1640 C.3       16 UNK        -0.1800 
     92 C           0.3342  -20.4960  -51.3628 C.2       16 UNK         0.5000 
     93 O          -0.1218  -19.4783  -51.8804 O.2       16 UNK        -0.5000 
     94 N           1.6470  -20.6843  -51.1551 N.am      17 UNK        -0.5000 
     95 CA          2.7523  -19.7716  -51.4897 C.3       17 UNK         0.1400 
     96 CB          2.7641  -18.5706  -50.5223 C.3       17 UNK        -0.1800 
     97 C           2.7771  -19.3304  -52.9735 C.2       17 UNK         0.5000 
     98 O           3.2351  -18.2285  -53.2793 O.2       17 UNK        -0.5000 
     99 N           2.2525  -20.1930  -53.8590 N.am      18 UNK        -0.5000 
    100 CA         1.9947  -19.9682  -55.2877 C.3       18 UNK         0.1400 
    101 CB         3.3097  -19.7402  -56.0625 C.3       18 UNK        -0.1800 
    102 C          0.9348  -18.8772  -55.5787 C.2       18 UNK         0.5000 
    103 O          0.8502  -18.4023  -56.7123 O.2       18 UNK        -0.5000 
    104 N          0.1208  -18.5231  -54.5757 N.am      19 UNK        -0.5000 
    105 CA        -0.9738  -17.5576  -54.6474 C.3       19 UNK         0.1400 
    106 CB        -0.7031  -16.4249  -53.6412 C.3       19 UNK        -0.1800 
    107 C         -2.3006  -18.2878  -54.3746 C.2       19 UNK         0.5000 
    108 O         -3.0791  -17.8804  -53.5095 O.2       19 UNK        -0.5000 
    109 N         -2.5289  -19.3810  -55.1145 N.am      20 UNK        -0.5000 
    110 CA        -3.6570  -20.3062  -54.9803 C.3       20 UNK         0.1400 
    111 CB        -3.2753  -21.6446  -55.6373 C.3       20 UNK        -0.1800 
    112 C         -5.0027  -19.7461  -55.4931 C.2       20 UNK         0.5000 
    113 O         -5.6963  -20.4071  -56.2683 O.2       20 UNK        -0.5000 
    114 N         -5.3614  -18.5421  -55.0332 N.am      21 UNK        -0.5000 
    115 CA        -6.7005  -17.9679  -55.1648 C.3       21 UNK         0.1400 
    116 CB        -6.6283  -16.4503  -54.9364 C.3       21 UNK        -0.1800 
    117 C         -7.6759  -18.6296  -54.1727 C.2       21 UNK         0.5000 
    118 O         -8.8145  -18.9236  -54.5374 O.2       21 UNK        -0.5000 
    119 N         -7.1827  -18.8780  -52.9505 N.am      22 UNK        -0.5000 
    120 CA        -7.8326  -19.6404  -51.8687 C.3       22 UNK         0.1400 
    121 C         -9.1356  -19.0076  -51.2901 C.2       22 UNK         0.5000 
    122 N         -9.3932  -17.7222  -51.4988 N.am      22 UNK        -0.7600 
    123 O         -9.9132  -19.6776  -50.6157 O.2       22 UNK        -0.5000 
    124 C124       -7.9957  -21.1539  -52.2014 C.3       23 UNK        -0.0398 
    125 S125       -6.4621  -21.9451  -52.8125 S.3       23 UNK        -0.2404 
    126 C126       -5.7350  -22.6284  -51.2878 C.3       23 UNK        -0.0205 
    127 H127       -2.5256  -12.6813  -49.8467 H         1 UNK         0.0600 
    128 H128       -4.2736  -12.8791  -49.9239 H         1 UNK         0.0600 
    129 H129       -3.2421  -13.9557  -50.8509 H         1 UNK         0.0600 
    130 H130       -2.4211  -15.9991  -47.8877 H         1 UNK         0.3000 
    131 H131       -1.8614  -15.7620  -50.6393 H         1 UNK         0.0600 
    132 H132       -0.2246  -17.4257  -50.3229 H         1 UNK         0.0800 
    133 H133        0.1200  -16.9801  -48.6794 H         1 UNK         0.0800 
    134 H134       -2.6137  -18.7133  -51.0117 H         1 UNK         0.0800 
    135 H135       -3.5780  -17.5359  -50.1439 H         1 UNK         0.0800 
    136 H136       -3.9333  -20.6039  -51.5588 H         1 UNK         0.1150 
    137 H137       -6.7561  -22.2450  -48.7827 H         1 UNK         0.1150 
    138 H138       -4.5381  -18.7255  -47.7597 H         1 UNK         0.1150 
    139 H139       -6.2997  -19.4601  -46.3095 H         1 UNK         0.0800 
    140 H140       -7.4791  -20.5956  -46.9122 H         1 UNK         0.0800 
    141 H141       -3.8797  -21.0424  -44.3029 H         1 UNK         0.0800 
    142 H142       -3.9066  -20.2208  -45.8315 H         1 UNK         0.0800 
    143 H143       -3.2917  -22.3967  -46.9883 H         1 UNK         0.0600 
    144 H144       -1.5249  -20.7701  -45.4538 H         1 UNK         0.3000 
    145 H145        1.5094  -22.2956  -46.5662 H         1 UNK         0.0600 
    146 H146        2.0520  -20.0332  -47.3106 H         1 UNK         0.0600 
    147 H147        0.8386  -20.6897  -48.3984 H         1 UNK         0.0600 
    148 H148        0.3740  -19.5235  -47.1653 H         1 UNK         0.0600 
    149 H149        1.0812  -20.0364  -44.9078 H         1 UNK         0.3000 
    150 H150        0.9410  -21.8594  -41.7948 H         1 UNK         0.0600 
    151 H151        3.3137  -21.4884  -42.4913 H         1 UNK         0.0600 
    152 H152        2.7634  -20.2414  -41.3816 H         1 UNK         0.0600 
    153 H153        2.8941  -19.8925  -43.1028 H         1 UNK         0.0600 
    154 H154        0.6801  -19.0808  -42.2982 H         1 UNK         0.3000 
    155 H155       -2.9083  -18.9951  -42.5019 H         1 UNK         0.0600 
    156 H156       -0.8163  -17.9450  -40.5221 H         1 UNK         0.0600 
    157 H157       -2.1756  -18.9814  -40.1014 H         1 UNK         0.0600 
    158 H158       -2.4671  -17.3592  -40.7097 H         1 UNK         0.0600 
    159 H159       -1.0473  -16.8959  -42.7768 H         1 UNK         0.3000 
    160 H160       -0.5745  -17.1410  -46.3430 H         1 UNK         0.0600 
    161 H161       -1.8675  -15.1337  -44.4173 H         1 UNK         0.0600 
    162 H162       -2.6589  -15.8456  -45.8116 H         1 UNK         0.0600 
    163 H163       -1.2790  -14.7728  -46.0325 H         1 UNK         0.0600 
    164 H164        0.6176  -15.3762  -44.5061 H         1 UNK         0.3000 
    165 H165        3.4896  -17.3016  -43.6195 H         1 UNK         0.0600 
    166 H166        4.5433  -15.2262  -44.4648 H         1 UNK         0.0600 
    167 H167        3.9519  -16.1871  -45.8117 H         1 UNK         0.0600 
    168 H168        3.0570  -14.7656  -45.2912 H         1 UNK         0.0600 
    169 H169        2.4555  -14.6981  -42.9097 H         1 UNK         0.3000 
    170 H170        0.8222  -15.7120  -39.9124 H         1 UNK         0.0600 
    171 H171        3.2482  -15.5546  -39.3389 H         1 UNK         0.0600 
    172 H172        3.4240  -14.1655  -40.4046 H         1 UNK         0.0600 
    173 H173        2.4052  -14.0589  -38.9688 H         1 UNK         0.0600 
    174 H174        1.2784  -13.1554  -41.1394 H         1 UNK         0.3000 
    175 H175       -1.8014  -13.0880  -42.9721 H         1 UNK         0.0600 
    176 H176       -0.8250  -11.5598  -40.5061 H         1 UNK         0.0600 
    177 H177       -2.1244  -11.0760  -41.5964 H         1 UNK         0.0600 
    178 H178       -2.3091  -12.5015  -40.5888 H         1 UNK         0.0600 
    179 H179       -0.0587  -11.0043  -42.9040 H         1 UNK         0.3000 
    180 H180        0.8446  -10.4832  -44.9991 H         1 UNK         0.0600 
    181 H181        3.4284  -11.9898  -44.2776 H         1 UNK         0.0600 
    182 H182        2.6941  -10.7087  -43.3206 H         1 UNK         0.0600 
    183 H183        3.3442  -10.3458  -44.9108 H         1 UNK         0.0600 
    184 H184        2.5682  -12.2114  -46.5515 H         1 UNK         0.3000 
    185 H185        0.9412  -12.1937  -49.3263 H         1 UNK         0.0600 
    186 H186        3.2074  -12.7422  -48.3895 H         1 UNK         0.0600 
    187 H187        2.5661  -14.2244  -47.6736 H         1 UNK         0.0600 
    188 H188        2.6461  -14.0382  -49.4197 H         1 UNK         0.0600 
    189 H189       -0.5494  -14.1129  -47.8449 H         1 UNK         0.3000 
    190 H190       -2.0750  -22.6983  -43.5919 H         1 UNK         0.3000 
    191 H191       -3.4113  -25.0925  -42.9575 H         1 UNK         0.0600 
    192 H192       -0.8261  -23.9104  -41.8146 H         1 UNK         0.0600 
    193 H193       -1.7761  -25.1849  -41.0585 H         1 UNK         0.0600 
    194 H194       -2.4642  -23.5805  -41.2536 H         1 UNK         0.0600 
    195 H195       -0.1458  -24.6029  -44.3448 H         1 UNK         0.3000 
    196 H196        0.5371  -27.4074  -44.4492 H         1 UNK         0.0600 
    197 H197        2.4467  -26.5589  -45.8164 H         1 UNK         0.0600 
    198 H198        2.2355  -25.5840  -44.3703 H         1 UNK         0.0600 
    199 H199        1.6839  -24.9773  -45.9308 H         1 UNK         0.0600 
    200 H200       -1.5581  -25.4863  -46.3630 H         1 UNK         0.3000 
    201 H201       -2.5653  -25.5750  -48.3099 H         1 UNK         0.0600 
    202 H202       -3.2811  -27.8623  -47.5673 H         1 UNK         0.0600 
    203 H203       -1.9034  -28.5660  -48.4141 H         1 UNK         0.0600 
    204 H204       -3.1647  -27.7374  -49.3147 H         1 UNK         0.0600 
    205 H205        0.1486  -24.8045  -48.2155 H         1 UNK         0.3000 
    206 H206        1.4760  -25.7184  -50.6946 H         1 UNK         0.0600 
    207 H207        2.8230  -25.3956  -48.6202 H         1 UNK         0.0600 
    208 H208        3.3252  -24.2663  -49.8687 H         1 UNK         0.0600 
    209 H209        2.3230  -23.7078  -48.5337 H         1 UNK         0.0600 
    210 H210       -0.3493  -23.0105  -49.4024 H         1 UNK         0.3000 
    211 H211       -1.2980  -21.1943  -50.2056 H         1 UNK         0.0600 
    212 H212       -2.0038  -21.1638  -52.6076 H         1 UNK         0.0600 
    213 H213       -2.3078  -22.7242  -51.8603 H         1 UNK         0.0600 
    214 H214       -0.9426  -22.5093  -52.9550 H         1 UNK         0.0600 
    215 H215        1.9236  -21.5807  -50.7821 H         1 UNK         0.3000 
    216 H216        3.6709  -20.3367  -51.3262 H         1 UNK         0.0600 
    217 H217        3.6932  -18.0070  -50.6127 H         1 UNK         0.0600 
    218 H218        2.6797  -18.8911  -49.4844 H         1 UNK         0.0600 
    219 H219        1.9480  -17.8811  -50.7317 H         1 UNK         0.0600 
    220 H220        1.9119  -21.0719  -53.4929 H         1 UNK         0.3000 
    221 H221        1.5617  -20.8992  -55.6558 H         1 UNK         0.0600 
    222 H222        3.7641  -18.7795  -55.8196 H         1 UNK         0.0600 
    223 H223        4.0374  -20.5216  -55.8438 H         1 UNK         0.0600 
    224 H224        3.1367  -19.7536  -57.1392 H         1 UNK         0.0600 
    225 H225        0.2248  -18.9734  -53.6693 H         1 UNK         0.3000 
    226 H226       -1.0458  -17.1190  -55.6443 H         1 UNK         0.0600 
    227 H227        0.2377  -15.9198  -53.8603 H         1 UNK         0.0600 
    228 H228       -1.4918  -15.6723  -53.6708 H         1 UNK         0.0600 
    229 H229       -0.6454  -16.8036  -52.6210 H         1 UNK         0.0600 
    230 H230       -1.8474  -19.6182  -55.8204 H         1 UNK         0.3000 
    231 H231       -3.8062  -20.5002  -53.9176 H         1 UNK         0.0600 
    232 H232       -2.3603  -22.0503  -55.2056 H         1 UNK         0.0600 
    233 H233       -3.1212  -21.5355  -56.7114 H         1 UNK         0.0600 
    234 H234       -4.0573  -22.3907  -55.4890 H         1 UNK         0.0600 
    235 H235       -4.7067  -18.0685  -54.4161 H         1 UNK         0.3000 
    236 H236       -7.0685  -18.1459  -56.1776 H         1 UNK         0.0600 
    237 H237       -6.2458  -16.2070  -53.9443 H         1 UNK         0.0600 
    238 H238       -5.9787  -15.9737  -55.6707 H         1 UNK         0.0600 
    239 H239       -7.6148  -15.9945  -55.0307 H         1 UNK         0.0600 
    240 H240       -6.2358  -18.5879  -52.7581 H         1 UNK         0.3000 
    241 H241       -7.1360  -19.5732  -51.0347 H         1 UNK         0.0600 
    242 H242      -10.2318  -17.3150  -51.1157 H         1 UNK         0.3800 
    243 H243       -8.7652  -17.1567  -52.0469 H         1 UNK         0.3800 
    244 H244       -8.7651  -21.2857  -52.9633 H         1 UNK         0.0800 
    245 H245       -8.3432  -21.7039  -51.3254 H         1 UNK         0.0800 
    246 H246       -6.4261  -23.3533  -50.8551 H         1 UNK         0.0800 
    247 H247       -4.8315  -23.1822  -51.5456 H         1 UNK         0.0800 
@<TRIPOS>BOND
     1    1    2 1    
     2    1  127 1    
     3    1  128 1    
     4    1  129 1    
     5    2    3 2    
     6    2    4 am   BACKBONE|DICT|INTERRES
     7    4    5 1    
     8    4  130 1    
     9    5    6 1    
    10    5   65 1    
    11    5  131 1    
    12    6    7 1    
    13    6  132 1    
    14    6  133 1    
    15    7    8 1    
    16    8    9 1    
    17    8  134 1    
    18    8  135 1    
    19    9   10 ar   
    20    9   14 ar   
    21   10   11 ar   
    22   10  136 1    
    23   11   12 ar   
    24   11  126 1    
    25   12   13 ar   
    26   12  137 1    
    27   13   14 ar   
    28   13   15 1    
    29   14  138 1    
    30   15   16 1    
    31   15  139 1    
    32   15  140 1    
    33   16   17 1    
    34   17   18 1    
    35   17  141 1    
    36   17  142 1    
    37   18   19 1    
    38   18   67 1    
    39   18  143 1    
    40   19   20 am   BACKBONE|DICT|INTERRES
    41   19  144 1    
    42   20   21 2    
    43   20   22 1    
    44   22   23 1    
    45   22   24 1    
    46   22  145 1    
    47   23  146 1    
    48   23  147 1    
    49   23  148 1    
    50   24   25 am   BACKBONE|DICT|INTERRES
    51   24  149 1    
    52   25   26 2    
    53   25   27 1    
    54   27   28 1    
    55   27   29 1    
    56   27  150 1    
    57   28  151 1    
    58   28  152 1    
    59   28  153 1    
    60   29   30 am   BACKBONE|DICT|INTERRES
    61   29  154 1    
    62   30   31 2    
    63   30   32 1    
    64   32   33 1    
    65   32   34 1    
    66   32  155 1    
    67   33  156 1    
    68   33  157 1    
    69   33  158 1    
    70   34   35 am   BACKBONE|DICT|INTERRES
    71   34  159 1    
    72   35   36 2    
    73   35   37 1    
    74   37   38 1    
    75   37   39 1    
    76   37  160 1    
    77   38  161 1    
    78   38  162 1    
    79   38  163 1    
    80   39   40 am   BACKBONE|DICT|INTERRES
    81   39  164 1    
    82   40   41 2    
    83   40   42 1    
    84   42   43 1    
    85   42   44 1    
    86   42  165 1    
    87   43  166 1    
    88   43  167 1    
    89   43  168 1    
    90   44   45 am   BACKBONE|DICT|INTERRES
    91   44  169 1    
    92   45   46 2    
    93   45   47 1    
    94   47   48 1    
    95   47   49 1    
    96   47  170 1    
    97   48  171 1    
    98   48  172 1    
    99   48  173 1    
   100   49   50 am   BACKBONE|DICT|INTERRES
   101   49  174 1    
   102   50   51 2    
   103   50   52 1    
   104   52   53 1    
   105   52   54 1    
   106   52  175 1    
   107   53  176 1    
   108   53  177 1    
   109   53  178 1    
   110   54   55 am   BACKBONE|DICT|INTERRES
   111   54  179 1    
   112   55   56 2    
   113   55   57 1    
   114   57   58 1    
   115   57   59 1    
   116   57  180 1    
   117   58  181 1    
   118   58  182 1    
   119   58  183 1    
   120   59   60 am   BACKBONE|DICT|INTERRES
   121   59  184 1    
   122   60   61 2    
   123   60   62 1    
   124   62   63 1    
   125   62   64 1    
   126   62  185 1    
   127   63  186 1    
   128   63  187 1    
   129   63  188 1    
   130   64   65 am   BACKBONE|DICT|INTERRES
   131   64  189 1    
   132   65   66 2    
   133   67   68 2    
   134   67   69 am   BACKBONE|DICT|INTERRES
   135   69   70 1    
   136   69  190 1    
   137   70   71 1    
   138   70   72 1    
   139   70  191 1    
   140   71  192 1    
   141   71  193 1    
   142   71  194 1    
   143   72   73 2    
   144   72   74 am   BACKBONE|DICT|INTERRES
   145   74   75 1    
   146   74  195 1    
   147   75   76 1    
   148   75   77 1    
   149   75  196 1    
   150   76  197 1    
   151   76  198 1    
   152   76  199 1    
   153   77   78 2    
   154   77   79 am   BACKBONE|DICT|INTERRES
   155   79   80 1    
   156   79  200 1    
   157   80   81 1    
   158   80   82 1    
   159   80  201 1    
   160   81  202 1    
   161   81  203 1    
   162   81  204 1    
   163   82   83 2    
   164   82   84 am   BACKBONE|DICT|INTERRES
   165   84   85 1    
   166   84  205 1    
   167   85   86 1    
   168   85   87 1    
   169   85  206 1    
   170   86  207 1    
   171   86  208 1    
   172   86  209 1    
   173   87   88 2    
   174   87   89 am   BACKBONE|DICT|INTERRES
   175   89   90 1    
   176   89  210 1    
   177   90   91 1    
   178   90   92 1    
   179   90  211 1    
   180   91  212 1    
   181   91  213 1    
   182   91  214 1    
   183   92   93 2    
   184   92   94 am   BACKBONE|DICT|INTERRES
   185   94   95 1    
   186   94  215 1    
   187   95   96 1    
   188   95   97 1    
   189   95  216 1    
   190   96  217 1    
   191   96  218 1    
   192   96  219 1    
   193   97   98 2    
   194   97   99 am   BACKBONE|DICT|INTERRES
   195   99  100 1    
   196   99  220 1    
   197  100  101 1    
   198  100  102 1    
   199  100  221 1    
   200  101  222 1    
   201  101  223 1    
   202  101  224 1    
   203  102  103 2    
   204  102  104 am   BACKBONE|DICT|INTERRES
   205  104  105 1    
   206  104  225 1    
   207  105  106 1    
   208  105  107 1    
   209  105  226 1    
   210  106  227 1    
   211  106  228 1    
   212  106  229 1    
   213  107  108 2    
   214  107  109 am   BACKBONE|DICT|INTERRES
   215  109  110 1    
   216  109  230 1    
   217  110  111 1    
   218  110  112 1    
   219  110  231 1    
   220  111  232 1    
   221  111  233 1    
   222  111  234 1    
   223  112  113 2    
   224  112  114 am   BACKBONE|DICT|INTERRES
   225  114  115 1    
   226  114  235 1    
   227  115  116 1    
   228  115  117 1    
   229  115  236 1    
   230  116  237 1    
   231  116  238 1    
   232  116  239 1    
   233  117  118 2    
   234  117  119 am   BACKBONE|DICT|INTERRES
   235  119  120 1    
   236  119  240 1    
   237  120  121 1    
   238  120  124 1    
   239  120  241 1    
   240  121  122 am   BACKBONE|DICT|INTERRES
   241  121  123 2    
   242  122  242 1    
   243  122  243 1    
   244  124  125 1    
   245  124  244 1    
   246  124  245 1    
   247  125  126 1    
   248  126  246 1    
   249  126  247 1    
@<TRIPOS>SUBSTRUCTURE
     1 UNK         1 GROUP             0       ****    0 ROOT    
