@<TRIPOS>MOLECULE
3R540
247   249    1
SMALL
USER_CHARGES


@<TRIPOS>ATOM
      1 CA          1.6637  -11.0789  -48.0437 C.3       0 UNK        -0.1800 
      2 C           1.3911  -12.5753  -48.0910 C.2       0 UNK         0.5000 
      3 O           1.8600  -13.2984  -47.2138 O.2       0 UNK        -0.5000 
      4 N           0.6177  -13.0165  -49.0925 N.am      1 UNK        -0.5000 
      5 CA          0.2565  -14.4026  -49.4176 C.3       1 UNK         0.1400 
      6 C6         -0.3273  -15.2080  -48.2188 C.3       23 UNK        -0.0398 
      7 S7         -1.2601  -16.6749  -48.7737 S.3       23 UNK        -0.2404 
      8 C8         -2.2259  -17.1406  -47.3105 C.3       23 UNK        -0.0205 
      9 C9         -3.4636  -17.8951  -47.7622 C.ar      23 UNK        -0.0193 
     10 C10        -4.6189  -17.1815  -48.0843 C.ar      23 UNK        -0.1150 
     11 C11        -5.7203  -17.8294  -48.6454 C.ar      23 UNK        -0.0193 
     12 C12        -5.6871  -19.2161  -48.8167 C.ar      23 UNK        -0.1150 
     13 C13        -4.5460  -19.9473  -48.4759 C.ar      23 UNK        -0.0193 
     14 C14        -3.4346  -19.2811  -47.9483 C.ar      23 UNK        -0.1150 
     15 C15        -4.4947  -21.4427  -48.7525 C.3       23 UNK        -0.0205 
     16 S16        -5.1972  -22.4450  -47.4055 S.3       23 UNK        -0.2404 
     17 C17        -4.0265  -22.1651  -46.0342 C.3       23 UNK        -0.0398 
     18 CA         -2.6021  -22.7413  -46.2428 C.3       11 UNK         0.1400 
     19 N          -1.6875  -22.1826  -45.2474 N.am      11 UNK        -0.5000 
     20 C          -0.3621  -22.3417  -45.1777 C.2       10 UNK         0.5000 
     21 O           0.2658  -23.0945  -45.9240 O.2       10 UNK        -0.5000 
     22 CA          0.3708  -21.5023  -44.1014 C.3       10 UNK         0.1400 
     23 CB          1.9023  -21.5556  -44.2441 C.3       10 UNK        -0.1800 
     24 N          -0.0438  -20.0921  -44.0631 N.am      10 UNK        -0.5000 
     25 C          -1.2105  -19.6271  -43.5962 C.2       9 UNK         0.5000 
     26 O          -2.1184  -20.3575  -43.1927 O.2       9 UNK        -0.5000 
     27 CA         -1.3758  -18.0973  -43.5708 C.3       9 UNK         0.1400 
     28 CB         -2.8534  -17.6613  -43.6241 C.3       9 UNK        -0.1800 
     29 N          -0.6934  -17.4910  -42.4264 N.am      9 UNK        -0.5000 
     30 C          -0.8477  -17.7539  -41.1184 C.2       8 UNK         0.5000 
     31 O          -1.6530  -18.5603  -40.6534 O.2       8 UNK        -0.5000 
     32 CA          0.0478  -16.9521  -40.1596 C.3       8 UNK         0.1400 
     33 CB          1.4922  -17.4790  -40.1922 C.3       8 UNK        -0.1800 
     34 N           0.0396  -15.5355  -40.5183 N.am      8 UNK        -0.5000 
     35 C          -0.7565  -14.6103  -39.9652 C.2       7 UNK         0.5000 
     36 O          -1.5059  -14.8308  -39.0130 O.2       7 UNK        -0.5000 
     37 CA         -0.7186  -13.1966  -40.5827 C.3       7 UNK         0.1400 
     38 CB          0.3077  -12.3180  -39.8511 C.3       7 UNK        -0.1800 
     39 N          -0.4042  -13.2034  -42.0123 N.am      7 UNK        -0.5000 
     40 C          -1.2011  -13.6996  -42.9695 C.2       6 UNK         0.5000 
     41 O          -2.3447  -14.1030  -42.7607 O.2       6 UNK        -0.5000 
     42 CA         -0.6205  -13.7773  -44.3976 C.3       6 UNK         0.1400 
     43 CB         -1.1404  -12.5965  -45.2327 C.3       6 UNK        -0.1800 
     44 N           0.8479  -13.8075  -44.4682 N.am      6 UNK        -0.5000 
     45 C           1.6406  -14.7168  -43.8874 C.2       5 UNK         0.5000 
     46 O           1.2205  -15.6395  -43.1884 O.2       5 UNK        -0.5000 
     47 CA          3.1574  -14.5256  -44.0446 C.3       5 UNK         0.1400 
     48 CB          3.6905  -13.6633  -42.8904 C.3       5 UNK        -0.1800 
     49 N           3.8377  -15.8225  -44.0076 N.am      5 UNK        -0.5000 
     50 C           3.9931  -16.6870  -45.0201 C.2       4 UNK         0.5000 
     51 O           4.4986  -17.7964  -44.8428 O.2       4 UNK        -0.5000 
     52 CA          3.6094  -16.2546  -46.4537 C.3       4 UNK         0.1400 
     53 CB          4.7956  -15.5334  -47.1154 C.3       4 UNK        -0.1800 
     54 N           3.2024  -17.3646  -47.3106 N.am      4 UNK        -0.5000 
     55 C           2.1385  -18.1523  -47.1136 C.2       3 UNK         0.5000 
     56 O           1.3847  -18.0715  -46.1394 O.2       3 UNK        -0.5000 
     57 CA          1.8405  -19.1431  -48.2527 C.3       3 UNK         0.1400 
     58 CB          0.6485  -20.0550  -47.9337 C.3       3 UNK        -0.1800 
     59 N           1.5481  -18.3905  -49.4714 N.am      3 UNK        -0.5000 
     60 C           2.4218  -18.1124  -50.4484 C.2       2 UNK         0.5000 
     61 O           3.5670  -18.5622  -50.4882 O.2       2 UNK        -0.5000 
     62 CA          1.9547  -17.1168  -51.5321 C.3       2 UNK         0.1400 
     63 CB          1.2663  -17.8501  -52.6919 C.3       2 UNK        -0.1800 
     64 N           1.0495  -16.0961  -50.9978 N.am      2 UNK        -0.5000 
     65 C           1.4112  -15.1583  -50.1114 C.2       1 UNK         0.5000 
     66 O           2.5853  -14.9246  -49.8214 O.2       1 UNK        -0.5000 
     67 C          -2.5839  -24.2835  -46.2772 C.2       11 UNK         0.5000 
     68 O          -2.6174  -24.8672  -47.3617 O.2       11 UNK        -0.5000 
     69 N          -2.4806  -24.9102  -45.0963 N.am      12 UNK        -0.5000 
     70 CA         -2.3880  -26.3615  -44.9350 C.3       12 UNK         0.1400 
     71 CB         -2.5745  -26.7225  -43.4538 C.3       12 UNK        -0.1800 
     72 C          -1.0657  -26.9373  -45.4735 C.2       12 UNK         0.5000 
     73 O          -1.0806  -27.9861  -46.1176 O.2       12 UNK        -0.5000 
     74 N           0.0463  -26.2259  -45.2360 N.am      13 UNK        -0.5000 
     75 CA          1.3800  -26.5875  -45.7256 C.3       13 UNK         0.1400 
     76 CB          2.4416  -25.7596  -44.9870 C.3       13 UNK        -0.1800 
     77 C           1.5074  -26.4038  -47.2484 C.2       13 UNK         0.5000 
     78 O           2.1691  -27.2049  -47.9087 O.2       13 UNK        -0.5000 
     79 N           0.8292  -25.3778  -47.7786 N.am      14 UNK        -0.5000 
     80 CA          0.6913  -25.1033  -49.2089 C.3       14 UNK         0.1400 
     81 CB          0.2993  -23.6283  -49.3849 C.3       14 UNK        -0.1800 
     82 C          -0.3201  -26.0248  -49.9230 C.2       14 UNK         0.5000 
     83 O          -0.4771  -25.9036  -51.1376 O.2       14 UNK        -0.5000 
     84 N          -1.0135  -26.8971  -49.1735 N.am      15 UNK        -0.5000 
     85 CA         -2.0468  -27.8361  -49.6280 C.3       15 UNK         0.1400 
     86 CB         -1.4164  -28.9602  -50.4755 C.3       15 UNK        -0.1800 
     87 C          -3.2239  -27.1328  -50.3388 C.2       15 UNK         0.5000 
     88 O          -3.7572  -27.6495  -51.3217 O.2       15 UNK        -0.5000 
     89 N          -3.5740  -25.9406  -49.8359 N.am      16 UNK        -0.5000 
     90 CA         -4.5874  -25.0052  -50.3289 C.3       16 UNK         0.1400 
     91 CB         -5.9948  -25.6335  -50.2940 C.3       16 UNK        -0.1800 
     92 C          -4.2763  -24.3495  -51.6920 C.2       16 UNK         0.5000 
     93 O          -5.1005  -23.5721  -52.1735 O.2       16 UNK        -0.5000 
     94 N          -3.0985  -24.6080  -52.2834 N.am      17 UNK        -0.5000 
     95 CA         -2.6964  -24.0685  -53.5893 C.3       17 UNK         0.1400 
     96 CB         -1.4178  -24.7725  -54.0652 C.3       17 UNK        -0.1800 
     97 C          -2.4988  -22.5403  -53.5862 C.2       17 UNK         0.5000 
     98 O          -2.6884  -21.8949  -54.6179 O.2       17 UNK        -0.5000 
     99 N          -2.1626  -21.9841  -52.4144 N.am      18 UNK        -0.5000 
    100 CA        -2.0016  -20.5496  -52.1802 C.3       18 UNK         0.1400 
    101 CB        -1.2264  -20.3333  -50.8741 C.3       18 UNK        -0.1800 
    102 C         -3.3199  -19.7500  -52.1940 C.2       18 UNK         0.5000 
    103 O         -3.2601  -18.5237  -52.1942 O.2       18 UNK        -0.5000 
    104 N         -4.4817  -20.4205  -52.2689 N.am      19 UNK        -0.5000 
    105 CA        -5.7997  -19.7852  -52.4043 C.3       19 UNK         0.1400 
    106 CB        -6.8959  -20.8527  -52.2724 C.3       19 UNK        -0.1800 
    107 C         -5.9821  -18.9755  -53.7069 C.2       19 UNK         0.5000 
    108 O         -6.8875  -18.1454  -53.7863 O.2       19 UNK        -0.5000 
    109 N         -5.1113  -19.2102  -54.6973 N.am      20 UNK        -0.5000 
    110 CA        -5.0035  -18.4197  -55.9214 C.3       20 UNK         0.1400 
    111 CB        -4.2456  -19.2521  -56.9678 C.3       20 UNK        -0.1800 
    112 C         -4.3095  -17.0544  -55.7149 C.2       20 UNK         0.5000 
    113 O         -4.3861  -16.2112  -56.6098 O.2       20 UNK        -0.5000 
    114 N         -3.6308  -16.8542  -54.5760 N.am      21 UNK        -0.5000 
    115 CA        -2.8203  -15.6765  -54.2796 C.3       21 UNK         0.1400 
    116 CB        -1.4202  -15.8468  -54.9001 C.3       21 UNK        -0.1800 
    117 C         -2.7854  -15.4431  -52.7606 C.2       21 UNK         0.5000 
    118 O         -1.7257  -15.5571  -52.1391 O.2       21 UNK        -0.5000 
    119 N         -3.9608  -15.1346  -52.1947 N.am      22 UNK        -0.5000 
    120 CA        -4.1726  -14.8811  -50.7571 C.3       22 UNK         0.1400 
    121 C         -3.4405  -13.6310  -50.1801 C.2       22 UNK         0.5000 
    122 N         -2.9344  -12.7131  -50.9952 N.am      22 UNK        -0.7600 
    123 O         -3.3383  -13.4869  -48.9656 O.2       22 UNK        -0.5000 
    124 C124       -5.6816  -14.8014  -50.3946 C.3       23 UNK        -0.0398 
    125 S125       -6.6351  -16.3126  -50.7724 S.3       23 UNK        -0.2404 
    126 C126       -6.9215  -17.0252  -49.1159 C.3       23 UNK        -0.0205 
    127 H127        1.2837  -10.6590  -47.1123 H         1 UNK         0.0600 
    128 H128        1.1906  -10.5518  -48.8726 H         1 UNK         0.0600 
    129 H129        2.7367  -10.8930  -48.0902 H         1 UNK         0.0600 
    130 H130        0.2907  -12.3394  -49.7664 H         1 UNK         0.3000 
    131 H131       -0.5359  -14.2950  -50.1580 H         1 UNK         0.0600 
    132 H132        0.4518  -15.5168  -47.5203 H         1 UNK         0.0800 
    133 H133       -1.0147  -14.5753  -47.6582 H         1 UNK         0.0800 
    134 H134       -2.5110  -16.2536  -46.7427 H         1 UNK         0.0800 
    135 H135       -1.6138  -17.7595  -46.6554 H         1 UNK         0.0800 
    136 H136       -4.6327  -16.1086  -47.9576 H         1 UNK         0.1150 
    137 H137       -6.5365  -19.7239  -49.2511 H         1 UNK         0.1150 
    138 H138       -2.5377  -19.8354  -47.7165 H         1 UNK         0.1150 
    139 H139       -3.4762  -21.7644  -48.9604 H         1 UNK         0.0800 
    140 H140       -5.0568  -21.6569  -49.6619 H         1 UNK         0.0800 
    141 H141       -4.4696  -22.5760  -45.1254 H         1 UNK         0.0800 
    142 H142       -3.9745  -21.0892  -45.8633 H         1 UNK         0.0800 
    143 H143       -2.2252  -22.4014  -47.2074 H         1 UNK         0.0600 
    144 H144       -2.0981  -21.5596  -44.5550 H         1 UNK         0.3000 
    145 H145        0.1187  -21.9503  -43.1383 H         1 UNK         0.0600 
    146 H146        2.3912  -20.9931  -43.4484 H         1 UNK         0.0600 
    147 H147        2.2683  -22.5801  -44.1810 H         1 UNK         0.0600 
    148 H148        2.2369  -21.1430  -45.1960 H         1 UNK         0.0600 
    149 H149        0.6216  -19.4250  -44.4358 H         1 UNK         0.3000 
    150 H150       -0.8823  -17.7020  -44.4591 H         1 UNK         0.0600 
    151 H151       -3.4020  -17.9683  -42.7332 H         1 UNK         0.0600 
    152 H152       -3.3583  -18.0991  -44.4862 H         1 UNK         0.0600 
    153 H153       -2.9406  -16.5792  -43.7136 H         1 UNK         0.0600 
    154 H154        0.0319  -16.8216  -42.6807 H         1 UNK         0.3000 
    155 H155       -0.3341  -17.0858  -39.1451 H         1 UNK         0.0600 
    156 H156        1.9431  -17.3767  -41.1800 H         1 UNK         0.0600 
    157 H157        1.5269  -18.5357  -39.9241 H         1 UNK         0.0600 
    158 H158        2.1211  -16.9423  -39.4818 H         1 UNK         0.0600 
    159 H159        0.5795  -15.2841  -41.3383 H         1 UNK         0.3000 
    160 H160       -1.7071  -12.7509  -40.4531 H         1 UNK         0.0600 
    161 H161        1.3216  -12.7046  -39.9631 H         1 UNK         0.0600 
    162 H162        0.0903  -12.2710  -38.7831 H         1 UNK         0.0600 
    163 H163        0.2934  -11.2958  -40.2295 H         1 UNK         0.0600 
    164 H164        0.5097  -12.8695  -42.2786 H         1 UNK         0.3000 
    165 H165       -0.9878  -14.7036  -44.8444 H         1 UNK         0.0600 
    166 H166       -0.8537  -12.6877  -46.2782 H         1 UNK         0.0600 
    167 H167       -0.7590  -11.6442  -44.8625 H         1 UNK         0.0600 
    168 H168       -2.2299  -12.5468  -45.2063 H         1 UNK         0.0600 
    169 H169        1.2736  -13.1275  -45.0859 H         1 UNK         0.3000 
    170 H170        3.3702  -14.0018  -44.9771 H         1 UNK         0.0600 
    171 H171        3.2295  -12.6747  -42.8935 H         1 UNK         0.0600 
    172 H172        3.4891  -14.1167  -41.9186 H         1 UNK         0.0600 
    173 H173        4.7676  -13.5167  -42.9740 H         1 UNK         0.0600 
    174 H174        4.0913  -16.1387  -43.0841 H         1 UNK         0.3000 
    175 H175        2.7530  -15.5842  -46.4243 H         1 UNK         0.0600 
    176 H176        5.6552  -16.1954  -47.2270 H         1 UNK         0.0600 
    177 H177        4.5328  -15.1570  -48.1029 H         1 UNK         0.0600 
    178 H178        5.1182  -14.6764  -46.5233 H         1 UNK         0.0600 
    179 H179        3.7515  -17.5066  -48.1464 H         1 UNK         0.3000 
    180 H180        2.7211  -19.7740  -48.3899 H         1 UNK         0.0600 
    181 H181       -0.2687  -19.4882  -47.7842 H         1 UNK         0.0600 
    182 H182        0.8391  -20.6254  -47.0289 H         1 UNK         0.0600 
    183 H183        0.4777  -20.7713  -48.7321 H         1 UNK         0.0600 
    184 H184        0.6485  -17.9285  -49.4942 H         1 UNK         0.3000 
    185 H185        2.8432  -16.6177  -51.9245 H         1 UNK         0.0600 
    186 H186        1.1110  -17.1770  -53.5342 H         1 UNK         0.0600 
    187 H187        1.8746  -18.6812  -53.0511 H         1 UNK         0.0600 
    188 H188        0.2960  -18.2511  -52.3988 H         1 UNK         0.0600 
    189 H189        0.0666  -16.1802  -51.2426 H         1 UNK         0.3000 
    190 H190       -2.4452  -24.3533  -44.2551 H         1 UNK         0.3000 
    191 H191       -3.2032  -26.8173  -45.5014 H         1 UNK         0.0600 
    192 H192       -2.5276  -27.8024  -43.3067 H         1 UNK         0.0600 
    193 H193       -3.5446  -26.3879  -43.0858 H         1 UNK         0.0600 
    194 H194       -1.8037  -26.2720  -42.8272 H         1 UNK         0.0600 
    195 H195       -0.0335  -25.3467  -44.7470 H         1 UNK         0.3000 
    196 H196        1.5525  -27.6419  -45.4989 H         1 UNK         0.0600 
    197 H197        2.3493  -24.6973  -45.2109 H         1 UNK         0.0600 
    198 H198        2.3639  -25.8860  -43.9071 H         1 UNK         0.0600 
    199 H199        3.4461  -26.0676  -45.2796 H         1 UNK         0.0600 
    200 H200        0.3704  -24.7285  -47.1476 H         1 UNK         0.3000 
    201 H201        1.6603  -25.2567  -49.6881 H         1 UNK         0.0600 
    202 H202       -0.6632  -23.4079  -48.9225 H         1 UNK         0.0600 
    203 H203        0.2313  -23.3578  -50.4393 H         1 UNK         0.0600 
    204 H204        1.0479  -22.9794  -48.9315 H         1 UNK         0.0600 
    205 H205       -0.8377  -26.9000  -48.1777 H         1 UNK         0.3000 
    206 H206       -2.4630  -28.2918  -48.7285 H         1 UNK         0.0600 
    207 H207       -0.5987  -29.4437  -49.9410 H         1 UNK         0.0600 
    208 H208       -2.1502  -29.7319  -50.7108 H         1 UNK         0.0600 
    209 H209       -1.0232  -28.5831  -51.4201 H         1 UNK         0.0600 
    210 H210       -3.0755  -25.6195  -49.0073 H         1 UNK         0.3000 
    211 H211       -4.5839  -24.1885  -49.6108 H         1 UNK         0.0600 
    212 H212       -6.7615  -24.8856  -50.4997 H         1 UNK         0.0600 
    213 H213       -6.2128  -26.0563  -49.3133 H         1 UNK         0.0600 
    214 H214       -6.1063  -26.4247  -51.0355 H         1 UNK         0.0600 
    215 H215       -2.4448  -25.2381  -51.8328 H         1 UNK         0.3000 
    216 H216       -3.4928  -24.2949  -54.3013 H         1 UNK         0.0600 
    217 H217       -0.5667  -24.5365  -53.4256 H         1 UNK         0.0600 
    218 H218       -1.1586  -24.4647  -55.0790 H         1 UNK         0.0600 
    219 H219       -1.5412  -25.8557  -54.0747 H         1 UNK         0.0600 
    220 H220       -2.0309  -22.5952  -51.6230 H         1 UNK         0.3000 
    221 H221       -1.3938  -20.1446  -52.9922 H         1 UNK         0.0600 
    222 H222       -0.2093  -20.7139  -50.9655 H         1 UNK         0.0600 
    223 H223       -1.6992  -20.8329  -50.0310 H         1 UNK         0.0600 
    224 H224       -1.1533  -19.2738  -50.6253 H         1 UNK         0.0600 
    225 H225       -4.4677  -21.4326  -52.2936 H         1 UNK         0.3000 
    226 H226       -5.9093  -19.0800  -51.5808 H         1 UNK         0.0600 
    227 H227       -6.8339  -21.5904  -53.0733 H         1 UNK         0.0600 
    228 H228       -6.8246  -21.3819  -51.3225 H         1 UNK         0.0600 
    229 H229       -7.8880  -20.4017  -52.3169 H         1 UNK         0.0600 
    230 H230       -4.4111  -19.9261  -54.5593 H         1 UNK         0.3000 
    231 H231       -6.0079  -18.2237  -56.3023 H         1 UNK         0.0600 
    232 H232       -3.2333  -19.4881  -56.6364 H         1 UNK         0.0600 
    233 H233       -4.1655  -18.7155  -57.9141 H         1 UNK         0.0600 
    234 H234       -4.7587  -20.1922  -57.1713 H         1 UNK         0.0600 
    235 H235       -3.6382  -17.5627  -53.8461 H         1 UNK         0.3000 
    236 H236       -3.2832  -14.7908  -54.7195 H         1 UNK         0.0600 
    237 H237       -1.4718  -15.8796  -55.9883 H         1 UNK         0.0600 
    238 H238       -0.7640  -15.0182  -54.6312 H         1 UNK         0.0600 
    239 H239       -0.9492  -16.7694  -54.5616 H         1 UNK         0.0600 
    240 H240       -4.7862  -15.1030  -52.7746 H         1 UNK         0.3000 
    241 H241       -3.7460  -15.7389  -50.2374 H         1 UNK         0.0600 
    242 H242       -2.4898  -11.8980  -50.6054 H         1 UNK         0.3800 
    243 H243       -3.0165  -12.8107  -51.9938 H         1 UNK         0.3800 
    244 H244       -6.1465  -13.9755  -50.9355 H         1 UNK         0.0800 
    245 H245       -5.8142  -14.5652  -49.3378 H         1 UNK         0.0800 
    246 H246       -7.8015  -17.6684  -49.1634 H         1 UNK         0.0800 
    247 H247       -7.1613  -16.2405  -48.3971 H         1 UNK         0.0800 
@<TRIPOS>BOND
     1    1    2 1    
     2    1  127 1    
     3    1  128 1    
     4    1  129 1    
     5    2    3 2    
     6    2    4 am   BACKBONE|DICT|INTERRES
     7    4    5 1    
     8    4  130 1    
     9    5    6 1    
    10    5   65 1    
    11    5  131 1    
    12    6    7 1    
    13    6  132 1    
    14    6  133 1    
    15    7    8 1    
    16    8    9 1    
    17    8  134 1    
    18    8  135 1    
    19    9   10 ar   
    20    9   14 ar   
    21   10   11 ar   
    22   10  136 1    
    23   11   12 ar   
    24   11  126 1    
    25   12   13 ar   
    26   12  137 1    
    27   13   14 ar   
    28   13   15 1    
    29   14  138 1    
    30   15   16 1    
    31   15  139 1    
    32   15  140 1    
    33   16   17 1    
    34   17   18 1    
    35   17  141 1    
    36   17  142 1    
    37   18   19 1    
    38   18   67 1    
    39   18  143 1    
    40   19   20 am   BACKBONE|DICT|INTERRES
    41   19  144 1    
    42   20   21 2    
    43   20   22 1    
    44   22   23 1    
    45   22   24 1    
    46   22  145 1    
    47   23  146 1    
    48   23  147 1    
    49   23  148 1    
    50   24   25 am   BACKBONE|DICT|INTERRES
    51   24  149 1    
    52   25   26 2    
    53   25   27 1    
    54   27   28 1    
    55   27   29 1    
    56   27  150 1    
    57   28  151 1    
    58   28  152 1    
    59   28  153 1    
    60   29   30 am   BACKBONE|DICT|INTERRES
    61   29  154 1    
    62   30   31 2    
    63   30   32 1    
    64   32   33 1    
    65   32   34 1    
    66   32  155 1    
    67   33  156 1    
    68   33  157 1    
    69   33  158 1    
    70   34   35 am   BACKBONE|DICT|INTERRES
    71   34  159 1    
    72   35   36 2    
    73   35   37 1    
    74   37   38 1    
    75   37   39 1    
    76   37  160 1    
    77   38  161 1    
    78   38  162 1    
    79   38  163 1    
    80   39   40 am   BACKBONE|DICT|INTERRES
    81   39  164 1    
    82   40   41 2    
    83   40   42 1    
    84   42   43 1    
    85   42   44 1    
    86   42  165 1    
    87   43  166 1    
    88   43  167 1    
    89   43  168 1    
    90   44   45 am   BACKBONE|DICT|INTERRES
    91   44  169 1    
    92   45   46 2    
    93   45   47 1    
    94   47   48 1    
    95   47   49 1    
    96   47  170 1    
    97   48  171 1    
    98   48  172 1    
    99   48  173 1    
   100   49   50 am   BACKBONE|DICT|INTERRES
   101   49  174 1    
   102   50   51 2    
   103   50   52 1    
   104   52   53 1    
   105   52   54 1    
   106   52  175 1    
   107   53  176 1    
   108   53  177 1    
   109   53  178 1    
   110   54   55 am   BACKBONE|DICT|INTERRES
   111   54  179 1    
   112   55   56 2    
   113   55   57 1    
   114   57   58 1    
   115   57   59 1    
   116   57  180 1    
   117   58  181 1    
   118   58  182 1    
   119   58  183 1    
   120   59   60 am   BACKBONE|DICT|INTERRES
   121   59  184 1    
   122   60   61 2    
   123   60   62 1    
   124   62   63 1    
   125   62   64 1    
   126   62  185 1    
   127   63  186 1    
   128   63  187 1    
   129   63  188 1    
   130   64   65 am   BACKBONE|DICT|INTERRES
   131   64  189 1    
   132   65   66 2    
   133   67   68 2    
   134   67   69 am   BACKBONE|DICT|INTERRES
   135   69   70 1    
   136   69  190 1    
   137   70   71 1    
   138   70   72 1    
   139   70  191 1    
   140   71  192 1    
   141   71  193 1    
   142   71  194 1    
   143   72   73 2    
   144   72   74 am   BACKBONE|DICT|INTERRES
   145   74   75 1    
   146   74  195 1    
   147   75   76 1    
   148   75   77 1    
   149   75  196 1    
   150   76  197 1    
   151   76  198 1    
   152   76  199 1    
   153   77   78 2    
   154   77   79 am   BACKBONE|DICT|INTERRES
   155   79   80 1    
   156   79  200 1    
   157   80   81 1    
   158   80   82 1    
   159   80  201 1    
   160   81  202 1    
   161   81  203 1    
   162   81  204 1    
   163   82   83 2    
   164   82   84 am   BACKBONE|DICT|INTERRES
   165   84   85 1    
   166   84  205 1    
   167   85   86 1    
   168   85   87 1    
   169   85  206 1    
   170   86  207 1    
   171   86  208 1    
   172   86  209 1    
   173   87   88 2    
   174   87   89 am   BACKBONE|DICT|INTERRES
   175   89   90 1    
   176   89  210 1    
   177   90   91 1    
   178   90   92 1    
   179   90  211 1    
   180   91  212 1    
   181   91  213 1    
   182   91  214 1    
   183   92   93 2    
   184   92   94 am   BACKBONE|DICT|INTERRES
   185   94   95 1    
   186   94  215 1    
   187   95   96 1    
   188   95   97 1    
   189   95  216 1    
   190   96  217 1    
   191   96  218 1    
   192   96  219 1    
   193   97   98 2    
   194   97   99 am   BACKBONE|DICT|INTERRES
   195   99  100 1    
   196   99  220 1    
   197  100  101 1    
   198  100  102 1    
   199  100  221 1    
   200  101  222 1    
   201  101  223 1    
   202  101  224 1    
   203  102  103 2    
   204  102  104 am   BACKBONE|DICT|INTERRES
   205  104  105 1    
   206  104  225 1    
   207  105  106 1    
   208  105  107 1    
   209  105  226 1    
   210  106  227 1    
   211  106  228 1    
   212  106  229 1    
   213  107  108 2    
   214  107  109 am   BACKBONE|DICT|INTERRES
   215  109  110 1    
   216  109  230 1    
   217  110  111 1    
   218  110  112 1    
   219  110  231 1    
   220  111  232 1    
   221  111  233 1    
   222  111  234 1    
   223  112  113 2    
   224  112  114 am   BACKBONE|DICT|INTERRES
   225  114  115 1    
   226  114  235 1    
   227  115  116 1    
   228  115  117 1    
   229  115  236 1    
   230  116  237 1    
   231  116  238 1    
   232  116  239 1    
   233  117  118 2    
   234  117  119 am   BACKBONE|DICT|INTERRES
   235  119  120 1    
   236  119  240 1    
   237  120  121 1    
   238  120  124 1    
   239  120  241 1    
   240  121  122 am   BACKBONE|DICT|INTERRES
   241  121  123 2    
   242  122  242 1    
   243  122  243 1    
   244  124  125 1    
   245  124  244 1    
   246  124  245 1    
   247  125  126 1    
   248  126  246 1    
   249  126  247 1    
@<TRIPOS>SUBSTRUCTURE
     1 UNK         1 GROUP             0       ****    0 ROOT    
