@<TRIPOS>MOLECULE
3R540
247   249    1
SMALL
USER_CHARGES


@<TRIPOS>ATOM
      1 CA         -3.3396  -13.2760  -46.5479 C.3       0 UNK        -0.1800 
      2 C          -2.9513  -14.7452  -46.7038 C.2       0 UNK         0.5000 
      3 O          -3.6157  -15.6071  -46.1333 O.2       0 UNK        -0.5000 
      4 N          -1.9026  -15.0874  -47.4635 N.am      1 UNK        -0.5000 
      5 CA         -0.9544  -14.1943  -48.1389 C.3       1 UNK         0.1400 
      6 C6         -0.1288  -14.9555  -49.2051 C.3       23 UNK        -0.0398 
      7 S7         -1.1721  -15.5032  -50.6026 S.3       23 UNK        -0.2404 
      8 C8         -1.3913  -17.2785  -50.2641 C.3       23 UNK        -0.0205 
      9 C9         -0.2142  -18.1072  -50.7561 C.ar      23 UNK        -0.0193 
     10 C10        -0.1475  -18.5122  -52.0913 C.ar      23 UNK        -0.1150 
     11 C11         0.8900  -19.3332  -52.5384 C.ar      23 UNK        -0.0193 
     12 C12         1.8866  -19.7287  -51.6410 C.ar      23 UNK        -0.1150 
     13 C13         1.8445  -19.3129  -50.3062 C.ar      23 UNK        -0.0193 
     14 C14         0.7901  -18.5056  -49.8722 C.ar      23 UNK        -0.1150 
     15 C15         2.9417  -19.7311  -49.3393 C.3       23 UNK        -0.0205 
     16 S16         2.5730  -21.3248  -48.5425 S.3       23 UNK        -0.2404 
     17 C17         1.6141  -20.7842  -47.0879 C.3       23 UNK        -0.0398 
     18 CA          0.9617  -21.9716  -46.3395 C.3       11 UNK         0.1400 
     19 N           0.8872  -21.7359  -44.8950 N.am      11 UNK        -0.5000 
     20 C           1.0245  -22.6917  -43.9659 C.2       10 UNK         0.5000 
     21 O           1.2297  -23.8767  -44.2305 O.2       10 UNK        -0.5000 
     22 CA          0.9182  -22.2624  -42.4899 C.3       10 UNK         0.1400 
     23 CB          2.3067  -21.9220  -41.9335 C.3       10 UNK        -0.1800 
     24 N           0.0197  -21.1263  -42.2803 N.am      10 UNK        -0.5000 
     25 C          -1.3135  -21.2105  -42.3766 C.2       9 UNK         0.5000 
     26 O          -1.9124  -22.2529  -42.6443 O.2       9 UNK        -0.5000 
     27 CA         -2.1216  -19.9181  -42.1530 C.3       9 UNK         0.1400 
     28 CB         -2.3672  -19.6984  -40.6523 C.3       9 UNK        -0.1800 
     29 N          -1.5455  -18.6948  -42.7195 N.am      9 UNK        -0.5000 
     30 C          -1.1032  -18.5140  -43.9716 C.2       8 UNK         0.5000 
     31 O          -0.9868  -19.4220  -44.7941 O.2       8 UNK        -0.5000 
     32 CA         -0.7364  -17.0776  -44.3812 C.3       8 UNK         0.1400 
     33 CB         -1.3424  -15.9895  -43.4718 C.3       8 UNK        -0.1800 
     34 N           0.7093  -16.9219  -44.3967 N.am      8 UNK        -0.5000 
     35 C           1.5136  -17.2122  -45.4241 C.2       7 UNK         0.5000 
     36 O           1.1162  -17.6351  -46.5063 O.2       7 UNK        -0.5000 
     37 CA          3.0194  -16.9897  -45.2116 C.3       7 UNK         0.1400 
     38 CB          3.4061  -15.5535  -45.5901 C.3       7 UNK        -0.1800 
     39 N           3.4072  -17.2295  -43.8225 N.am      7 UNK        -0.5000 
     40 C           3.9147  -18.3769  -43.3570 C.2       6 UNK         0.5000 
     41 O           4.1470  -19.3583  -44.0630 O.2       6 UNK        -0.5000 
     42 CA          4.2247  -18.4409  -41.8469 C.3       6 UNK         0.1400 
     43 CB          5.6836  -18.0372  -41.5853 C.3       6 UNK        -0.1800 
     44 N           3.3470  -17.5989  -41.0322 N.am      6 UNK        -0.5000 
     45 C           2.0394  -17.8165  -40.8375 C.2       5 UNK         0.5000 
     46 O           1.4246  -18.7769  -41.3026 O.2       5 UNK        -0.5000 
     47 CA          1.2773  -16.7576  -40.0147 C.3       5 UNK         0.1400 
     48 CB          1.2859  -17.1327  -38.5257 C.3       5 UNK        -0.1800 
     49 N           1.7517  -15.3732  -40.1697 N.am      5 UNK        -0.5000 
     50 C           1.8649  -14.7264  -41.3373 C.2       4 UNK         0.5000 
     51 O           1.7404  -15.2754  -42.4312 O.2       4 UNK        -0.5000 
     52 CA          2.1740  -13.2229  -41.3062 C.3       4 UNK         0.1400 
     53 CB          3.6321  -12.9654  -41.7152 C.3       4 UNK        -0.1800 
     54 N           1.2858  -12.5555  -42.2564 N.am      4 UNK        -0.5000 
     55 C           0.0140  -12.2263  -41.9984 C.2       3 UNK         0.5000 
     56 O          -0.4751  -12.2675  -40.8684 O.2       3 UNK        -0.5000 
     57 CA         -0.8882  -11.8460  -43.1912 C.3       3 UNK         0.1400 
     58 CB         -1.6225  -10.5078  -42.9693 C.3       3 UNK        -0.1800 
     59 N          -0.2307  -11.8997  -44.5043 N.am      3 UNK        -0.5000 
     60 C           0.6413  -11.0446  -45.0540 C.2       2 UNK         0.5000 
     61 O           1.0704  -10.0448  -44.4787 O.2       2 UNK        -0.5000 
     62 CA          1.1178  -11.3353  -46.4979 C.3       2 UNK         0.1400 
     63 CB          2.5757  -11.8316  -46.5017 C.3       2 UNK        -0.1800 
     64 N           0.2592  -12.2235  -47.3060 N.am      2 UNK        -0.5000 
     65 C          -0.0285  -13.5180  -47.1070 C.2       1 UNK         0.5000 
     66 O           0.3741  -14.1599  -46.1381 O.2       1 UNK        -0.5000 
     67 C          -0.4248  -22.3057  -46.9210 C.2       11 UNK         0.5000 
     68 O          -0.5064  -23.0907  -47.8642 O.2       11 UNK        -0.5000 
     69 N          -1.4897  -21.7352  -46.3365 N.am      12 UNK        -0.5000 
     70 CA         -2.8945  -21.8517  -46.7442 C.3       12 UNK         0.1400 
     71 CB         -3.7693  -21.1092  -45.7231 C.3       12 UNK        -0.1800 
     72 C          -3.4107  -23.2908  -46.9332 C.2       12 UNK         0.5000 
     73 O          -4.2891  -23.5083  -47.7681 O.2       12 UNK        -0.5000 
     74 N          -2.8455  -24.2453  -46.1833 N.am      13 UNK        -0.5000 
     75 CA         -3.1328  -25.6755  -46.2979 C.3       13 UNK         0.1400 
     76 CB         -2.5119  -26.4024  -45.0955 C.3       13 UNK        -0.1800 
     77 C          -2.6374  -26.3003  -47.6193 C.2       13 UNK         0.5000 
     78 O          -3.2492  -27.2560  -48.0974 O.2       13 UNK        -0.5000 
     79 N          -1.5499  -25.7569  -48.1820 N.am      14 UNK        -0.5000 
     80 CA         -0.9506  -26.1920  -49.4444 C.3       14 UNK         0.1400 
     81 CB          0.5795  -26.1905  -49.2991 C.3       14 UNK        -0.1800 
     82 C          -1.3793  -25.2824  -50.6075 C.2       14 UNK         0.5000 
     83 O          -1.6230  -25.7761  -51.7083 O.2       14 UNK        -0.5000 
     84 N          -1.4787  -23.9735  -50.3387 N.am      15 UNK        -0.5000 
     85 CA         -1.8746  -22.9371  -51.2934 C.3       15 UNK         0.1400 
     86 CB         -1.4767  -21.5687  -50.7219 C.3       15 UNK        -0.1800 
     87 C          -3.3747  -22.9481  -51.6415 C.2       15 UNK         0.5000 
     88 O          -3.7636  -22.3126  -52.6224 O.2       15 UNK        -0.5000 
     89 N          -4.1767  -23.6584  -50.8345 N.am      16 UNK        -0.5000 
     90 CA         -5.6356  -23.7526  -50.8762 C.3       16 UNK         0.1400 
     91 CB         -6.1263  -24.4007  -52.1853 C.3       16 UNK        -0.1800 
     92 C          -6.2750  -22.3855  -50.5808 C.2       16 UNK         0.5000 
     93 O          -6.8554  -21.7536  -51.4655 O.2       16 UNK        -0.5000 
     94 N          -6.1118  -21.9524  -49.3237 N.am      17 UNK        -0.5000 
     95 CA         -6.5846  -20.6910  -48.7536 C.3       17 UNK         0.1400 
     96 CB         -8.1272  -20.6850  -48.6527 C.3       17 UNK        -0.1800 
     97 C          -5.9865  -19.4828  -49.5001 C.2       17 UNK         0.5000 
     98 O          -4.7635  -19.3270  -49.5070 O.2       17 UNK        -0.5000 
     99 N          -6.8409  -18.6647  -50.1267 N.am      18 UNK        -0.5000 
    100 CA        -6.4925  -17.4709  -50.8967 C.3       18 UNK         0.1400 
    101 CB        -7.7369  -16.5687  -50.9872 C.3       18 UNK        -0.1800 
    102 C         -5.8922  -17.8020  -52.2816 C.2       18 UNK         0.5000 
    103 O         -6.3890  -17.3219  -53.3021 O.2       18 UNK        -0.5000 
    104 N         -4.8214  -18.6068  -52.2806 N.am      19 UNK        -0.5000 
    105 CA        -3.9680  -18.9643  -53.4168 C.3       19 UNK         0.1400 
    106 CB        -3.2657  -17.7026  -53.9661 C.3       19 UNK        -0.1800 
    107 C         -4.6839  -19.7447  -54.5387 C.2       19 UNK         0.5000 
    108 O         -4.2498  -19.6704  -55.6893 O.2       19 UNK        -0.5000 
    109 N         -5.7491  -20.4960  -54.2249 N.am      20 UNK        -0.5000 
    110 CA        -6.5479  -21.2095  -55.2281 C.3       20 UNK         0.1400 
    111 CB        -7.8356  -21.7481  -54.5878 C.3       20 UNK        -0.1800 
    112 C         -5.7865  -22.3252  -55.9771 C.2       20 UNK         0.5000 
    113 O         -6.1972  -22.6854  -57.0814 O.2       20 UNK        -0.5000 
    114 N         -4.6942  -22.8356  -55.3909 N.am      21 UNK        -0.5000 
    115 CA        -3.8400  -23.8632  -55.9866 C.3       21 UNK         0.1400 
    116 CB        -3.4545  -24.8787  -54.8979 C.3       21 UNK        -0.1800 
    117 C         -2.5714  -23.2987  -56.6580 C.2       21 UNK         0.5000 
    118 O         -1.8392  -24.0844  -57.2629 O.2       21 UNK        -0.5000 
    119 N         -2.2933  -21.9913  -56.5380 N.am      22 UNK        -0.5000 
    120 CA        -1.0006  -21.4073  -56.9522 C.3       22 UNK         0.1400 
    121 C         -1.0195  -19.9217  -57.4110 C.2       22 UNK         0.5000 
    122 N         -2.1206  -19.1901  -57.3311 N.am      22 UNK        -0.7600 
    123 O         -0.0065  -19.4215  -57.8928 O.2       22 UNK        -0.5000 
    124 C124        0.1365  -21.7039  -55.9343 C.3       23 UNK        -0.0398 
    125 S125       -0.2449  -21.1869  -54.2243 S.3       23 UNK        -0.2404 
    126 C126        0.9148  -19.8075  -53.9830 C.3       23 UNK        -0.0205 
    127 H127       -4.3172  -13.1920  -46.0728 H         1 UNK         0.0600 
    128 H128       -3.4032  -12.7754  -47.5135 H         1 UNK         0.0600 
    129 H129       -2.6222  -12.7483  -45.9210 H         1 UNK         0.0600 
    130 H130       -1.6627  -16.0649  -47.5193 H         1 UNK         0.3000 
    131 H131       -1.5196  -13.4143  -48.6517 H         1 UNK         0.0600 
    132 H132        0.6476  -14.3105  -49.6207 H         1 UNK         0.0800 
    133 H133        0.3921  -15.8058  -48.7618 H         1 UNK         0.0800 
    134 H134       -2.3017  -17.6192  -50.7593 H         1 UNK         0.0800 
    135 H135       -1.5568  -17.4410  -49.1983 H         1 UNK         0.0800 
    136 H136       -0.9172  -18.2128  -52.7826 H         1 UNK         0.1150 
    137 H137        2.6913  -20.3668  -51.9781 H         1 UNK         0.1150 
    138 H138        0.7438  -18.1936  -48.8422 H         1 UNK         0.1150 
    139 H139        3.8866  -19.8201  -49.8771 H         1 UNK         0.0800 
    140 H140        3.0968  -18.9613  -48.5812 H         1 UNK         0.0800 
    141 H141        0.8687  -20.0467  -47.3873 H         1 UNK         0.0800 
    142 H142        2.3093  -20.2593  -46.4303 H         1 UNK         0.0800 
    143 H143        1.5892  -22.8512  -46.5005 H         1 UNK         0.0600 
    144 H144        0.6399  -20.7987  -44.6008 H         1 UNK         0.3000 
    145 H145        0.5297  -23.1120  -41.9242 H         1 UNK         0.0600 
    146 H146        2.2544  -21.6181  -40.8879 H         1 UNK         0.0600 
    147 H147        2.9739  -22.7827  -41.9927 H         1 UNK         0.0600 
    148 H148        2.7659  -21.1126  -42.4986 H         1 UNK         0.0600 
    149 H149        0.4467  -20.2363  -42.0318 H         1 UNK         0.3000 
    150 H150       -3.0901  -20.0605  -42.6359 H         1 UNK         0.0600 
    151 H151       -2.8127  -20.5824  -40.1938 H         1 UNK         0.0600 
    152 H152       -3.0504  -18.8666  -40.4802 H         1 UNK         0.0600 
    153 H153       -1.4377  -19.4859  -40.1219 H         1 UNK         0.0600 
    154 H154       -1.5727  -17.8852  -42.1191 H         1 UNK         0.3000 
    155 H155       -1.1265  -16.9234  -45.3882 H         1 UNK         0.0600 
    156 H156       -2.4289  -16.0741  -43.4261 H         1 UNK         0.0600 
    157 H157       -1.1153  -14.9981  -43.8630 H         1 UNK         0.0600 
    158 H158       -0.9549  -16.0334  -42.4539 H         1 UNK         0.0600 
    159 H159        1.1213  -16.4860  -43.5759 H         1 UNK         0.3000 
    160 H160        3.5542  -17.6708  -45.8770 H         1 UNK         0.0600 
    161 H161        2.9251  -14.8300  -44.9312 H         1 UNK         0.0600 
    162 H162        3.1022  -15.3214  -46.6118 H         1 UNK         0.0600 
    163 H163        4.4836  -15.4032  -45.5250 H         1 UNK         0.0600 
    164 H164        3.1755  -16.4949  -43.1641 H         1 UNK         0.3000 
    165 H165        4.0984  -19.4744  -41.5210 H         1 UNK         0.0600 
    166 H166        5.9421  -18.1506  -40.5323 H         1 UNK         0.0600 
    167 H167        6.3704  -18.6636  -42.1563 H         1 UNK         0.0600 
    168 H168        5.8717  -17.0008  -41.8688 H         1 UNK         0.0600 
    169 H169        3.7612  -16.7784  -40.6152 H         1 UNK         0.3000 
    170 H170        0.2414  -16.7792  -40.3581 H         1 UNK         0.0600 
    171 H171        0.6454  -16.4672  -37.9466 H         1 UNK         0.0600 
    172 H172        0.9156  -18.1480  -38.3755 H         1 UNK         0.0600 
    173 H173        2.2909  -17.0838  -38.1047 H         1 UNK         0.0600 
    174 H174        1.8902  -14.8545  -39.3142 H         1 UNK         0.3000 
    175 H175        2.0113  -12.8300  -40.3005 H         1 UNK         0.0600 
    176 H176        3.8477  -13.3520  -42.7125 H         1 UNK         0.0600 
    177 H177        3.8577  -11.8989  -41.7147 H         1 UNK         0.0600 
    178 H178        4.3229  -13.4447  -41.0204 H         1 UNK         0.0600 
    179 H179        1.5852  -12.5491  -43.2198 H         1 UNK         0.3000 
    180 H180       -1.6541  -12.6217  -43.2290 H         1 UNK         0.0600 
    181 H181       -0.9285   -9.6796  -42.8260 H         1 UNK         0.0600 
    182 H182       -2.2552  -10.5540  -42.0822 H         1 UNK         0.0600 
    183 H183       -2.2678  -10.2663  -43.8139 H         1 UNK         0.0600 
    184 H184       -0.3901  -12.7518  -45.0320 H         1 UNK         0.3000 
    185 H185        1.1028  -10.3737  -47.0132 H         1 UNK         0.0600 
    186 H186        3.2367  -11.1055  -46.0268 H         1 UNK         0.0600 
    187 H187        2.6843  -12.7691  -45.9598 H         1 UNK         0.0600 
    188 H188        2.9393  -11.9858  -47.5175 H         1 UNK         0.0600 
    189 H189       -0.1538  -11.7715  -48.1105 H         1 UNK         0.3000 
    190 H190       -1.3078  -21.0500  -45.6069 H         1 UNK         0.3000 
    191 H191       -2.9980  -21.3455  -47.7048 H         1 UNK         0.0600 
    192 H192       -3.5435  -20.0427  -45.7117 H         1 UNK         0.0600 
    193 H193       -3.6200  -21.4958  -44.7149 H         1 UNK         0.0600 
    194 H194       -4.8290  -21.2135  -45.9546 H         1 UNK         0.0600 
    195 H195       -2.1376  -23.9723  -45.5170 H         1 UNK         0.3000 
    196 H196       -4.2160  -25.8076  -46.2562 H         1 UNK         0.0600 
    197 H197       -2.7245  -27.4717  -45.1323 H         1 UNK         0.0600 
    198 H198       -2.9137  -26.0242  -44.1553 H         1 UNK         0.0600 
    199 H199       -1.4278  -26.2832  -45.0695 H         1 UNK         0.0600 
    200 H200       -1.1414  -24.9304  -47.7581 H         1 UNK         0.3000 
    201 H201       -1.2649  -27.2108  -49.6808 H         1 UNK         0.0600 
    202 H202        0.9634  -25.1967  -49.0642 H         1 UNK         0.0600 
    203 H203        1.0594  -26.5186  -50.2219 H         1 UNK         0.0600 
    204 H204        0.8994  -26.8679  -48.5072 H         1 UNK         0.0600 
    205 H205       -1.1983  -23.6470  -49.4161 H         1 UNK         0.3000 
    206 H206       -1.3231  -23.1003  -52.2207 H         1 UNK         0.0600 
    207 H207       -0.4044  -21.5145  -50.5324 H         1 UNK         0.0600 
    208 H208       -1.7235  -20.7699  -51.4204 H         1 UNK         0.0600 
    209 H209       -1.9941  -21.3535  -49.7882 H         1 UNK         0.0600 
    210 H210       -3.7439  -24.0953  -50.0324 H         1 UNK         0.3000 
    211 H211       -5.9255  -24.4181  -50.0615 H         1 UNK         0.0600 
    212 H212       -5.8588  -23.8116  -53.0598 H         1 UNK         0.0600 
    213 H213       -7.2116  -24.5064  -52.1829 H         1 UNK         0.0600 
    214 H214       -5.7021  -25.3966  -52.3110 H         1 UNK         0.0600 
    215 H215       -5.5453  -22.5281  -48.7043 H         1 UNK         0.3000 
    216 H216       -6.1919  -20.6414  -47.7388 H         1 UNK         0.0600 
    217 H217       -8.4870  -19.7793  -48.1626 H         1 UNK         0.0600 
    218 H218       -8.4781  -21.5283  -48.0578 H         1 UNK         0.0600 
    219 H219       -8.6087  -20.7517  -49.6289 H         1 UNK         0.0600 
    220 H220       -7.8203  -18.9089  -50.1118 H         1 UNK         0.3000 
    221 H221       -5.7271  -16.9198  -50.3460 H         1 UNK         0.0600 
    222 H222       -8.5494  -17.0568  -51.5269 H         1 UNK         0.0600 
    223 H223       -8.1043  -16.3025  -49.9959 H         1 UNK         0.0600 
    224 H224       -7.5091  -15.6368  -51.5064 H         1 UNK         0.0600 
    225 H225       -4.5395  -18.9823  -51.3789 H         1 UNK         0.3000 
    226 H226       -3.1989  -19.6289  -53.0223 H         1 UNK         0.0600 
    227 H227       -2.8550  -17.0884  -53.1653 H         1 UNK         0.0600 
    228 H228       -2.4433  -17.9708  -54.6303 H         1 UNK         0.0600 
    229 H229       -3.9521  -17.0766  -54.5374 H         1 UNK         0.0600 
    230 H230       -6.0290  -20.5921  -53.2560 H         1 UNK         0.3000 
    231 H231       -6.8438  -20.4743  -55.9794 H         1 UNK         0.0600 
    232 H232       -8.3854  -20.9573  -54.0772 H         1 UNK         0.0600 
    233 H233       -7.6311  -22.5349  -53.8643 H         1 UNK         0.0600 
    234 H234       -8.4985  -22.1692  -55.3446 H         1 UNK         0.0600 
    235 H235       -4.4254  -22.4989  -54.4693 H         1 UNK         0.3000 
    236 H236       -4.3922  -24.4055  -56.7566 H         1 UNK         0.0600 
    237 H237       -4.3364  -25.2980  -54.4152 H         1 UNK         0.0600 
    238 H238       -2.8941  -25.7132  -55.3208 H         1 UNK         0.0600 
    239 H239       -2.8285  -24.4275  -54.1284 H         1 UNK         0.0600 
    240 H240       -2.9407  -21.3796  -56.0589 H         1 UNK         0.3000 
    241 H241       -0.7174  -21.9160  -57.8758 H         1 UNK         0.0600 
    242 H242       -2.0894  -18.2406  -57.6645 H         1 UNK         0.3800 
    243 H243       -2.9643  -19.5149  -56.8622 H         1 UNK         0.3800 
    244 H244        1.0800  -21.2624  -56.2591 H         1 UNK         0.0800 
    245 H245        0.3225  -22.7782  -55.9090 H         1 UNK         0.0800 
    246 H246        0.6486  -18.9866  -54.6508 H         1 UNK         0.0800 
    247 H247        1.9222  -20.1228  -54.2588 H         1 UNK         0.0800 
@<TRIPOS>BOND
     1    1    2 1    
     2    1  127 1    
     3    1  128 1    
     4    1  129 1    
     5    2    3 2    
     6    2    4 am   BACKBONE|DICT|INTERRES
     7    4    5 1    
     8    4  130 1    
     9    5    6 1    
    10    5   65 1    
    11    5  131 1    
    12    6    7 1    
    13    6  132 1    
    14    6  133 1    
    15    7    8 1    
    16    8    9 1    
    17    8  134 1    
    18    8  135 1    
    19    9   10 ar   
    20    9   14 ar   
    21   10   11 ar   
    22   10  136 1    
    23   11   12 ar   
    24   11  126 1    
    25   12   13 ar   
    26   12  137 1    
    27   13   14 ar   
    28   13   15 1    
    29   14  138 1    
    30   15   16 1    
    31   15  139 1    
    32   15  140 1    
    33   16   17 1    
    34   17   18 1    
    35   17  141 1    
    36   17  142 1    
    37   18   19 1    
    38   18   67 1    
    39   18  143 1    
    40   19   20 am   BACKBONE|DICT|INTERRES
    41   19  144 1    
    42   20   21 2    
    43   20   22 1    
    44   22   23 1    
    45   22   24 1    
    46   22  145 1    
    47   23  146 1    
    48   23  147 1    
    49   23  148 1    
    50   24   25 am   BACKBONE|DICT|INTERRES
    51   24  149 1    
    52   25   26 2    
    53   25   27 1    
    54   27   28 1    
    55   27   29 1    
    56   27  150 1    
    57   28  151 1    
    58   28  152 1    
    59   28  153 1    
    60   29   30 am   BACKBONE|DICT|INTERRES
    61   29  154 1    
    62   30   31 2    
    63   30   32 1    
    64   32   33 1    
    65   32   34 1    
    66   32  155 1    
    67   33  156 1    
    68   33  157 1    
    69   33  158 1    
    70   34   35 am   BACKBONE|DICT|INTERRES
    71   34  159 1    
    72   35   36 2    
    73   35   37 1    
    74   37   38 1    
    75   37   39 1    
    76   37  160 1    
    77   38  161 1    
    78   38  162 1    
    79   38  163 1    
    80   39   40 am   BACKBONE|DICT|INTERRES
    81   39  164 1    
    82   40   41 2    
    83   40   42 1    
    84   42   43 1    
    85   42   44 1    
    86   42  165 1    
    87   43  166 1    
    88   43  167 1    
    89   43  168 1    
    90   44   45 am   BACKBONE|DICT|INTERRES
    91   44  169 1    
    92   45   46 2    
    93   45   47 1    
    94   47   48 1    
    95   47   49 1    
    96   47  170 1    
    97   48  171 1    
    98   48  172 1    
    99   48  173 1    
   100   49   50 am   BACKBONE|DICT|INTERRES
   101   49  174 1    
   102   50   51 2    
   103   50   52 1    
   104   52   53 1    
   105   52   54 1    
   106   52  175 1    
   107   53  176 1    
   108   53  177 1    
   109   53  178 1    
   110   54   55 am   BACKBONE|DICT|INTERRES
   111   54  179 1    
   112   55   56 2    
   113   55   57 1    
   114   57   58 1    
   115   57   59 1    
   116   57  180 1    
   117   58  181 1    
   118   58  182 1    
   119   58  183 1    
   120   59   60 am   BACKBONE|DICT|INTERRES
   121   59  184 1    
   122   60   61 2    
   123   60   62 1    
   124   62   63 1    
   125   62   64 1    
   126   62  185 1    
   127   63  186 1    
   128   63  187 1    
   129   63  188 1    
   130   64   65 am   BACKBONE|DICT|INTERRES
   131   64  189 1    
   132   65   66 2    
   133   67   68 2    
   134   67   69 am   BACKBONE|DICT|INTERRES
   135   69   70 1    
   136   69  190 1    
   137   70   71 1    
   138   70   72 1    
   139   70  191 1    
   140   71  192 1    
   141   71  193 1    
   142   71  194 1    
   143   72   73 2    
   144   72   74 am   BACKBONE|DICT|INTERRES
   145   74   75 1    
   146   74  195 1    
   147   75   76 1    
   148   75   77 1    
   149   75  196 1    
   150   76  197 1    
   151   76  198 1    
   152   76  199 1    
   153   77   78 2    
   154   77   79 am   BACKBONE|DICT|INTERRES
   155   79   80 1    
   156   79  200 1    
   157   80   81 1    
   158   80   82 1    
   159   80  201 1    
   160   81  202 1    
   161   81  203 1    
   162   81  204 1    
   163   82   83 2    
   164   82   84 am   BACKBONE|DICT|INTERRES
   165   84   85 1    
   166   84  205 1    
   167   85   86 1    
   168   85   87 1    
   169   85  206 1    
   170   86  207 1    
   171   86  208 1    
   172   86  209 1    
   173   87   88 2    
   174   87   89 am   BACKBONE|DICT|INTERRES
   175   89   90 1    
   176   89  210 1    
   177   90   91 1    
   178   90   92 1    
   179   90  211 1    
   180   91  212 1    
   181   91  213 1    
   182   91  214 1    
   183   92   93 2    
   184   92   94 am   BACKBONE|DICT|INTERRES
   185   94   95 1    
   186   94  215 1    
   187   95   96 1    
   188   95   97 1    
   189   95  216 1    
   190   96  217 1    
   191   96  218 1    
   192   96  219 1    
   193   97   98 2    
   194   97   99 am   BACKBONE|DICT|INTERRES
   195   99  100 1    
   196   99  220 1    
   197  100  101 1    
   198  100  102 1    
   199  100  221 1    
   200  101  222 1    
   201  101  223 1    
   202  101  224 1    
   203  102  103 2    
   204  102  104 am   BACKBONE|DICT|INTERRES
   205  104  105 1    
   206  104  225 1    
   207  105  106 1    
   208  105  107 1    
   209  105  226 1    
   210  106  227 1    
   211  106  228 1    
   212  106  229 1    
   213  107  108 2    
   214  107  109 am   BACKBONE|DICT|INTERRES
   215  109  110 1    
   216  109  230 1    
   217  110  111 1    
   218  110  112 1    
   219  110  231 1    
   220  111  232 1    
   221  111  233 1    
   222  111  234 1    
   223  112  113 2    
   224  112  114 am   BACKBONE|DICT|INTERRES
   225  114  115 1    
   226  114  235 1    
   227  115  116 1    
   228  115  117 1    
   229  115  236 1    
   230  116  237 1    
   231  116  238 1    
   232  116  239 1    
   233  117  118 2    
   234  117  119 am   BACKBONE|DICT|INTERRES
   235  119  120 1    
   236  119  240 1    
   237  120  121 1    
   238  120  124 1    
   239  120  241 1    
   240  121  122 am   BACKBONE|DICT|INTERRES
   241  121  123 2    
   242  122  242 1    
   243  122  243 1    
   244  124  125 1    
   245  124  244 1    
   246  124  245 1    
   247  125  126 1    
   248  126  246 1    
   249  126  247 1    
@<TRIPOS>SUBSTRUCTURE
     1 UNK         1 GROUP             0       ****    0 ROOT    
