@<TRIPOS>MOLECULE
3R540
247   249    1
SMALL
USER_CHARGES


@<TRIPOS>ATOM
      1 CA          8.0765  -11.3851  -50.9371 C.3       0 UNK        -0.1800 
      2 C           6.8253  -11.7582  -50.1532 C.2       0 UNK         0.5000 
      3 O           5.7666  -11.9302  -50.7564 O.2       0 UNK        -0.5000 
      4 N           6.9628  -11.8745  -48.8238 N.am      1 UNK        -0.5000 
      5 CA          5.9390  -12.2119  -47.8217 C.3       1 UNK         0.1400 
      6 C6          5.6790  -13.7432  -47.6821 C.3       23 UNK        -0.0398 
      7 S7          4.7828  -14.5464  -49.0583 S.3       23 UNK        -0.2404 
      8 C8          3.6923  -15.6816  -48.1516 C.3       23 UNK        -0.0205 
      9 C9          2.8330  -16.5057  -49.0960 C.ar      23 UNK        -0.0193 
     10 C10         1.6935  -15.9442  -49.6772 C.ar      23 UNK        -0.1150 
     11 C11         0.8805  -16.7013  -50.5255 C.ar      23 UNK        -0.0193 
     12 C12         1.2147  -18.0333  -50.7910 C.ar      23 UNK        -0.1150 
     13 C13         2.3648  -18.6007  -50.2310 C.ar      23 UNK        -0.0193 
     14 C14         3.1676  -17.8321  -49.3825 C.ar      23 UNK        -0.1150 
     15 C15         2.7687  -20.0286  -50.5736 C.3       23 UNK        -0.0205 
     16 S16         2.5881  -21.1650  -49.1632 S.3       23 UNK        -0.2404 
     17 C17         0.7759  -21.2460  -49.0107 C.3       23 UNK        -0.0398 
     18 CA          0.3172  -22.4179  -48.1097 C.3       11 UNK         0.1400 
     19 N           0.6396  -22.2172  -46.6915 N.am      11 UNK        -0.5000 
     20 C           0.4390  -23.1290  -45.7274 C.2       10 UNK         0.5000 
     21 O           0.0177  -24.2659  -45.9393 O.2       10 UNK        -0.5000 
     22 CA          0.6941  -22.6888  -44.2747 C.3       10 UNK         0.1400 
     23 CB          2.1927  -22.7209  -43.9404 C.3       10 UNK        -0.1800 
     24 N           0.1416  -21.3661  -43.9821 N.am      10 UNK        -0.5000 
     25 C          -1.1646  -21.0636  -44.0147 C.2       9 UNK         0.5000 
     26 O          -2.0502  -21.8871  -44.2430 O.2       9 UNK        -0.5000 
     27 CA         -1.5447  -19.5842  -43.8132 C.3       9 UNK         0.1400 
     28 CB         -1.5612  -19.2122  -42.3234 C.3       9 UNK        -0.1800 
     29 N          -0.6588  -18.6756  -44.5408 N.am      9 UNK        -0.5000 
     30 C          -0.5293  -18.6560  -45.8754 C.2       8 UNK         0.5000 
     31 O          -1.1880  -19.3607  -46.6397 O.2       8 UNK        -0.5000 
     32 CA          0.5609  -17.7357  -46.4448 C.3       8 UNK         0.1400 
     33 CB          0.0482  -16.2942  -46.5435 C.3       8 UNK        -0.1800 
     34 N           1.7899  -17.7810  -45.6485 N.am      8 UNK        -0.5000 
     35 C           2.5730  -18.8653  -45.5469 C.2       7 UNK         0.5000 
     36 O           2.3492  -19.9216  -46.1330 O.2       7 UNK        -0.5000 
     37 CA          3.7719  -18.7813  -44.5840 C.3       7 UNK         0.1400 
     38 CB          4.9584  -18.0594  -45.2389 C.3       7 UNK        -0.1800 
     39 N           3.4373  -18.1151  -43.3270 N.am      7 UNK        -0.5000 
     40 C           2.5591  -18.5773  -42.4256 C.2       6 UNK         0.5000 
     41 O           1.9917  -19.6643  -42.5197 O.2       6 UNK        -0.5000 
     42 CA          2.2182  -17.6378  -41.2519 C.3       6 UNK         0.1400 
     43 CB          3.1511  -17.9003  -40.0608 C.3       6 UNK        -0.1800 
     44 N           2.2877  -16.2204  -41.6226 N.am      6 UNK        -0.5000 
     45 C           1.5064  -15.6431  -42.5452 C.2       5 UNK         0.5000 
     46 O           0.6096  -16.2402  -43.1460 O.2       5 UNK        -0.5000 
     47 CA          1.8596  -14.1906  -42.9135 C.3       5 UNK         0.1400 
     48 CB          3.0252  -14.1737  -43.9172 C.3       5 UNK        -0.1800 
     49 N           0.7272  -13.4610  -43.4853 N.am      5 UNK        -0.5000 
     50 C          -0.3493  -13.0707  -42.7857 C.2       4 UNK         0.5000 
     51 O          -0.4880  -13.2959  -41.5820 O.2       4 UNK        -0.5000 
     52 CA         -1.4390  -12.2585  -43.5173 C.3       4 UNK         0.1400 
     53 CB         -1.5313  -10.8374  -42.9366 C.3       4 UNK        -0.1800 
     54 N          -1.2099  -12.1478  -44.9572 N.am      4 UNK        -0.5000 
     55 C          -1.6344  -13.0237  -45.8767 C.2       3 UNK         0.5000 
     56 O          -2.3156  -14.0136  -45.6118 O.2       3 UNK        -0.5000 
     57 CA         -1.2322  -12.7430  -47.3409 C.3       3 UNK         0.1400 
     58 CB         -2.4116  -12.1232  -48.1051 C.3       3 UNK        -0.1800 
     59 N          -0.0649  -11.8637  -47.4876 N.am      3 UNK        -0.5000 
     60 C           1.1748  -12.1719  -47.0896 C.2       2 UNK         0.5000 
     61 O           1.4658  -13.2213  -46.5138 O.2       2 UNK        -0.5000 
     62 CA          2.2594  -11.1136  -47.3142 C.3       2 UNK         0.1400 
     63 CB          2.2458  -10.0822  -46.1701 C.3       2 UNK        -0.1800 
     64 N           3.5464  -11.7972  -47.3640 N.am      2 UNK        -0.5000 
     65 C           4.6820  -11.3030  -47.8674 C.2       1 UNK         0.5000 
     66 O           4.7751  -10.1522  -48.3042 O.2       1 UNK        -0.5000 
     67 C          -1.1829  -22.6971  -48.3189 C.2       11 UNK         0.5000 
     68 O          -1.5235  -23.6482  -49.0214 O.2       11 UNK        -0.5000 
     69 N          -2.0494  -21.8978  -47.6807 N.am      12 UNK        -0.5000 
     70 CA         -3.5014  -22.0609  -47.7244 C.3       12 UNK         0.1400 
     71 CB         -4.1834  -20.8714  -47.0338 C.3       12 UNK        -0.1800 
     72 C          -3.9760  -23.3943  -47.1238 C.2       12 UNK         0.5000 
     73 O          -4.8366  -24.0461  -47.7156 O.2       12 UNK        -0.5000 
     74 N          -3.3843  -23.7924  -45.9893 N.am      13 UNK        -0.5000 
     75 CA         -3.6345  -25.0723  -45.3284 C.3       13 UNK         0.1400 
     76 CB         -2.9505  -25.0896  -43.9531 C.3       13 UNK        -0.1800 
     77 C          -3.1883  -26.2729  -46.1813 C.2       13 UNK         0.5000 
     78 O          -3.9599  -27.2191  -46.3393 O.2       13 UNK        -0.5000 
     79 N          -1.9753  -26.1979  -46.7484 N.am      14 UNK        -0.5000 
     80 CA         -1.4010  -27.2173  -47.6311 C.3       14 UNK         0.1400 
     81 CB          0.0671  -26.8734  -47.9244 C.3       14 UNK        -0.1800 
     82 C          -2.1882  -27.3928  -48.9429 C.2       14 UNK         0.5000 
     83 O          -2.3600  -28.5211  -49.4052 O.2       14 UNK        -0.5000 
     84 N          -2.6777  -26.2776  -49.4987 N.am      15 UNK        -0.5000 
     85 CA         -3.5205  -26.2356  -50.6934 C.3       15 UNK         0.1400 
     86 CB         -3.4372  -24.8285  -51.2976 C.3       15 UNK        -0.1800 
     87 C          -4.9940  -26.6064  -50.4312 C.2       15 UNK         0.5000 
     88 O          -5.7573  -26.7136  -51.3923 O.2       15 UNK        -0.5000 
     89 N          -5.3760  -26.7558  -49.1529 N.am      16 UNK        -0.5000 
     90 CA         -6.7295  -27.0121  -48.6503 C.3       16 UNK         0.1400 
     91 CB         -7.1894  -28.4346  -49.0301 C.3       16 UNK        -0.1800 
     92 C          -7.7294  -25.9161  -49.0763 C.2       16 UNK         0.5000 
     93 O          -8.8413  -26.2217  -49.5105 O.2       16 UNK        -0.5000 
     94 N          -7.2840  -24.6541  -48.9878 N.am      17 UNK        -0.5000 
     95 CA         -7.9476  -23.3961  -49.3566 C.3       17 UNK         0.1400 
     96 CB         -9.2417  -23.1902  -48.5479 C.3       17 UNK        -0.1800 
     97 C          -8.2049  -23.1993  -50.8668 C.2       17 UNK         0.5000 
     98 O          -8.1317  -22.0664  -51.3432 O.2       17 UNK        -0.5000 
     99 N          -8.4921  -24.2858  -51.5934 N.am      18 UNK        -0.5000 
    100 CA        -8.9159  -24.3157  -52.9956 C.3       18 UNK         0.1400 
    101 CB        -9.2475  -25.7675  -53.3734 C.3       18 UNK        -0.1800 
    102 C         -7.9131  -23.7195  -54.0025 C.2       18 UNK         0.5000 
    103 O         -8.3378  -23.2204  -55.0456 O.2       18 UNK        -0.5000 
    104 N         -6.6160  -23.7776  -53.6802 N.am      19 UNK        -0.5000 
    105 CA        -5.5231  -23.2606  -54.5063 C.3       19 UNK         0.1400 
    106 CB        -4.8378  -24.4325  -55.2344 C.3       19 UNK        -0.1800 
    107 C         -4.5487  -22.4152  -53.6653 C.2       19 UNK         0.5000 
    108 O         -3.3452  -22.4221  -53.9257 O.2       19 UNK        -0.5000 
    109 N         -5.0803  -21.7145  -52.6520 N.am      20 UNK        -0.5000 
    110 CA        -4.3164  -20.8985  -51.7017 C.3       20 UNK         0.1400 
    111 CB        -5.2543  -20.4571  -50.5689 C.3       20 UNK        -0.1800 
    112 C         -3.6337  -19.6619  -52.3176 C.2       20 UNK         0.5000 
    113 O         -2.6870  -19.1446  -51.7258 O.2       20 UNK        -0.5000 
    114 N         -4.1536  -19.1839  -53.4581 N.am      21 UNK        -0.5000 
    115 CA        -3.7341  -18.0191  -54.2537 C.3       21 UNK         0.1400 
    116 CB        -2.2673  -18.1426  -54.7098 C.3       21 UNK        -0.1800 
    117 C         -3.9999  -16.6513  -53.5905 C.2       21 UNK         0.5000 
    118 O         -4.3563  -15.7061  -54.2952 O.2       21 UNK        -0.5000 
    119 N         -3.8530  -16.5709  -52.2655 N.am      22 UNK        -0.5000 
    120 CA        -4.1047  -15.3843  -51.4341 C.3       22 UNK         0.1400 
    121 C         -5.0897  -15.6435  -50.2564 C.2       22 UNK         0.5000 
    122 N         -5.7644  -16.7856  -50.1976 N.am      22 UNK        -0.7600 
    123 O         -5.2744  -14.7845  -49.3987 O.2       22 UNK        -0.5000 
    124 C124       -2.7837  -14.7040  -50.9926 C.3       23 UNK        -0.0398 
    125 S125       -1.6766  -15.7685  -49.9990 S.3       23 UNK        -0.2404 
    126 C126       -0.3293  -16.0579  -51.1853 C.3       23 UNK        -0.0205 
    127 H127        8.3066  -12.1610  -51.6674 H         1 UNK         0.0600 
    128 H128        8.9436  -11.2630  -50.2873 H         1 UNK         0.0600 
    129 H129        7.9186  -10.4484  -51.4719 H         1 UNK         0.0600 
    130 H130        7.8731  -11.6801  -48.4312 H         1 UNK         0.3000 
    131 H131        6.4110  -11.9211  -46.8819 H         1 UNK         0.0600 
    132 H132        5.1562  -13.9433  -46.7456 H         1 UNK         0.0800 
    133 H133        6.6355  -14.2571  -47.5793 H         1 UNK         0.0800 
    134 H134        4.3029  -16.3390  -47.5343 H         1 UNK         0.0800 
    135 H135        3.0545  -15.1176  -47.4717 H         1 UNK         0.0800 
    136 H136        1.4372  -14.9152  -49.4660 H         1 UNK         0.1150 
    137 H137        0.5909  -18.6199  -51.4513 H         1 UNK         0.1150 
    138 H138        4.0530  -18.2712  -48.9447 H         1 UNK         0.1150 
    139 H139        2.1930  -20.4047  -51.4207 H         1 UNK         0.0800 
    140 H140        3.8119  -20.0326  -50.8921 H         1 UNK         0.0800 
    141 H141        0.3660  -21.3520  -50.0173 H         1 UNK         0.0800 
    142 H142        0.4089  -20.2925  -48.6287 H         1 UNK         0.0800 
    143 H143        0.8471  -23.3168  -48.4322 H         1 UNK         0.0600 
    144 H144        1.0547  -21.3223  -46.4450 H         1 UNK         0.3000 
    145 H145        0.1917  -23.4050  -43.6213 H         1 UNK         0.0600 
    146 H146        2.6098  -23.7127  -44.1188 H         1 UNK         0.0600 
    147 H147        2.7591  -22.0142  -44.5459 H         1 UNK         0.0600 
    148 H148        2.3676  -22.4780  -42.8922 H         1 UNK         0.0600 
    149 H149        0.8063  -20.6417  -43.7280 H         1 UNK         0.3000 
    150 H150       -2.5534  -19.4446  -44.2070 H         1 UNK         0.0600 
    151 H151       -1.8552  -18.1723  -42.1791 H         1 UNK         0.0600 
    152 H152       -0.5851  -19.3512  -41.8598 H         1 UNK         0.0600 
    153 H153       -2.2732  -19.8319  -41.7771 H         1 UNK         0.0600 
    154 H154       -0.1026  -18.0294  -43.9915 H         1 UNK         0.3000 
    155 H155        0.7954  -18.0812  -47.4537 H         1 UNK         0.0600 
    156 H156       -0.8719  -16.2490  -47.1264 H         1 UNK         0.0600 
    157 H157        0.7729  -15.6521  -47.0369 H         1 UNK         0.0600 
    158 H158       -0.1675  -15.8648  -45.5664 H         1 UNK         0.0600 
    159 H159        1.9875  -16.9741  -45.0770 H         1 UNK         0.3000 
    160 H160        4.0809  -19.8032  -44.3542 H         1 UNK         0.0600 
    161 H161        5.1801  -18.4771  -46.2221 H         1 UNK         0.0600 
    162 H162        5.8593  -18.1605  -44.6335 H         1 UNK         0.0600 
    163 H163        4.7618  -16.9947  -45.3644 H         1 UNK         0.0600 
    164 H164        3.8673  -17.2187  -43.1579 H         1 UNK         0.3000 
    165 H165        1.1945  -17.8543  -40.9403 H         1 UNK         0.0600 
    166 H166        2.8711  -17.2940  -39.1992 H         1 UNK         0.0600 
    167 H167        3.1024  -18.9451  -39.7507 H         1 UNK         0.0600 
    168 H168        4.1907  -17.6786  -40.3053 H         1 UNK         0.0600 
    169 H169        3.0061  -15.6719  -41.1718 H         1 UNK         0.3000 
    170 H170        2.1745  -13.6689  -42.0073 H         1 UNK         0.0600 
    171 H171        3.2701  -13.1561  -44.2226 H         1 UNK         0.0600 
    172 H172        3.9271  -14.6049  -43.4815 H         1 UNK         0.0600 
    173 H173        2.7914  -14.7459  -44.8156 H         1 UNK         0.0600 
    174 H174        0.7572  -13.2949  -44.4838 H         1 UNK         0.3000 
    175 H175       -2.3925  -12.7598  -43.3385 H         1 UNK         0.0600 
    176 H176       -0.5988  -10.2872  -43.0687 H         1 UNK         0.0600 
    177 H177       -2.3285  -10.2674  -43.4141 H         1 UNK         0.0600 
    178 H178       -1.7493  -10.8622  -41.8680 H         1 UNK         0.0600 
    179 H179       -0.6626  -11.3593  -45.2679 H         1 UNK         0.3000 
    180 H180       -0.9877  -13.7017  -47.8024 H         1 UNK         0.0600 
    181 H181       -2.1571  -11.9475  -49.1502 H         1 UNK         0.0600 
    182 H182       -2.7164  -11.1707  -47.6700 H         1 UNK         0.0600 
    183 H183       -3.2786  -12.7854  -48.0872 H         1 UNK         0.0600 
    184 H184       -0.2296  -10.9741  -47.9364 H         1 UNK         0.3000 
    185 H185        2.0764  -10.6176  -48.2697 H         1 UNK         0.0600 
    186 H186        2.4328  -10.5534  -45.2040 H         1 UNK         0.0600 
    187 H187        3.0030   -9.3124  -46.3176 H         1 UNK         0.0600 
    188 H188        1.2820   -9.5756  -46.1084 H         1 UNK         0.0600 
    189 H189        3.5018  -12.7543  -47.0388 H         1 UNK         0.3000 
    190 H190       -1.6945  -21.1059  -47.1492 H         1 UNK         0.3000 
    191 H191       -3.7911  -22.0608  -48.7750 H         1 UNK         0.0600 
    192 H192       -3.9241  -20.8168  -45.9763 H         1 UNK         0.0600 
    193 H193       -5.2690  -20.9492  -47.1040 H         1 UNK         0.0600 
    194 H194       -3.8932  -19.9275  -47.4956 H         1 UNK         0.0600 
    195 H195       -2.7218  -23.1683  -45.5370 H         1 UNK         0.3000 
    196 H196       -4.7115  -25.1597  -45.1704 H         1 UNK         0.0600 
    197 H197       -3.1351  -26.0321  -43.4362 H         1 UNK         0.0600 
    198 H198       -3.3283  -24.2896  -43.3163 H         1 UNK         0.0600 
    199 H199       -1.8706  -24.9662  -44.0371 H         1 UNK         0.0600 
    200 H200       -1.3858  -25.3940  -46.5445 H         1 UNK         0.3000 
    201 H201       -1.4275  -28.1707  -47.0995 H         1 UNK         0.0600 
    202 H202        0.6535  -26.8357  -47.0063 H         1 UNK         0.0600 
    203 H203        0.1616  -25.9069  -48.4208 H         1 UNK         0.0600 
    204 H204        0.5238  -27.6230  -48.5718 H         1 UNK         0.0600 
    205 H205       -2.4299  -25.3794  -49.0922 H         1 UNK         0.3000 
    206 H206       -3.1289  -26.9454  -51.4248 H         1 UNK         0.0600 
    207 H207       -4.0049  -24.7813  -52.2240 H         1 UNK         0.0600 
    208 H208       -3.8410  -24.0737  -50.6214 H         1 UNK         0.0600 
    209 H209       -2.4090  -24.5549  -51.5346 H         1 UNK         0.0600 
    210 H210       -4.6717  -26.6245  -48.4381 H         1 UNK         0.3000 
    211 H211       -6.6669  -26.9629  -47.5623 H         1 UNK         0.0600 
    212 H212       -7.3175  -28.5462  -50.1072 H         1 UNK         0.0600 
    213 H213       -8.1439  -28.6748  -48.5606 H         1 UNK         0.0600 
    214 H214       -6.4682  -29.1819  -48.6989 H         1 UNK         0.0600 
    215 H215       -6.3440  -24.5302  -48.6126 H         1 UNK         0.3000 
    216 H216       -7.2558  -22.6104  -49.0536 H         1 UNK         0.0600 
    217 H217       -9.6641  -22.2025  -48.7370 H         1 UNK         0.0600 
    218 H218       -9.0527  -23.2627  -47.4768 H         1 UNK         0.0600 
    219 H219      -10.0060  -23.9238  -48.8052 H         1 UNK         0.0600 
    220 H220       -8.5512  -25.1645  -51.0877 H         1 UNK         0.3000 
    221 H221       -9.8322  -23.7267  -53.0682 H         1 UNK         0.0600 
    222 H222       -8.3750  -26.4150  -53.2735 H         1 UNK         0.0600 
    223 H223      -10.0372  -26.1700  -52.7386 H         1 UNK         0.0600 
    224 H224       -9.5936  -25.8368  -54.4055 H         1 UNK         0.0600 
    225 H225       -6.3591  -24.2132  -52.8048 H         1 UNK         0.3000 
    226 H226       -5.9144  -22.5804  -55.2652 H         1 UNK         0.0600 
    227 H227       -5.5490  -24.9751  -55.8573 H         1 UNK         0.0600 
    228 H228       -4.0411  -24.0792  -55.8902 H         1 UNK         0.0600 
    229 H229       -4.3992  -25.1436  -54.5344 H         1 UNK         0.0600 
    230 H230       -6.0807  -21.7623  -52.5038 H         1 UNK         0.3000 
    231 H231       -3.5285  -21.5233  -51.2756 H         1 UNK         0.0600 
    232 H232       -6.1061  -19.8912  -50.9477 H         1 UNK         0.0600 
    233 H233       -5.6424  -21.3166  -50.0268 H         1 UNK         0.0600 
    234 H234       -4.7340  -19.8259  -49.8473 H         1 UNK         0.0600 
    235 H235       -4.9570  -19.6749  -53.8236 H         1 UNK         0.3000 
    236 H236       -4.3529  -18.0471  -55.1520 H         1 UNK         0.0600 
    237 H237       -1.5711  -18.0936  -53.8727 H         1 UNK         0.0600 
    238 H238       -2.0961  -19.0833  -55.2331 H         1 UNK         0.0600 
    239 H239       -2.0053  -17.3361  -55.3956 H         1 UNK         0.0600 
    240 H240       -3.4865  -17.3845  -51.7800 H         1 UNK         0.3000 
    241 H241       -4.6377  -14.6497  -52.0399 H         1 UNK         0.0600 
    242 H242       -6.4096  -16.9374  -49.4387 H         1 UNK         0.3800 
    243 H243       -5.6714  -17.4727  -50.9259 H         1 UNK         0.3800 
    244 H244       -2.2524  -14.3527  -51.8777 H         1 UNK         0.0800 
    245 H245       -2.9990  -13.8042  -50.4172 H         1 UNK         0.0800 
    246 H246       -0.0213  -15.1105  -51.6297 H         1 UNK         0.0800 
    247 H247       -0.7022  -16.6786  -52.0012 H         1 UNK         0.0800 
@<TRIPOS>BOND
     1    1    2 1    
     2    1  127 1    
     3    1  128 1    
     4    1  129 1    
     5    2    3 2    
     6    2    4 am   BACKBONE|DICT|INTERRES
     7    4    5 1    
     8    4  130 1    
     9    5    6 1    
    10    5   65 1    
    11    5  131 1    
    12    6    7 1    
    13    6  132 1    
    14    6  133 1    
    15    7    8 1    
    16    8    9 1    
    17    8  134 1    
    18    8  135 1    
    19    9   10 ar   
    20    9   14 ar   
    21   10   11 ar   
    22   10  136 1    
    23   11   12 ar   
    24   11  126 1    
    25   12   13 ar   
    26   12  137 1    
    27   13   14 ar   
    28   13   15 1    
    29   14  138 1    
    30   15   16 1    
    31   15  139 1    
    32   15  140 1    
    33   16   17 1    
    34   17   18 1    
    35   17  141 1    
    36   17  142 1    
    37   18   19 1    
    38   18   67 1    
    39   18  143 1    
    40   19   20 am   BACKBONE|DICT|INTERRES
    41   19  144 1    
    42   20   21 2    
    43   20   22 1    
    44   22   23 1    
    45   22   24 1    
    46   22  145 1    
    47   23  146 1    
    48   23  147 1    
    49   23  148 1    
    50   24   25 am   BACKBONE|DICT|INTERRES
    51   24  149 1    
    52   25   26 2    
    53   25   27 1    
    54   27   28 1    
    55   27   29 1    
    56   27  150 1    
    57   28  151 1    
    58   28  152 1    
    59   28  153 1    
    60   29   30 am   BACKBONE|DICT|INTERRES
    61   29  154 1    
    62   30   31 2    
    63   30   32 1    
    64   32   33 1    
    65   32   34 1    
    66   32  155 1    
    67   33  156 1    
    68   33  157 1    
    69   33  158 1    
    70   34   35 am   BACKBONE|DICT|INTERRES
    71   34  159 1    
    72   35   36 2    
    73   35   37 1    
    74   37   38 1    
    75   37   39 1    
    76   37  160 1    
    77   38  161 1    
    78   38  162 1    
    79   38  163 1    
    80   39   40 am   BACKBONE|DICT|INTERRES
    81   39  164 1    
    82   40   41 2    
    83   40   42 1    
    84   42   43 1    
    85   42   44 1    
    86   42  165 1    
    87   43  166 1    
    88   43  167 1    
    89   43  168 1    
    90   44   45 am   BACKBONE|DICT|INTERRES
    91   44  169 1    
    92   45   46 2    
    93   45   47 1    
    94   47   48 1    
    95   47   49 1    
    96   47  170 1    
    97   48  171 1    
    98   48  172 1    
    99   48  173 1    
   100   49   50 am   BACKBONE|DICT|INTERRES
   101   49  174 1    
   102   50   51 2    
   103   50   52 1    
   104   52   53 1    
   105   52   54 1    
   106   52  175 1    
   107   53  176 1    
   108   53  177 1    
   109   53  178 1    
   110   54   55 am   BACKBONE|DICT|INTERRES
   111   54  179 1    
   112   55   56 2    
   113   55   57 1    
   114   57   58 1    
   115   57   59 1    
   116   57  180 1    
   117   58  181 1    
   118   58  182 1    
   119   58  183 1    
   120   59   60 am   BACKBONE|DICT|INTERRES
   121   59  184 1    
   122   60   61 2    
   123   60   62 1    
   124   62   63 1    
   125   62   64 1    
   126   62  185 1    
   127   63  186 1    
   128   63  187 1    
   129   63  188 1    
   130   64   65 am   BACKBONE|DICT|INTERRES
   131   64  189 1    
   132   65   66 2    
   133   67   68 2    
   134   67   69 am   BACKBONE|DICT|INTERRES
   135   69   70 1    
   136   69  190 1    
   137   70   71 1    
   138   70   72 1    
   139   70  191 1    
   140   71  192 1    
   141   71  193 1    
   142   71  194 1    
   143   72   73 2    
   144   72   74 am   BACKBONE|DICT|INTERRES
   145   74   75 1    
   146   74  195 1    
   147   75   76 1    
   148   75   77 1    
   149   75  196 1    
   150   76  197 1    
   151   76  198 1    
   152   76  199 1    
   153   77   78 2    
   154   77   79 am   BACKBONE|DICT|INTERRES
   155   79   80 1    
   156   79  200 1    
   157   80   81 1    
   158   80   82 1    
   159   80  201 1    
   160   81  202 1    
   161   81  203 1    
   162   81  204 1    
   163   82   83 2    
   164   82   84 am   BACKBONE|DICT|INTERRES
   165   84   85 1    
   166   84  205 1    
   167   85   86 1    
   168   85   87 1    
   169   85  206 1    
   170   86  207 1    
   171   86  208 1    
   172   86  209 1    
   173   87   88 2    
   174   87   89 am   BACKBONE|DICT|INTERRES
   175   89   90 1    
   176   89  210 1    
   177   90   91 1    
   178   90   92 1    
   179   90  211 1    
   180   91  212 1    
   181   91  213 1    
   182   91  214 1    
   183   92   93 2    
   184   92   94 am   BACKBONE|DICT|INTERRES
   185   94   95 1    
   186   94  215 1    
   187   95   96 1    
   188   95   97 1    
   189   95  216 1    
   190   96  217 1    
   191   96  218 1    
   192   96  219 1    
   193   97   98 2    
   194   97   99 am   BACKBONE|DICT|INTERRES
   195   99  100 1    
   196   99  220 1    
   197  100  101 1    
   198  100  102 1    
   199  100  221 1    
   200  101  222 1    
   201  101  223 1    
   202  101  224 1    
   203  102  103 2    
   204  102  104 am   BACKBONE|DICT|INTERRES
   205  104  105 1    
   206  104  225 1    
   207  105  106 1    
   208  105  107 1    
   209  105  226 1    
   210  106  227 1    
   211  106  228 1    
   212  106  229 1    
   213  107  108 2    
   214  107  109 am   BACKBONE|DICT|INTERRES
   215  109  110 1    
   216  109  230 1    
   217  110  111 1    
   218  110  112 1    
   219  110  231 1    
   220  111  232 1    
   221  111  233 1    
   222  111  234 1    
   223  112  113 2    
   224  112  114 am   BACKBONE|DICT|INTERRES
   225  114  115 1    
   226  114  235 1    
   227  115  116 1    
   228  115  117 1    
   229  115  236 1    
   230  116  237 1    
   231  116  238 1    
   232  116  239 1    
   233  117  118 2    
   234  117  119 am   BACKBONE|DICT|INTERRES
   235  119  120 1    
   236  119  240 1    
   237  120  121 1    
   238  120  124 1    
   239  120  241 1    
   240  121  122 am   BACKBONE|DICT|INTERRES
   241  121  123 2    
   242  122  242 1    
   243  122  243 1    
   244  124  125 1    
   245  124  244 1    
   246  124  245 1    
   247  125  126 1    
   248  126  246 1    
   249  126  247 1    
@<TRIPOS>SUBSTRUCTURE
     1 UNK         1 GROUP             0       ****    0 ROOT    
