@<TRIPOS>MOLECULE
3R540
247   249    1
SMALL
USER_CHARGES


@<TRIPOS>ATOM
      1 CA         -2.8239   -8.3567  -48.9903 C.3       0 UNK        -0.1800 
      2 C          -1.4936   -8.7943  -48.3934 C.2       0 UNK         0.5000 
      3 O          -0.7120   -7.9506  -47.9532 O.2       0 UNK        -0.5000 
      4 N          -1.2318  -10.1065  -48.3850 N.am      1 UNK        -0.5000 
      5 CA         -0.0325  -10.7208  -47.8071 C.3       1 UNK         0.1400 
      6 C6          0.1487  -12.1856  -48.2711 C.3       23 UNK        -0.0398 
      7 S7          0.4107  -12.3159  -50.0725 S.3       23 UNK        -0.2404 
      8 C8         -1.1331  -13.1079  -50.6281 C.3       23 UNK        -0.0205 
      9 C9         -1.1000  -14.6178  -50.4386 C.ar      23 UNK        -0.0193 
     10 C10        -0.4667  -15.4245  -51.3890 C.ar      23 UNK        -0.1150 
     11 C11        -0.4401  -16.8142  -51.2398 C.ar      23 UNK        -0.0193 
     12 C12        -1.0594  -17.3962  -50.1310 C.ar      23 UNK        -0.1150 
     13 C13        -1.6965  -16.6019  -49.1726 C.ar      23 UNK        -0.0193 
     14 C14        -1.7159  -15.2128  -49.3329 C.ar      23 UNK        -0.1150 
     15 C15        -2.3797  -17.2530  -47.9804 C.3       23 UNK        -0.0205 
     16 S16        -1.1929  -18.1532  -46.9410 S.3       23 UNK        -0.2404 
     17 C17        -2.3162  -19.1449  -45.9021 C.3       23 UNK        -0.0398 
     18 CA         -2.5249  -20.5737  -46.4660 C.3       11 UNK         0.1400 
     19 N          -1.2594  -21.2677  -46.6779 N.am      11 UNK        -0.5000 
     20 C          -0.9965  -22.0881  -47.6995 C.2       10 UNK         0.5000 
     21 O          -1.8129  -22.3815  -48.5715 O.2       10 UNK        -0.5000 
     22 CA          0.4190  -22.6971  -47.7366 C.3       10 UNK         0.1400 
     23 CB          1.3705  -21.7691  -48.5066 C.3       10 UNK        -0.1800 
     24 N           0.9682  -22.9572  -46.4041 N.am      10 UNK        -0.5000 
     25 C           0.4080  -23.7538  -45.4818 C.2       9 UNK         0.5000 
     26 O          -0.6164  -24.4106  -45.6732 O.2       9 UNK        -0.5000 
     27 CA          1.0602  -23.7594  -44.0868 C.3       9 UNK         0.1400 
     28 CB          2.1092  -24.8758  -43.9886 C.3       9 UNK        -0.1800 
     29 N           1.6720  -22.4770  -43.7162 N.am      9 UNK        -0.5000 
     30 C           1.0065  -21.3195  -43.6027 C.2       8 UNK         0.5000 
     31 O          -0.1941  -21.1943  -43.8546 O.2       8 UNK        -0.5000 
     32 CA          1.8185  -20.0834  -43.1906 C.3       8 UNK         0.1400 
     33 CB          2.1066  -19.2069  -44.4178 C.3       8 UNK        -0.1800 
     34 N           1.0811  -19.3009  -42.2013 N.am      8 UNK        -0.5000 
     35 C           0.9594  -19.6422  -40.9105 C.2       7 UNK         0.5000 
     36 O           1.5173  -20.6263  -40.4205 O.2       7 UNK        -0.5000 
     37 CA          0.0588  -18.7544  -40.0206 C.3       7 UNK         0.1400 
     38 CB          0.5031  -18.7453  -38.5425 C.3       7 UNK        -0.1800 
     39 N          -0.1159  -17.3859  -40.5212 N.am      7 UNK        -0.5000 
     40 C           0.8297  -16.4507  -40.6931 C.2       6 UNK         0.5000 
     41 O           2.0194  -16.6009  -40.4088 O.2       6 UNK        -0.5000 
     42 CA          0.3529  -15.1313  -41.3332 C.3       6 UNK         0.1400 
     43 CB          0.9275  -13.9120  -40.5942 C.3       6 UNK        -0.1800 
     44 N           0.6957  -15.0334  -42.7538 N.am      6 UNK        -0.5000 
     45 C           0.3672  -15.9143  -43.7107 C.2       5 UNK         0.5000 
     46 O          -0.2621  -16.9519  -43.4996 O.2       5 UNK        -0.5000 
     47 CA          0.7953  -15.5866  -45.1492 C.3       5 UNK         0.1400 
     48 CB         -0.3222  -14.8205  -45.8690 C.3       5 UNK        -0.1800 
     49 N           2.0239  -14.7941  -45.2070 N.am      5 UNK        -0.5000 
     50 C           3.2007  -15.2404  -45.6685 C.2       4 UNK         0.5000 
     51 O           3.3852  -16.3836  -46.0861 O.2       4 UNK        -0.5000 
     52 CA          4.3789  -14.2442  -45.6893 C.3       4 UNK         0.1400 
     53 CB          4.5289  -13.6290  -47.0898 C.3       4 UNK        -0.1800 
     54 N           4.2499  -13.1621  -44.7138 N.am      4 UNK        -0.5000 
     55 C           4.3355  -13.3100  -43.3851 C.2       3 UNK         0.5000 
     56 O           4.6187  -14.3729  -42.8331 O.2       3 UNK        -0.5000 
     57 CA          4.0290  -12.0664  -42.5249 C.3       3 UNK         0.1400 
     58 CB          5.3350  -11.3881  -42.0839 C.3       3 UNK        -0.1800 
     59 N           3.1676  -11.0628  -43.1642 N.am      3 UNK        -0.5000 
     60 C           1.9354  -11.2657  -43.6536 C.2       2 UNK         0.5000 
     61 O           1.4008  -12.3751  -43.6981 O.2       2 UNK        -0.5000 
     62 CA          1.1847  -10.0432  -44.2143 C.3       2 UNK         0.1400 
     63 CB          1.8791   -8.6949  -43.9329 C.3       2 UNK        -0.1800 
     64 N           1.0231  -10.1937  -45.6591 N.am      2 UNK        -0.5000 
     65 C          -0.0823  -10.6399  -46.2671 C.2       1 UNK         0.5000 
     66 O          -1.1090  -10.9808  -45.6746 O.2       1 UNK        -0.5000 
     67 C          -3.4246  -21.4026  -45.5340 C.2       11 UNK         0.5000 
     68 O          -4.5926  -21.6260  -45.8516 O.2       11 UNK        -0.5000 
     69 N          -2.8633  -21.8294  -44.3950 N.am      12 UNK        -0.5000 
     70 CA         -3.5894  -22.4420  -43.2864 C.3       12 UNK         0.1400 
     71 CB         -2.7285  -22.3469  -42.0163 C.3       12 UNK        -0.1800 
     72 C          -4.0126  -23.8980  -43.5380 C.2       12 UNK         0.5000 
     73 O          -5.1109  -24.2758  -43.1275 O.2       12 UNK        -0.5000 
     74 N          -3.1403  -24.6918  -44.1730 N.am      13 UNK        -0.5000 
     75 CA         -3.3435  -26.1275  -44.3731 C.3       13 UNK         0.1400 
     76 CB         -2.1070  -26.8980  -43.8794 C.3       13 UNK        -0.1800 
     77 C          -3.6409  -26.4513  -45.8424 C.2       13 UNK         0.5000 
     78 O          -4.5889  -27.1878  -46.1177 O.2       13 UNK        -0.5000 
     79 N          -2.8358  -25.9002  -46.7610 N.am      14 UNK        -0.5000 
     80 CA         -2.9369  -26.1730  -48.1976 C.3       14 UNK         0.1400 
     81 CB         -1.5669  -25.9652  -48.8517 C.3       14 UNK        -0.1800 
     82 C          -4.0332  -25.3573  -48.9132 C.2       14 UNK         0.5000 
     83 O          -4.3534  -25.6828  -50.0539 O.2       14 UNK        -0.5000 
     84 N          -4.6090  -24.3576  -48.2292 N.am      15 UNK        -0.5000 
     85 CA         -5.7885  -23.5747  -48.6189 C.3       15 UNK         0.1400 
     86 CB         -7.0202  -24.4814  -48.8321 C.3       15 UNK        -0.1800 
     87 C          -5.5688  -22.5628  -49.7655 C.2       15 UNK         0.5000 
     88 O          -6.5215  -22.2333  -50.4759 O.2       15 UNK        -0.5000 
     89 N          -4.3475  -22.0187  -49.8677 N.am      16 UNK        -0.5000 
     90 CA         -3.9764  -20.8346  -50.6516 C.3       16 UNK         0.1400 
     91 CB         -4.6808  -19.5886  -50.0669 C.3       16 UNK        -0.1800 
     92 C          -4.1956  -20.9740  -52.1752 C.2       16 UNK         0.5000 
     93 O          -4.2326  -22.0858  -52.7087 O.2       16 UNK        -0.5000 
     94 N          -4.3166  -19.8271  -52.8593 N.am      17 UNK        -0.5000 
     95 CA         -4.4905  -19.6963  -54.3080 C.3       17 UNK         0.1400 
     96 CB         -4.4843  -18.2062  -54.6813 C.3       17 UNK        -0.1800 
     97 C          -5.7618  -20.3733  -54.8516 C.2       17 UNK         0.5000 
     98 O          -5.7610  -20.8149  -56.0001 O.2       17 UNK        -0.5000 
     99 N          -6.7988  -20.4931  -54.0102 N.am      18 UNK        -0.5000 
    100 CA        -8.0477  -21.2010  -54.3057 C.3       18 UNK         0.1400 
    101 CB        -9.0372  -20.9685  -53.1540 C.3       18 UNK        -0.1800 
    102 C         -7.8517  -22.7111  -54.5521 C.2       18 UNK         0.5000 
    103 O         -8.6192  -23.3059  -55.3094 O.2       18 UNK        -0.5000 
    104 N         -6.8157  -23.2890  -53.9323 N.am      19 UNK        -0.5000 
    105 CA        -6.3833  -24.6751  -54.1051 C.3       19 UNK         0.1400 
    106 CB        -6.2031  -25.2839  -52.7094 C.3       19 UNK        -0.1800 
    107 C         -5.0790  -24.7728  -54.9244 C.2       19 UNK         0.5000 
    108 O         -4.5203  -25.8644  -55.0397 O.2       19 UNK        -0.5000 
    109 N         -4.6125  -23.6375  -55.4682 N.am      20 UNK        -0.5000 
    110 CA        -3.3728  -23.4423  -56.2270 C.3       20 UNK         0.1400 
    111 CB        -3.4161  -24.2159  -57.5610 C.3       20 UNK        -0.1800 
    112 C         -2.0881  -23.7200  -55.4145 C.2       20 UNK         0.5000 
    113 O         -1.0477  -24.0248  -56.0022 O.2       20 UNK        -0.5000 
    114 N         -2.1549  -23.5700  -54.0820 N.am      21 UNK        -0.5000 
    115 CA        -1.0387  -23.8038  -53.1574 C.3       21 UNK         0.1400 
    116 CB        -1.5570  -23.7877  -51.7141 C.3       21 UNK        -0.1800 
    117 C          0.1184  -22.7992  -53.3171 C.2       21 UNK         0.5000 
    118 O          1.2444  -23.1020  -52.9210 O.2       21 UNK        -0.5000 
    119 N         -0.1755  -21.6375  -53.9131 N.am      22 UNK        -0.5000 
    120 CA         0.8047  -20.6175  -54.3115 C.3       22 UNK         0.1400 
    121 C          1.7150  -21.0350  -55.5069 C.2       22 UNK         0.5000 
    122 N          1.4234  -22.1088  -56.2345 N.am      22 UNK        -0.7600 
    123 O          2.7104  -20.3693  -55.7783 O.2       22 UNK        -0.5000 
    124 C124        0.1293  -19.2529  -54.6041 C.3       23 UNK        -0.0398 
    125 S125       -0.9296  -18.6490  -53.2459 S.3       23 UNK        -0.2404 
    126 C126        0.2632  -17.6847  -52.2695 C.3       23 UNK        -0.0205 
    127 H127       -3.4054   -9.2053  -49.3515 H         1 UNK         0.0600 
    128 H128       -2.6549   -7.6797  -49.8277 H         1 UNK         0.0600 
    129 H129       -3.4169   -7.8326  -48.2408 H         1 UNK         0.0600 
    130 H130       -1.9242  -10.7489  -48.7392 H         1 UNK         0.3000 
    131 H131        0.8325  -10.1502  -48.1533 H         1 UNK         0.0600 
    132 H132        1.0135  -12.6387  -47.7829 H         1 UNK         0.0800 
    133 H133       -0.7159  -12.7817  -47.9794 H         1 UNK         0.0800 
    134 H134       -1.2770  -12.8828  -51.6860 H         1 UNK         0.0800 
    135 H135       -1.9879  -12.6706  -50.1107 H         1 UNK         0.0800 
    136 H136        0.0083  -14.9659  -52.2450 H         1 UNK         0.1150 
    137 H137       -1.0442  -18.4708  -50.0124 H         1 UNK         0.1150 
    138 H138       -2.2150  -14.5955  -48.5996 H         1 UNK         0.1150 
    139 H139       -3.1389  -17.9421  -48.3434 H         1 UNK         0.0800 
    140 H140       -2.8979  -16.5110  -47.3712 H         1 UNK         0.0800 
    141 H141       -1.8816  -19.1806  -44.9010 H         1 UNK         0.0800 
    142 H142       -3.2703  -18.6249  -45.8001 H         1 UNK         0.0800 
    143 H143       -3.0449  -20.4759  -47.4207 H         1 UNK         0.0600 
    144 H144       -0.5504  -21.1206  -45.9719 H         1 UNK         0.3000 
    145 H145        0.3758  -23.6474  -48.2670 H         1 UNK         0.0600 
    146 H146        1.0007  -21.5838  -49.5164 H         1 UNK         0.0600 
    147 H147        2.3627  -22.2105  -48.6018 H         1 UNK         0.0600 
    148 H148        1.4771  -20.8017  -48.0135 H         1 UNK         0.0600 
    149 H149        1.8064  -22.4548  -46.1529 H         1 UNK         0.3000 
    150 H150        0.2710  -23.9700  -43.3621 H         1 UNK         0.0600 
    151 H151        2.9438  -24.7062  -44.6700 H         1 UNK         0.0600 
    152 H152        1.6728  -25.8442  -44.2377 H         1 UNK         0.0600 
    153 H153        2.5100  -24.9528  -42.9777 H         1 UNK         0.0600 
    154 H154        2.6584  -22.4975  -43.5001 H         1 UNK         0.3000 
    155 H155        2.7698  -20.3980  -42.7565 H         1 UNK         0.0600 
    156 H156        2.6534  -18.3059  -44.1390 H         1 UNK         0.0600 
    157 H157        1.1874  -18.8994  -44.9180 H         1 UNK         0.0600 
    158 H158        2.7129  -19.7419  -45.1495 H         1 UNK         0.0600 
    159 H159        0.5580  -18.5043  -42.5518 H         1 UNK         0.3000 
    160 H160       -0.9304  -19.2128  -40.0588 H         1 UNK         0.0600 
    161 H161        1.5205  -18.3707  -38.4273 H         1 UNK         0.0600 
    162 H162        0.4760  -19.7497  -38.1184 H         1 UNK         0.0600 
    163 H163       -0.1549  -18.1226  -37.9365 H         1 UNK         0.0600 
    164 H164       -1.0479  -17.1697  -40.8473 H         1 UNK         0.3000 
    165 H165       -0.7351  -15.0805  -41.2577 H         1 UNK         0.0600 
    166 H166        0.5527  -12.9788  -41.0149 H         1 UNK         0.0600 
    167 H167        0.6489  -13.9291  -39.5399 H         1 UNK         0.0600 
    168 H168        2.0160  -13.8913  -40.6441 H         1 UNK         0.0600 
    169 H169        1.1577  -14.1759  -43.0358 H         1 UNK         0.3000 
    170 H170        0.9322  -16.5388  -45.6638 H         1 UNK         0.0600 
    171 H171       -0.1172  -14.7742  -46.9371 H         1 UNK         0.0600 
    172 H172       -0.4270  -13.8028  -45.4913 H         1 UNK         0.0600 
    173 H173       -1.2858  -15.3164  -45.7476 H         1 UNK         0.0600 
    174 H174        1.9638  -13.8489  -44.8431 H         1 UNK         0.3000 
    175 H175        5.2883  -14.8039  -45.4606 H         1 UNK         0.0600 
    176 H176        4.6572  -14.4050  -47.8456 H         1 UNK         0.0600 
    177 H177        3.6524  -13.0426  -47.3684 H         1 UNK         0.0600 
    178 H178        5.4013  -12.9777  -47.1441 H         1 UNK         0.0600 
    179 H179        4.0274  -12.2473  -45.0762 H         1 UNK         0.3000 
    180 H180        3.5114  -12.4134  -41.6300 H         1 UNK         0.0600 
    181 H181        5.8842  -10.9828  -42.9346 H         1 UNK         0.0600 
    182 H182        5.9920  -12.0955  -41.5758 H         1 UNK         0.0600 
    183 H183        5.1413  -10.5716  -41.3880 H         1 UNK         0.0600 
    184 H184        3.5317  -10.1212  -43.1845 H         1 UNK         0.3000 
    185 H185        0.2098  -10.0202  -43.7229 H         1 UNK         0.0600 
    186 H186        2.0183   -8.5362  -42.8626 H         1 UNK         0.0600 
    187 H187        2.8542   -8.6223  -44.4165 H         1 UNK         0.0600 
    188 H188        1.2721   -7.8663  -44.2988 H         1 UNK         0.0600 
    189 H189        1.8234   -9.9446  -46.2225 H         1 UNK         0.3000 
    190 H190       -1.8849  -21.6068  -44.2172 H         1 UNK         0.3000 
    191 H191       -4.4984  -21.8604  -43.1174 H         1 UNK         0.0600 
    192 H192       -2.4848  -21.3104  -41.7817 H         1 UNK         0.0600 
    193 H193       -3.2535  -22.7612  -41.1547 H         1 UNK         0.0600 
    194 H194       -1.7904  -22.8927  -42.1240 H         1 UNK         0.0600 
    195 H195       -2.2742  -24.3036  -44.5290 H         1 UNK         0.3000 
    196 H196       -4.1941  -26.4801  -43.7859 H         1 UNK         0.0600 
    197 H197       -2.2537  -27.9737  -43.9830 H         1 UNK         0.0600 
    198 H198       -1.9150  -26.6969  -42.8254 H         1 UNK         0.0600 
    199 H199       -1.2077  -26.6378  -44.4372 H         1 UNK         0.0600 
    200 H200       -2.0561  -25.3241  -46.4534 H         1 UNK         0.3000 
    201 H201       -3.1950  -27.2264  -48.3266 H         1 UNK         0.0600 
    202 H202       -1.5709  -26.3182  -49.8834 H         1 UNK         0.0600 
    203 H203       -0.7821  -26.5064  -48.3230 H         1 UNK         0.0600 
    204 H204       -1.3025  -24.9131  -48.8689 H         1 UNK         0.0600 
    205 H205       -4.2434  -24.1609  -47.3087 H         1 UNK         0.3000 
    206 H206       -6.0129  -22.9570  -47.7489 H         1 UNK         0.0600 
    207 H207       -7.1751  -25.1422  -47.9792 H         1 UNK         0.0600 
    208 H208       -7.9284  -23.8893  -48.9498 H         1 UNK         0.0600 
    209 H209       -6.9197  -25.1011  -49.7225 H         1 UNK         0.0600 
    210 H210       -3.5989  -22.3912  -49.2894 H         1 UNK         0.3000 
    211 H211       -2.9027  -20.7064  -50.5084 H         1 UNK         0.0600 
    212 H212       -5.7345  -19.5514  -50.3469 H         1 UNK         0.0600 
    213 H213       -4.2125  -18.6657  -50.4105 H         1 UNK         0.0600 
    214 H214       -4.6384  -19.5854  -48.9785 H         1 UNK         0.0600 
    215 H215       -4.2587  -18.9601  -52.3456 H         1 UNK         0.3000 
    216 H216       -3.6333  -20.1743  -54.7861 H         1 UNK         0.0600 
    217 H217       -4.5775  -18.0732  -55.7600 H         1 UNK         0.0600 
    218 H218       -5.3104  -17.6707  -54.2119 H         1 UNK         0.0600 
    219 H219       -3.5565  -17.7224  -54.3770 H         1 UNK         0.0600 
    220 H220       -6.7015  -20.1212  -53.0768 H         1 UNK         0.3000 
    221 H221       -8.4703  -20.7703  -55.2157 H         1 UNK         0.0600 
    222 H222       -8.6536  -21.3593  -52.2104 H         1 UNK         0.0600 
    223 H223       -9.2447  -19.9069  -53.0191 H         1 UNK         0.0600 
    224 H224       -9.9895  -21.4626  -53.3511 H         1 UNK         0.0600 
    225 H225       -6.2328  -22.7242  -53.3238 H         1 UNK         0.3000 
    226 H226       -7.1411  -25.2537  -54.6367 H         1 UNK         0.0600 
    227 H227       -5.8693  -26.3208  -52.7599 H         1 UNK         0.0600 
    228 H228       -5.4634  -24.7231  -52.1383 H         1 UNK         0.0600 
    229 H229       -7.1387  -25.2693  -52.1508 H         1 UNK         0.0600 
    230 H230       -5.1692  -22.8022  -55.3401 H         1 UNK         0.3000 
    231 H231       -3.3408  -22.3798  -56.4712 H         1 UNK         0.0600 
    232 H232       -3.3730  -25.2943  -57.4066 H         1 UNK         0.0600 
    233 H233       -2.5742  -23.9446  -58.1990 H         1 UNK         0.0600 
    234 H234       -4.3265  -23.9918  -58.1169 H         1 UNK         0.0600 
    235 H235       -3.0288  -23.2617  -53.6636 H         1 UNK         0.3000 
    236 H236       -0.6404  -24.7992  -53.3641 H         1 UNK         0.0600 
    237 H237       -1.9036  -22.7979  -51.4218 H         1 UNK         0.0600 
    238 H238       -2.3814  -24.4873  -51.5784 H         1 UNK         0.0600 
    239 H239       -0.7656  -24.0678  -51.0190 H         1 UNK         0.0600 
    240 H240       -1.1317  -21.4688  -54.1837 H         1 UNK         0.3000 
    241 H241        1.4758  -20.4717  -53.4630 H         1 UNK         0.0600 
    242 H242        0.6133  -22.6813  -56.0307 H         1 UNK         0.3800 
    243 H243        2.0274  -22.3618  -57.0005 H         1 UNK         0.3800 
    244 H244       -0.4958  -19.3302  -55.4953 H         1 UNK         0.0800 
    245 H245        0.8788  -18.4932  -54.8328 H         1 UNK         0.0800 
    246 H246        0.9517  -18.3644  -51.7653 H         1 UNK         0.0800 
    247 H247        0.8673  -17.0663  -52.9350 H         1 UNK         0.0800 
@<TRIPOS>BOND
     1    1    2 1    
     2    1  127 1    
     3    1  128 1    
     4    1  129 1    
     5    2    3 2    
     6    2    4 am   BACKBONE|DICT|INTERRES
     7    4    5 1    
     8    4  130 1    
     9    5    6 1    
    10    5   65 1    
    11    5  131 1    
    12    6    7 1    
    13    6  132 1    
    14    6  133 1    
    15    7    8 1    
    16    8    9 1    
    17    8  134 1    
    18    8  135 1    
    19    9   10 ar   
    20    9   14 ar   
    21   10   11 ar   
    22   10  136 1    
    23   11   12 ar   
    24   11  126 1    
    25   12   13 ar   
    26   12  137 1    
    27   13   14 ar   
    28   13   15 1    
    29   14  138 1    
    30   15   16 1    
    31   15  139 1    
    32   15  140 1    
    33   16   17 1    
    34   17   18 1    
    35   17  141 1    
    36   17  142 1    
    37   18   19 1    
    38   18   67 1    
    39   18  143 1    
    40   19   20 am   BACKBONE|DICT|INTERRES
    41   19  144 1    
    42   20   21 2    
    43   20   22 1    
    44   22   23 1    
    45   22   24 1    
    46   22  145 1    
    47   23  146 1    
    48   23  147 1    
    49   23  148 1    
    50   24   25 am   BACKBONE|DICT|INTERRES
    51   24  149 1    
    52   25   26 2    
    53   25   27 1    
    54   27   28 1    
    55   27   29 1    
    56   27  150 1    
    57   28  151 1    
    58   28  152 1    
    59   28  153 1    
    60   29   30 am   BACKBONE|DICT|INTERRES
    61   29  154 1    
    62   30   31 2    
    63   30   32 1    
    64   32   33 1    
    65   32   34 1    
    66   32  155 1    
    67   33  156 1    
    68   33  157 1    
    69   33  158 1    
    70   34   35 am   BACKBONE|DICT|INTERRES
    71   34  159 1    
    72   35   36 2    
    73   35   37 1    
    74   37   38 1    
    75   37   39 1    
    76   37  160 1    
    77   38  161 1    
    78   38  162 1    
    79   38  163 1    
    80   39   40 am   BACKBONE|DICT|INTERRES
    81   39  164 1    
    82   40   41 2    
    83   40   42 1    
    84   42   43 1    
    85   42   44 1    
    86   42  165 1    
    87   43  166 1    
    88   43  167 1    
    89   43  168 1    
    90   44   45 am   BACKBONE|DICT|INTERRES
    91   44  169 1    
    92   45   46 2    
    93   45   47 1    
    94   47   48 1    
    95   47   49 1    
    96   47  170 1    
    97   48  171 1    
    98   48  172 1    
    99   48  173 1    
   100   49   50 am   BACKBONE|DICT|INTERRES
   101   49  174 1    
   102   50   51 2    
   103   50   52 1    
   104   52   53 1    
   105   52   54 1    
   106   52  175 1    
   107   53  176 1    
   108   53  177 1    
   109   53  178 1    
   110   54   55 am   BACKBONE|DICT|INTERRES
   111   54  179 1    
   112   55   56 2    
   113   55   57 1    
   114   57   58 1    
   115   57   59 1    
   116   57  180 1    
   117   58  181 1    
   118   58  182 1    
   119   58  183 1    
   120   59   60 am   BACKBONE|DICT|INTERRES
   121   59  184 1    
   122   60   61 2    
   123   60   62 1    
   124   62   63 1    
   125   62   64 1    
   126   62  185 1    
   127   63  186 1    
   128   63  187 1    
   129   63  188 1    
   130   64   65 am   BACKBONE|DICT|INTERRES
   131   64  189 1    
   132   65   66 2    
   133   67   68 2    
   134   67   69 am   BACKBONE|DICT|INTERRES
   135   69   70 1    
   136   69  190 1    
   137   70   71 1    
   138   70   72 1    
   139   70  191 1    
   140   71  192 1    
   141   71  193 1    
   142   71  194 1    
   143   72   73 2    
   144   72   74 am   BACKBONE|DICT|INTERRES
   145   74   75 1    
   146   74  195 1    
   147   75   76 1    
   148   75   77 1    
   149   75  196 1    
   150   76  197 1    
   151   76  198 1    
   152   76  199 1    
   153   77   78 2    
   154   77   79 am   BACKBONE|DICT|INTERRES
   155   79   80 1    
   156   79  200 1    
   157   80   81 1    
   158   80   82 1    
   159   80  201 1    
   160   81  202 1    
   161   81  203 1    
   162   81  204 1    
   163   82   83 2    
   164   82   84 am   BACKBONE|DICT|INTERRES
   165   84   85 1    
   166   84  205 1    
   167   85   86 1    
   168   85   87 1    
   169   85  206 1    
   170   86  207 1    
   171   86  208 1    
   172   86  209 1    
   173   87   88 2    
   174   87   89 am   BACKBONE|DICT|INTERRES
   175   89   90 1    
   176   89  210 1    
   177   90   91 1    
   178   90   92 1    
   179   90  211 1    
   180   91  212 1    
   181   91  213 1    
   182   91  214 1    
   183   92   93 2    
   184   92   94 am   BACKBONE|DICT|INTERRES
   185   94   95 1    
   186   94  215 1    
   187   95   96 1    
   188   95   97 1    
   189   95  216 1    
   190   96  217 1    
   191   96  218 1    
   192   96  219 1    
   193   97   98 2    
   194   97   99 am   BACKBONE|DICT|INTERRES
   195   99  100 1    
   196   99  220 1    
   197  100  101 1    
   198  100  102 1    
   199  100  221 1    
   200  101  222 1    
   201  101  223 1    
   202  101  224 1    
   203  102  103 2    
   204  102  104 am   BACKBONE|DICT|INTERRES
   205  104  105 1    
   206  104  225 1    
   207  105  106 1    
   208  105  107 1    
   209  105  226 1    
   210  106  227 1    
   211  106  228 1    
   212  106  229 1    
   213  107  108 2    
   214  107  109 am   BACKBONE|DICT|INTERRES
   215  109  110 1    
   216  109  230 1    
   217  110  111 1    
   218  110  112 1    
   219  110  231 1    
   220  111  232 1    
   221  111  233 1    
   222  111  234 1    
   223  112  113 2    
   224  112  114 am   BACKBONE|DICT|INTERRES
   225  114  115 1    
   226  114  235 1    
   227  115  116 1    
   228  115  117 1    
   229  115  236 1    
   230  116  237 1    
   231  116  238 1    
   232  116  239 1    
   233  117  118 2    
   234  117  119 am   BACKBONE|DICT|INTERRES
   235  119  120 1    
   236  119  240 1    
   237  120  121 1    
   238  120  124 1    
   239  120  241 1    
   240  121  122 am   BACKBONE|DICT|INTERRES
   241  121  123 2    
   242  122  242 1    
   243  122  243 1    
   244  124  125 1    
   245  124  244 1    
   246  124  245 1    
   247  125  126 1    
   248  126  246 1    
   249  126  247 1    
@<TRIPOS>SUBSTRUCTURE
     1 UNK         1 GROUP             0       ****    0 ROOT    
