@<TRIPOS>MOLECULE
3R540
247   249    1
SMALL
USER_CHARGES


@<TRIPOS>ATOM
      1 CA          7.7141  -10.3270  -46.4305 C.3       0 UNK        -0.1800 
      2 C           6.4145  -11.1196  -46.4061 C.2       0 UNK         0.5000 
      3 O           5.5123  -10.7925  -45.6346 O.2       0 UNK        -0.5000 
      4 N           6.3197  -12.1632  -47.2393 N.am      1 UNK        -0.5000 
      5 CA          5.1247  -12.9943  -47.4053 C.3       1 UNK         0.1400 
      6 C6          5.4686  -14.3251  -48.1168 C.3       23 UNK        -0.0398 
      7 S7          4.1456  -15.5784  -47.9864 S.3       23 UNK        -0.2404 
      8 C8          3.7263  -15.7938  -49.7405 C.3       23 UNK        -0.0205 
      9 C9          2.6288  -16.8269  -49.9322 C.ar      23 UNK        -0.0193 
     10 C10         1.3009  -16.4210  -50.0806 C.ar      23 UNK        -0.1150 
     11 C11         0.2917  -17.3629  -50.2972 C.ar      23 UNK        -0.0193 
     12 C12         0.6178  -18.7211  -50.3668 C.ar      23 UNK        -0.1150 
     13 C13         1.9444  -19.1397  -50.2192 C.ar      23 UNK        -0.0193 
     14 C14         2.9438  -18.1874  -49.9958 C.ar      23 UNK        -0.1150 
     15 C15         2.3111  -20.6123  -50.3433 C.3       23 UNK        -0.0205 
     16 S16         2.2694  -21.4740  -48.7403 S.3       23 UNK        -0.2404 
     17 C17         0.4777  -21.7057  -48.5172 C.3       23 UNK        -0.0398 
     18 CA          0.1381  -22.7729  -47.4499 C.3       11 UNK         0.1400 
     19 N           0.5296  -22.3828  -46.0919 N.am      11 UNK        -0.5000 
     20 C           0.5067  -23.2085  -45.0348 C.2       10 UNK         0.5000 
     21 O           0.2741  -24.4143  -45.1188 O.2       10 UNK        -0.5000 
     22 CA          0.7222  -22.5811  -43.6443 C.3       10 UNK         0.1400 
     23 CB          2.2165  -22.4873  -43.3025 C.3       10 UNK        -0.1800 
     24 N           0.0955  -21.2637  -43.5176 N.am      10 UNK        -0.5000 
     25 C          -1.2271  -21.0462  -43.5611 C.2       9 UNK         0.5000 
     26 O          -2.0606  -21.9486  -43.6432 O.2       9 UNK        -0.5000 
     27 CA         -1.6960  -19.5772  -43.5682 C.3       9 UNK         0.1400 
     28 CB         -1.7674  -19.0113  -42.1427 C.3       9 UNK        -0.1800 
     29 N          -0.8468  -18.7231  -44.4006 N.am      9 UNK        -0.5000 
     30 C          -0.7314  -18.8451  -45.7308 C.2       8 UNK         0.5000 
     31 O          -1.3921  -19.6357  -46.4024 O.2       8 UNK        -0.5000 
     32 CA          0.3359  -17.9842  -46.4244 C.3       8 UNK         0.1400 
     33 CB         -0.2339  -16.6140  -46.8030 C.3       8 UNK        -0.1800 
     34 N           1.5385  -17.8233  -45.6064 N.am      8 UNK        -0.5000 
     35 C           2.3893  -18.8231  -45.3339 C.2       7 UNK         0.5000 
     36 O           2.2525  -19.9658  -45.7659 O.2       7 UNK        -0.5000 
     37 CA          3.5442  -18.5182  -44.3616 C.3       7 UNK         0.1400 
     38 CB          4.7008  -17.8060  -45.0763 C.3       7 UNK        -0.1800 
     39 N           3.1142  -17.7141  -43.2187 N.am      7 UNK        -0.5000 
     40 C           2.2512  -18.1272  -42.2801 C.2       6 UNK         0.5000 
     41 O           1.7845  -19.2643  -42.2374 O.2       6 UNK        -0.5000 
     42 CA          1.7958  -17.0787  -41.2464 C.3       6 UNK         0.1400 
     43 CB          2.7049  -17.1113  -40.0092 C.3       6 UNK        -0.1800 
     44 N           1.7600  -15.7163  -41.7873 N.am      6 UNK        -0.5000 
     45 C           0.9657  -15.3167  -42.7896 C.2       5 UNK         0.5000 
     46 O           0.1563  -16.0568  -43.3542 O.2       5 UNK        -0.5000 
     47 CA          1.1859  -13.8766  -43.2848 C.3       5 UNK         0.1400 
     48 CB          2.4012  -13.8251  -44.2273 C.3       5 UNK        -0.1800 
     49 N           0.0139  -13.3337  -43.9746 N.am      5 UNK        -0.5000 
     50 C          -1.1054  -12.9328  -43.3532 C.2       4 UNK         0.5000 
     51 O          -1.2573  -13.0051  -42.1322 O.2       4 UNK        -0.5000 
     52 CA         -2.2327  -12.3036  -44.2007 C.3       4 UNK         0.1400 
     53 CB         -2.4107  -10.8198  -43.8370 C.3       4 UNK        -0.1800 
     54 N          -2.0061  -12.3935  -45.6431 N.am      4 UNK        -0.5000 
     55 C          -2.4011  -13.4091  -46.4210 C.2       3 UNK         0.5000 
     56 O          -3.0308  -14.3817  -46.0053 O.2       3 UNK        -0.5000 
     57 CA         -2.0245  -13.3308  -47.9183 C.3       3 UNK         0.1400 
     58 CB         -3.1996  -12.7682  -48.7325 C.3       3 UNK        -0.1800 
     59 N          -0.8219  -12.5445  -48.2328 N.am      3 UNK        -0.5000 
     60 C           0.3930  -12.7403  -47.7065 C.2       2 UNK         0.5000 
     61 O           0.6214  -13.5633  -46.8187 O.2       2 UNK        -0.5000 
     62 CA          1.5363  -11.8526  -48.2171 C.3       2 UNK         0.1400 
     63 CB          1.3765  -10.4018  -47.7269 C.3       2 UNK        -0.1800 
     64 N           2.7728  -12.4204  -47.6982 N.am      2 UNK        -0.5000 
     65 C           4.0133  -12.2111  -48.1392 C.2       1 UNK         0.5000 
     66 O           4.2956  -11.4651  -49.0806 O.2       1 UNK        -0.5000 
     67 C          -1.3588  -23.1363  -47.5112 C.2       11 UNK         0.5000 
     68 O          -1.6991  -24.1907  -48.0466 O.2       11 UNK        -0.5000 
     69 N          -2.2243  -22.2808  -46.9450 N.am      12 UNK        -0.5000 
     70 CA         -3.6808  -22.4490  -46.9020 C.3       12 UNK         0.1400 
     71 CB         -4.3292  -21.2157  -46.2580 C.3       12 UNK        -0.1800 
     72 C          -4.1423  -23.7293  -46.1839 C.2       12 UNK         0.5000 
     73 O          -5.1434  -24.3168  -46.5920 O.2       12 UNK        -0.5000 
     74 N          -3.3778  -24.1802  -45.1802 N.am      13 UNK        -0.5000 
     75 CA         -3.5682  -25.4611  -44.4922 C.3       13 UNK         0.1400 
     76 CB         -2.6238  -25.5289  -43.2830 C.3       13 UNK        -0.1800 
     77 C          -3.3774  -26.6926  -45.4068 C.2       13 UNK         0.5000 
     78 O          -3.9316  -27.7520  -45.1129 O.2       13 UNK        -0.5000 
     79 N          -2.6333  -26.5245  -46.5083 N.am      14 UNK        -0.5000 
     80 CA         -2.4488  -27.5009  -47.5838 C.3       14 UNK         0.1400 
     81 CB         -0.9428  -27.6189  -47.8772 C.3       14 UNK        -0.1800 
     82 C          -3.2422  -27.1033  -48.8497 C.2       14 UNK         0.5000 
     83 O          -2.9567  -27.6161  -49.9325 O.2       14 UNK        -0.5000 
     84 N          -4.2018  -26.1752  -48.7021 N.am      15 UNK        -0.5000 
     85 CA         -5.0735  -25.5805  -49.7232 C.3       15 UNK         0.1400 
     86 CB         -5.9404  -26.6532  -50.4133 C.3       15 UNK        -0.1800 
     87 C          -4.3558  -24.6793  -50.7494 C.2       15 UNK         0.5000 
     88 O          -5.0045  -24.2258  -51.6922 O.2       15 UNK        -0.5000 
     89 N          -3.0518  -24.4261  -50.5611 N.am      16 UNK        -0.5000 
     90 CA         -2.1549  -23.6055  -51.3859 C.3       16 UNK         0.1400 
     91 CB         -2.3890  -22.1129  -51.0879 C.3       16 UNK        -0.1800 
     92 C          -2.2141  -23.9327  -52.8958 C.2       16 UNK         0.5000 
     93 O          -2.2021  -23.0221  -53.7245 O.2       16 UNK        -0.5000 
     94 N          -2.3037  -25.2340  -53.2133 N.am      17 UNK        -0.5000 
     95 CA         -2.4926  -25.8029  -54.5542 C.3       17 UNK         0.1400 
     96 CB         -1.2665  -25.5325  -55.4524 C.3       17 UNK        -0.1800 
     97 C          -3.8320  -25.3762  -55.1978 C.2       17 UNK         0.5000 
     98 O          -3.8689  -25.0089  -56.3735 O.2       17 UNK        -0.5000 
     99 N          -4.9057  -25.4484  -54.3968 N.am      18 UNK        -0.5000 
    100 CA        -6.2926  -25.0872  -54.7110 C.3       18 UNK         0.1400 
    101 CB        -6.8598  -25.9617  -55.8497 C.3       18 UNK        -0.1800 
    102 C         -6.4689  -23.5732  -54.9481 C.2       18 UNK         0.5000 
    103 O         -7.1196  -23.1606  -55.9103 O.2       18 UNK        -0.5000 
    104 N         -5.8892  -22.7739  -54.0470 N.am      19 UNK        -0.5000 
    105 CA        -5.9379  -21.3123  -54.0430 C.3       19 UNK         0.1400 
    106 CB        -4.9241  -20.7421  -55.0556 C.3       19 UNK        -0.1800 
    107 C         -5.7093  -20.8044  -52.6095 C.2       19 UNK         0.5000 
    108 O         -4.8870  -19.9127  -52.3933 O.2       19 UNK        -0.5000 
    109 N         -6.3991  -21.4368  -51.6477 N.am      20 UNK        -0.5000 
    110 CA        -6.2167  -21.2980  -50.2009 C.3       20 UNK         0.1400 
    111 CB        -7.2920  -22.1222  -49.4759 C.3       20 UNK        -0.1800 
    112 C         -6.2133  -19.8383  -49.7091 C.2       20 UNK         0.5000 
    113 O         -7.2204  -19.1433  -49.8524 O.2       20 UNK        -0.5000 
    114 N         -5.0657  -19.4205  -49.1558 N.am      21 UNK        -0.5000 
    115 CA        -4.7532  -18.0836  -48.6358 C.3       21 UNK         0.1400 
    116 CB        -5.6901  -17.6978  -47.4716 C.3       21 UNK        -0.1800 
    117 C         -4.6628  -16.9836  -49.7166 C.2       21 UNK         0.5000 
    118 O         -4.6448  -15.8038  -49.3662 O.2       21 UNK        -0.5000 
    119 N         -4.5449  -17.3783  -50.9930 N.am      22 UNK        -0.5000 
    120 CA        -4.4039  -16.5066  -52.1712 C.3       22 UNK         0.1400 
    121 C         -5.6620  -15.6271  -52.4625 C.2       22 UNK         0.5000 
    122 N         -5.5991  -14.7256  -53.4348 N.am      22 UNK        -0.7600 
    123 O         -6.7222  -15.7769  -51.8588 O.2       22 UNK        -0.5000 
    124 C124       -3.0736  -15.6957  -52.1525 C.3       23 UNK        -0.0398 
    125 S125       -1.5874  -16.7555  -52.2211 S.3       23 UNK        -0.2404 
    126 C126       -1.1470  -16.9057  -50.4629 C.3       23 UNK        -0.0205 
    127 H127        7.5153   -9.2895  -46.6995 H         1 UNK         0.0600 
    128 H128        8.4247  -10.7345  -47.1501 H         1 UNK         0.0600 
    129 H129        8.1813  -10.3416  -45.4459 H         1 UNK         0.0600 
    130 H130        7.0834  -12.3597  -47.8702 H         1 UNK         0.3000 
    131 H131        4.7658  -13.2377  -46.4022 H         1 UNK         0.0600 
    132 H132        5.7298  -14.1496  -49.1620 H         1 UNK         0.0800 
    133 H133        6.3569  -14.7640  -47.6602 H         1 UNK         0.0800 
    134 H134        3.4185  -14.8340  -50.1589 H         1 UNK         0.0800 
    135 H135        4.6166  -16.1006  -50.2917 H         1 UNK         0.0800 
    136 H136        1.0533  -15.3698  -50.0332 H         1 UNK         0.1150 
    137 H137       -0.1601  -19.4488  -50.5498 H         1 UNK         0.1150 
    138 H138        3.9715  -18.5037  -49.8849 H         1 UNK         0.1150 
    139 H139        1.6508  -21.1106  -51.0547 H         1 UNK         0.0800 
    140 H140        3.3164  -20.7032  -50.7573 H         1 UNK         0.0800 
    141 H141        0.0660  -21.9996  -49.4835 H         1 UNK         0.0800 
    142 H142        0.0281  -20.7447  -48.2699 H         1 UNK         0.0800 
    143 H143        0.6921  -23.6804  -47.7006 H         1 UNK         0.0600 
    144 H144        0.8251  -21.4214  -45.9571 H         1 UNK         0.3000 
    145 H145        0.2526  -23.2407  -42.9114 H         1 UNK         0.0600 
    146 H146        2.6866  -23.4706  -43.3423 H         1 UNK         0.0600 
    147 H147        2.7525  -21.8410  -43.9965 H         1 UNK         0.0600 
    148 H148        2.3667  -22.0950  -42.2966 H         1 UNK         0.0600 
    149 H149        0.7179  -20.4740  -43.3780 H         1 UNK         0.3000 
    150 H150       -2.7028  -19.5504  -43.9893 H         1 UNK         0.0600 
    151 H151       -2.0972  -17.9721  -42.1454 H         1 UNK         0.0600 
    152 H152       -0.8023  -19.0559  -41.6400 H         1 UNK         0.0600 
    153 H153       -2.4759  -19.5776  -41.5371 H         1 UNK         0.0600 
    154 H154       -0.3110  -18.0001  -43.9327 H         1 UNK         0.3000 
    155 H155        0.6227  -18.4923  -47.3474 H         1 UNK         0.0600 
    156 H156       -1.1402  -16.7170  -47.4003 H         1 UNK         0.0600 
    157 H157        0.4859  -16.0537  -47.3971 H         1 UNK         0.0600 
    158 H158       -0.4861  -16.0176  -45.9262 H         1 UNK         0.0600 
    159 H159        1.6752  -16.9229  -45.1728 H         1 UNK         0.3000 
    160 H160        3.9162  -19.4733  -43.9846 H         1 UNK         0.0600 
    161 H161        4.9865  -18.3331  -45.9878 H         1 UNK         0.0600 
    162 H162        5.5837  -17.7550  -44.4391 H         1 UNK         0.0600 
    163 H163        4.4319  -16.7871  -45.3533 H         1 UNK         0.0600 
    164 H164        3.4569  -16.7667  -43.1714 H         1 UNK         0.3000 
    165 H165        0.7833  -17.3402  -40.9333 H         1 UNK         0.0600 
    166 H166        2.3459  -16.4303  -39.2373 H         1 UNK         0.0600 
    167 H167        2.7321  -18.1103  -39.5718 H         1 UNK         0.0600 
    168 H168        3.7305  -16.8322  -40.2543 H         1 UNK         0.0600 
    169 H169        2.4038  -15.0546  -41.3777 H         1 UNK         0.3000 
    170 H170        1.3953  -13.2414  -42.4214 H         1 UNK         0.0600 
    171 H171        2.5433  -12.8241  -44.6352 H         1 UNK         0.0600 
    172 H172        3.3184  -14.0900  -43.7003 H         1 UNK         0.0600 
    173 H173        2.2959  -14.5195  -45.0618 H         1 UNK         0.0600 
    174 H174        0.0545  -13.3250  -44.9891 H         1 UNK         0.3000 
    175 H175       -3.1576  -12.8251  -43.9452 H         1 UNK         0.0600 
    176 H176       -1.5119  -10.2416  -44.0549 H         1 UNK         0.0600 
    177 H177       -3.2387  -10.3750  -44.3895 H         1 UNK         0.0600 
    178 H178       -2.6301  -10.6982  -42.7754 H         1 UNK         0.0600 
    179 H179       -1.4857  -11.6404  -46.0678 H         1 UNK         0.3000 
    180 H180       -1.8405  -14.3542  -48.2489 H         1 UNK         0.0600 
    181 H181       -3.0182  -12.8590  -49.8035 H         1 UNK         0.0600 
    182 H182       -3.3771  -11.7161  -48.5070 H         1 UNK         0.0600 
    183 H183       -4.1226  -13.3073  -48.5156 H         1 UNK         0.0600 
    184 H184       -0.9335  -11.8322  -48.9398 H         1 UNK         0.3000 
    185 H185        1.5486  -11.8868  -49.3082 H         1 UNK         0.0600 
    186 H186        1.3526  -10.3478  -46.6376 H         1 UNK         0.0600 
    187 H187        2.1976   -9.7737  -48.0727 H         1 UNK         0.0600 
    188 H188        0.4534   -9.9571  -48.1001 H         1 UNK         0.0600 
    189 H189        2.6042  -13.1080  -46.9728 H         1 UNK         0.3000 
    190 H190       -1.8648  -21.4098  -46.5596 H         1 UNK         0.3000 
    191 H191       -4.0239  -22.5144  -47.9359 H         1 UNK         0.0600 
    192 H192       -4.1091  -21.1554  -45.1927 H         1 UNK         0.0600 
    193 H193       -5.4142  -21.2453  -46.3654 H         1 UNK         0.0600 
    194 H194       -3.9800  -20.2937  -46.7191 H         1 UNK         0.0600 
    195 H195       -2.6118  -23.5971  -44.8611 H         1 UNK         0.3000 
    196 H196       -4.5952  -25.4867  -44.1222 H         1 UNK         0.0600 
    197 H197       -2.7952  -26.4377  -42.7048 H         1 UNK         0.0600 
    198 H198       -2.7774  -24.6826  -42.6129 H         1 UNK         0.0600 
    199 H199       -1.5778  -25.5287  -43.5887 H         1 UNK         0.0600 
    200 H200       -2.2280  -25.6114  -46.6862 H         1 UNK         0.3000 
    201 H201       -2.8131  -28.4820  -47.2738 H         1 UNK         0.0600 
    202 H202       -0.3882  -27.8936  -46.9798 H         1 UNK         0.0600 
    203 H203       -0.5305  -26.6805  -48.2498 H         1 UNK         0.0600 
    204 H204       -0.7451  -28.3865  -48.6263 H         1 UNK         0.0600 
    205 H205       -4.3478  -25.8017  -47.7709 H         1 UNK         0.3000 
    206 H206       -5.7495  -24.9217  -49.1786 H         1 UNK         0.0600 
    207 H207       -6.7035  -26.1945  -51.0432 H         1 UNK         0.0600 
    208 H208       -5.3474  -27.3102  -51.0498 H         1 UNK         0.0600 
    209 H209       -6.4582  -27.2723  -49.6807 H         1 UNK         0.0600 
    210 H210       -2.6253  -24.7984  -49.7189 H         1 UNK         0.3000 
    211 H211       -1.1415  -23.8489  -51.0638 H         1 UNK         0.0600 
    212 H212       -3.3593  -21.7936  -51.4550 H         1 UNK         0.0600 
    213 H213       -1.6355  -21.4897  -51.5709 H         1 UNK         0.0600 
    214 H214       -2.3532  -21.9026  -50.0204 H         1 UNK         0.0600 
    215 H215       -2.3139  -25.8984  -52.4510 H         1 UNK         0.3000 
    216 H216       -2.5584  -26.8832  -54.4171 H         1 UNK         0.0600 
    217 H217       -1.3489  -26.0734  -56.3958 H         1 UNK         0.0600 
    218 H218       -0.3451  -25.8601  -54.9711 H         1 UNK         0.0600 
    219 H219       -1.1617  -24.4744  -55.6934 H         1 UNK         0.0600 
    220 H220       -4.7419  -25.6748  -53.4253 H         1 UNK         0.3000 
    221 H221       -6.8696  -25.3160  -53.8136 H         1 UNK         0.0600 
    222 H222       -6.3805  -25.7504  -56.8057 H         1 UNK         0.0600 
    223 H223       -6.7287  -27.0222  -55.6350 H         1 UNK         0.0600 
    224 H224       -7.9287  -25.7870  -55.9774 H         1 UNK         0.0600 
    225 H225       -5.4006  -23.2034  -53.2634 H         1 UNK         0.3000 
    226 H226       -6.9388  -20.9874  -54.3337 H         1 UNK         0.0600 
    227 H227       -5.1338  -21.0882  -56.0675 H         1 UNK         0.0600 
    228 H228       -4.9572  -19.6522  -55.0735 H         1 UNK         0.0600 
    229 H229       -3.9044  -21.0382  -54.8059 H         1 UNK         0.0600 
    230 H230       -7.0482  -22.1533  -51.9371 H         1 UNK         0.3000 
    231 H231       -5.2505  -21.7462  -49.9655 H         1 UNK         0.0600 
    232 H232       -8.2932  -21.7366  -49.6722 H         1 UNK         0.0600 
    233 H233       -7.2710  -23.1657  -49.7887 H         1 UNK         0.0600 
    234 H234       -7.1369  -22.1026  -48.3962 H         1 UNK         0.0600 
    235 H235       -4.2912  -20.0671  -49.1356 H         1 UNK         0.3000 
    236 H236       -3.7473  -18.1622  -48.2200 H         1 UNK         0.0600 
    237 H237       -6.7046  -17.4980  -47.8169 H         1 UNK         0.0600 
    238 H238       -5.7391  -18.4864  -46.7213 H         1 UNK         0.0600 
    239 H239       -5.3355  -16.7970  -46.9690 H         1 UNK         0.0600 
    240 H240       -4.6110  -18.3677  -51.2111 H         1 UNK         0.3000 
    241 H241       -4.3571  -17.1933  -53.0171 H         1 UNK         0.0600 
    242 H242       -6.4179  -14.1719  -53.6345 H         1 UNK         0.3800 
    243 H243       -4.7693  -14.5925  -53.9911 H         1 UNK         0.3800 
    244 H244       -3.0073  -15.0420  -53.0222 H         1 UNK         0.0800 
    245 H245       -3.0263  -15.0331  -51.2880 H         1 UNK         0.0800 
    246 H246       -1.8139  -17.6190  -49.9788 H         1 UNK         0.0800 
    247 H247       -1.2934  -15.9491  -49.9608 H         1 UNK         0.0800 
@<TRIPOS>BOND
     1    1    2 1    
     2    1  127 1    
     3    1  128 1    
     4    1  129 1    
     5    2    3 2    
     6    2    4 am   BACKBONE|DICT|INTERRES
     7    4    5 1    
     8    4  130 1    
     9    5    6 1    
    10    5   65 1    
    11    5  131 1    
    12    6    7 1    
    13    6  132 1    
    14    6  133 1    
    15    7    8 1    
    16    8    9 1    
    17    8  134 1    
    18    8  135 1    
    19    9   10 ar   
    20    9   14 ar   
    21   10   11 ar   
    22   10  136 1    
    23   11   12 ar   
    24   11  126 1    
    25   12   13 ar   
    26   12  137 1    
    27   13   14 ar   
    28   13   15 1    
    29   14  138 1    
    30   15   16 1    
    31   15  139 1    
    32   15  140 1    
    33   16   17 1    
    34   17   18 1    
    35   17  141 1    
    36   17  142 1    
    37   18   19 1    
    38   18   67 1    
    39   18  143 1    
    40   19   20 am   BACKBONE|DICT|INTERRES
    41   19  144 1    
    42   20   21 2    
    43   20   22 1    
    44   22   23 1    
    45   22   24 1    
    46   22  145 1    
    47   23  146 1    
    48   23  147 1    
    49   23  148 1    
    50   24   25 am   BACKBONE|DICT|INTERRES
    51   24  149 1    
    52   25   26 2    
    53   25   27 1    
    54   27   28 1    
    55   27   29 1    
    56   27  150 1    
    57   28  151 1    
    58   28  152 1    
    59   28  153 1    
    60   29   30 am   BACKBONE|DICT|INTERRES
    61   29  154 1    
    62   30   31 2    
    63   30   32 1    
    64   32   33 1    
    65   32   34 1    
    66   32  155 1    
    67   33  156 1    
    68   33  157 1    
    69   33  158 1    
    70   34   35 am   BACKBONE|DICT|INTERRES
    71   34  159 1    
    72   35   36 2    
    73   35   37 1    
    74   37   38 1    
    75   37   39 1    
    76   37  160 1    
    77   38  161 1    
    78   38  162 1    
    79   38  163 1    
    80   39   40 am   BACKBONE|DICT|INTERRES
    81   39  164 1    
    82   40   41 2    
    83   40   42 1    
    84   42   43 1    
    85   42   44 1    
    86   42  165 1    
    87   43  166 1    
    88   43  167 1    
    89   43  168 1    
    90   44   45 am   BACKBONE|DICT|INTERRES
    91   44  169 1    
    92   45   46 2    
    93   45   47 1    
    94   47   48 1    
    95   47   49 1    
    96   47  170 1    
    97   48  171 1    
    98   48  172 1    
    99   48  173 1    
   100   49   50 am   BACKBONE|DICT|INTERRES
   101   49  174 1    
   102   50   51 2    
   103   50   52 1    
   104   52   53 1    
   105   52   54 1    
   106   52  175 1    
   107   53  176 1    
   108   53  177 1    
   109   53  178 1    
   110   54   55 am   BACKBONE|DICT|INTERRES
   111   54  179 1    
   112   55   56 2    
   113   55   57 1    
   114   57   58 1    
   115   57   59 1    
   116   57  180 1    
   117   58  181 1    
   118   58  182 1    
   119   58  183 1    
   120   59   60 am   BACKBONE|DICT|INTERRES
   121   59  184 1    
   122   60   61 2    
   123   60   62 1    
   124   62   63 1    
   125   62   64 1    
   126   62  185 1    
   127   63  186 1    
   128   63  187 1    
   129   63  188 1    
   130   64   65 am   BACKBONE|DICT|INTERRES
   131   64  189 1    
   132   65   66 2    
   133   67   68 2    
   134   67   69 am   BACKBONE|DICT|INTERRES
   135   69   70 1    
   136   69  190 1    
   137   70   71 1    
   138   70   72 1    
   139   70  191 1    
   140   71  192 1    
   141   71  193 1    
   142   71  194 1    
   143   72   73 2    
   144   72   74 am   BACKBONE|DICT|INTERRES
   145   74   75 1    
   146   74  195 1    
   147   75   76 1    
   148   75   77 1    
   149   75  196 1    
   150   76  197 1    
   151   76  198 1    
   152   76  199 1    
   153   77   78 2    
   154   77   79 am   BACKBONE|DICT|INTERRES
   155   79   80 1    
   156   79  200 1    
   157   80   81 1    
   158   80   82 1    
   159   80  201 1    
   160   81  202 1    
   161   81  203 1    
   162   81  204 1    
   163   82   83 2    
   164   82   84 am   BACKBONE|DICT|INTERRES
   165   84   85 1    
   166   84  205 1    
   167   85   86 1    
   168   85   87 1    
   169   85  206 1    
   170   86  207 1    
   171   86  208 1    
   172   86  209 1    
   173   87   88 2    
   174   87   89 am   BACKBONE|DICT|INTERRES
   175   89   90 1    
   176   89  210 1    
   177   90   91 1    
   178   90   92 1    
   179   90  211 1    
   180   91  212 1    
   181   91  213 1    
   182   91  214 1    
   183   92   93 2    
   184   92   94 am   BACKBONE|DICT|INTERRES
   185   94   95 1    
   186   94  215 1    
   187   95   96 1    
   188   95   97 1    
   189   95  216 1    
   190   96  217 1    
   191   96  218 1    
   192   96  219 1    
   193   97   98 2    
   194   97   99 am   BACKBONE|DICT|INTERRES
   195   99  100 1    
   196   99  220 1    
   197  100  101 1    
   198  100  102 1    
   199  100  221 1    
   200  101  222 1    
   201  101  223 1    
   202  101  224 1    
   203  102  103 2    
   204  102  104 am   BACKBONE|DICT|INTERRES
   205  104  105 1    
   206  104  225 1    
   207  105  106 1    
   208  105  107 1    
   209  105  226 1    
   210  106  227 1    
   211  106  228 1    
   212  106  229 1    
   213  107  108 2    
   214  107  109 am   BACKBONE|DICT|INTERRES
   215  109  110 1    
   216  109  230 1    
   217  110  111 1    
   218  110  112 1    
   219  110  231 1    
   220  111  232 1    
   221  111  233 1    
   222  111  234 1    
   223  112  113 2    
   224  112  114 am   BACKBONE|DICT|INTERRES
   225  114  115 1    
   226  114  235 1    
   227  115  116 1    
   228  115  117 1    
   229  115  236 1    
   230  116  237 1    
   231  116  238 1    
   232  116  239 1    
   233  117  118 2    
   234  117  119 am   BACKBONE|DICT|INTERRES
   235  119  120 1    
   236  119  240 1    
   237  120  121 1    
   238  120  124 1    
   239  120  241 1    
   240  121  122 am   BACKBONE|DICT|INTERRES
   241  121  123 2    
   242  122  242 1    
   243  122  243 1    
   244  124  125 1    
   245  124  244 1    
   246  124  245 1    
   247  125  126 1    
   248  126  246 1    
   249  126  247 1    
@<TRIPOS>SUBSTRUCTURE
     1 UNK         1 GROUP             0       ****    0 ROOT    
