@<TRIPOS>MOLECULE
3R540
247   249    1
SMALL
USER_CHARGES


@<TRIPOS>ATOM
      1 CA         -5.1484  -15.7683  -50.7398 C.3       0 UNK        -0.1800 
      2 C          -4.1814  -14.8920  -49.9560 C.2       0 UNK         0.5000 
      3 O          -4.1882  -13.6723  -50.1208 O.2       0 UNK        -0.5000 
      4 N          -3.3570  -15.5068  -49.0973 N.am      1 UNK        -0.5000 
      5 CA         -2.3459  -14.8247  -48.2738 C.3       1 UNK         0.1400 
      6 C6         -1.2128  -15.7787  -47.8213 C.3       23 UNK        -0.0398 
      7 S7         -0.4545  -16.7114  -49.1913 S.3       23 UNK        -0.2404 
      8 C8          1.0865  -15.7969  -49.4805 C.3       23 UNK        -0.0205 
      9 C9          2.0087  -16.6144  -50.3672 C.ar      23 UNK        -0.0193 
     10 C10         1.9098  -16.5345  -51.7594 C.ar      23 UNK        -0.1150 
     11 C11         2.7257  -17.3258  -52.5737 C.ar      23 UNK        -0.0193 
     12 C12         3.6480  -18.1957  -51.9833 C.ar      23 UNK        -0.1150 
     13 C13         3.7501  -18.2884  -50.5927 C.ar      23 UNK        -0.0193 
     14 C14         2.9378  -17.4837  -49.7900 C.ar      23 UNK        -0.1150 
     15 C15         4.7310  -19.2665  -49.9651 C.3       23 UNK        -0.0205 
     16 S16         3.9761  -20.9060  -49.7202 S.3       23 UNK        -0.2404 
     17 C17         3.1058  -20.6533  -48.1385 C.3       23 UNK        -0.0398 
     18 CA          2.2373  -21.8646  -47.7191 C.3       11 UNK         0.1400 
     19 N           2.0784  -21.9293  -46.2634 N.am      11 UNK        -0.5000 
     20 C           1.5853  -22.9758  -45.5865 C.2       10 UNK         0.5000 
     21 O           1.2653  -24.0430  -46.1097 O.2       10 UNK        -0.5000 
     22 CA          1.3813  -22.7857  -44.0710 C.3       10 UNK         0.1400 
     23 CB          2.6841  -23.0578  -43.3042 C.3       10 UNK        -0.1800 
     24 N           0.8770  -21.4537  -43.7301 N.am      10 UNK        -0.5000 
     25 C          -0.3213  -20.9816  -44.1035 C.2       9 UNK         0.5000 
     26 O          -1.1485  -21.6445  -44.7287 O.2       9 UNK        -0.5000 
     27 CA         -0.6270  -19.5095  -43.7675 C.3       9 UNK         0.1400 
     28 CB         -1.0836  -19.3667  -42.3075 C.3       9 UNK        -0.1800 
     29 N           0.5143  -18.6264  -44.0126 N.am      9 UNK        -0.5000 
     30 C           1.0835  -18.4238  -45.2095 C.2       8 UNK         0.5000 
     31 O           0.6754  -18.9252  -46.2541 O.2       8 UNK        -0.5000 
     32 CA          2.3627  -17.5718  -45.2361 C.3       8 UNK         0.1400 
     33 CB          2.0358  -16.0716  -45.2032 C.3       8 UNK        -0.1800 
     34 N           3.2629  -17.9111  -44.1347 N.am      8 UNK        -0.5000 
     35 C           3.9149  -19.0778  -44.0268 C.2       7 UNK         0.5000 
     36 O           3.8491  -19.9765  -44.8643 O.2       7 UNK        -0.5000 
     37 CA          4.7442  -19.2905  -42.7479 C.3       7 UNK         0.1400 
     38 CB          6.1326  -18.6495  -42.8897 C.3       7 UNK        -0.1800 
     39 N           4.0802  -18.7549  -41.5590 N.am      7 UNK        -0.5000 
     40 C           2.9456  -19.2459  -41.0404 C.2       6 UNK         0.5000 
     41 O           2.3610  -20.2334  -41.4852 O.2       6 UNK        -0.5000 
     42 CA          2.3341  -18.4613  -39.8643 C.3       6 UNK         0.1400 
     43 CB          2.9777  -18.8847  -38.5357 C.3       6 UNK        -0.1800 
     44 N           2.4527  -17.0079  -40.0261 N.am      6 UNK        -0.5000 
     45 C           1.8768  -16.3154  -41.0165 C.2       5 UNK         0.5000 
     46 O           1.1838  -16.8331  -41.8976 O.2       5 UNK        -0.5000 
     47 CA          2.1529  -14.8076  -41.0639 C.3       5 UNK         0.1400 
     48 CB          3.5350  -14.5172  -41.6744 C.3       5 UNK        -0.1800 
     49 N           1.1149  -14.2013  -41.8844 N.am      5 UNK        -0.5000 
     50 C           0.6512  -12.9525  -41.7925 C.2       4 UNK         0.5000 
     51 O           1.1339  -12.0963  -41.0500 O.2       4 UNK        -0.5000 
     52 CA         -0.5708  -12.6017  -42.6683 C.3       4 UNK         0.1400 
     53 CB         -0.1258  -11.8422  -43.9275 C.3       4 UNK        -0.1800 
     54 N          -1.3787  -13.7562  -43.0798 N.am      4 UNK        -0.5000 
     55 C          -2.0475  -14.5753  -42.2530 C.2       3 UNK         0.5000 
     56 O          -2.0353  -14.4645  -41.0259 O.2       3 UNK        -0.5000 
     57 CA         -2.8689  -15.6967  -42.9274 C.3       3 UNK         0.1400 
     58 CB         -3.8249  -16.4190  -41.9562 C.3       3 UNK        -0.1800 
     59 N          -3.5922  -15.2395  -44.1198 N.am      3 UNK        -0.5000 
     60 C          -4.4769  -14.2322  -44.2033 C.2       2 UNK         0.5000 
     61 O          -4.8596  -13.5746  -43.2343 O.2       2 UNK        -0.5000 
     62 CA         -5.0320  -13.9093  -45.6097 C.3       2 UNK         0.1400 
     63 CB         -5.2922  -12.4007  -45.8033 C.3       2 UNK        -0.1800 
     64 N          -4.2237  -14.4378  -46.7189 N.am      2 UNK        -0.5000 
     65 C          -2.9566  -14.1241  -47.0381 C.2       1 UNK         0.5000 
     66 O          -2.2571  -13.3555  -46.3772 O.2       1 UNK        -0.5000 
     67 C           0.8737  -21.8672  -48.4463 C.2       11 UNK         0.5000 
     68 O           0.7208  -22.5643  -49.4494 O.2       11 UNK        -0.5000 
     69 N          -0.0936  -21.1067  -47.9122 N.am      12 UNK        -0.5000 
     70 CA         -1.4615  -20.9992  -48.4199 C.3       12 UNK         0.1400 
     71 CB         -2.1696  -19.8331  -47.7134 C.3       12 UNK        -0.1800 
     72 C          -2.2822  -22.2901  -48.2562 C.2       12 UNK         0.5000 
     73 O          -3.1484  -22.5568  -49.0900 O.2       12 UNK        -0.5000 
     74 N          -1.9898  -23.0573  -47.1982 N.am      13 UNK        -0.5000 
     75 CA         -2.6188  -24.3223  -46.8151 C.3       13 UNK         0.1400 
     76 CB         -2.4341  -25.3828  -47.9248 C.3       13 UNK        -0.1800 
     77 C          -4.0900  -24.1533  -46.3745 C.2       13 UNK         0.5000 
     78 O          -4.5368  -23.0364  -46.0948 O.2       13 UNK        -0.5000 
     79 N          -4.8094  -25.2805  -46.2745 N.am      14 UNK        -0.5000 
     80 CA         -6.2078  -25.3686  -45.8492 C.3       14 UNK         0.1400 
     81 CB         -6.6487  -26.8400  -45.8657 C.3       14 UNK        -0.1800 
     82 C          -7.1367  -24.5132  -46.7284 C.2       14 UNK         0.5000 
     83 O          -7.0862  -24.6258  -47.9549 O.2       14 UNK        -0.5000 
     84 N          -7.9254  -23.6428  -46.0812 N.am      15 UNK        -0.5000 
     85 CA         -8.8497  -22.6660  -46.6774 C.3       15 UNK         0.1400 
     86 CB        -10.0276  -23.3932  -47.3594 C.3       15 UNK        -0.1800 
     87 C          -8.1746  -21.6417  -47.6210 C.2       15 UNK         0.5000 
     88 O          -8.8650  -21.0087  -48.4212 O.2       15 UNK        -0.5000 
     89 N          -6.8416  -21.5110  -47.5235 N.am      16 UNK        -0.5000 
     90 CA         -5.9526  -20.7547  -48.4088 C.3       16 UNK         0.1400 
     91 CB         -6.1808  -19.2360  -48.2619 C.3       16 UNK        -0.1800 
     92 C          -5.9956  -21.2363  -49.8778 C.2       16 UNK         0.5000 
     93 O          -5.7829  -20.4382  -50.7915 O.2       16 UNK        -0.5000 
     94 N          -6.2782  -22.5312  -50.0864 N.am      17 UNK        -0.5000 
     95 CA         -6.4978  -23.1346  -51.4008 C.3       17 UNK         0.1400 
     96 CB         -7.0301  -24.5633  -51.2178 C.3       17 UNK        -0.1800 
     97 C          -5.2650  -23.1371  -52.3231 C.2       17 UNK         0.5000 
     98 O          -5.4319  -23.0346  -53.5389 O.2       17 UNK        -0.5000 
     99 N          -4.0564  -23.2485  -51.7537 N.am      18 UNK        -0.5000 
    100 CA        -2.8095  -23.2737  -52.5212 C.3       18 UNK         0.1400 
    101 CB        -1.7099  -23.9850  -51.7204 C.3       18 UNK        -0.1800 
    102 C         -2.3563  -21.8680  -52.9493 C.2       18 UNK         0.5000 
    103 O         -1.6979  -21.7436  -53.9817 O.2       18 UNK        -0.5000 
    104 N         -2.7509  -20.8308  -52.1933 N.am      19 UNK        -0.5000 
    105 CA        -2.4403  -19.4206  -52.4659 C.3       19 UNK         0.1400 
    106 CB        -2.8409  -18.5624  -51.2585 C.3       19 UNK        -0.1800 
    107 C         -3.0913  -18.8699  -53.7500 C.2       19 UNK         0.5000 
    108 O         -2.6650  -17.8282  -54.2475 O.2       19 UNK        -0.5000 
    109 N         -4.0961  -19.5826  -54.2766 N.am      20 UNK        -0.5000 
    110 CA        -4.7418  -19.3035  -55.5579 C.3       20 UNK         0.1400 
    111 CB        -6.0323  -20.1325  -55.6470 C.3       20 UNK        -0.1800 
    112 C         -3.8362  -19.5800  -56.7777 C.2       20 UNK         0.5000 
    113 O         -4.1405  -19.0862  -57.8646 O.2       20 UNK        -0.5000 
    114 N         -2.7601  -20.3577  -56.5902 N.am      21 UNK        -0.5000 
    115 CA        -1.7916  -20.7074  -57.6274 C.3       21 UNK         0.1400 
    116 CB        -1.9380  -22.1974  -57.9820 C.3       21 UNK        -0.1800 
    117 C         -0.3615  -20.3754  -57.1754 C.2       21 UNK         0.5000 
    118 O          0.3192  -19.6116  -57.8612 O.2       21 UNK        -0.5000 
    119 N          0.0445  -20.9500  -56.0334 N.am      22 UNK        -0.5000 
    120 CA         1.3688  -20.8878  -55.3906 C.3       22 UNK         0.1400 
    121 C          2.6004  -20.9695  -56.3473 C.2       22 UNK         0.5000 
    122 N          3.6642  -20.2084  -56.1263 N.am      22 UNK        -0.7600 
    123 O          2.6255  -21.7884  -57.2637 O.2       22 UNK        -0.5000 
    124 C124        1.4402  -19.8423  -54.2409 C.3       23 UNK        -0.0398 
    125 S125        1.1359  -18.1060  -54.7253 S.3       23 UNK        -0.2404 
    126 C126        2.6107  -17.2420  -54.0897 C.3       23 UNK        -0.0205 
    127 H127       -4.8032  -15.8827  -51.7675 H         1 UNK         0.0600 
    128 H128       -6.1388  -15.3135  -50.7599 H         1 UNK         0.0600 
    129 H129       -5.2449  -16.7591  -50.2974 H         1 UNK         0.0600 
    130 H130       -3.3696  -16.5136  -49.0270 H         1 UNK         0.3000 
    131 H131       -1.8884  -14.0417  -48.8826 H         1 UNK         0.0600 
    132 H132       -1.5886  -16.5086  -47.1021 H         1 UNK         0.0800 
    133 H133       -0.4365  -15.2173  -47.3006 H         1 UNK         0.0800 
    134 H134        0.8615  -14.8354  -49.9444 H         1 UNK         0.0800 
    135 H135        1.5795  -15.5818  -48.5317 H         1 UNK         0.0800 
    136 H136        1.1839  -15.8720  -52.2099 H         1 UNK         0.1150 
    137 H137        4.2799  -18.8143  -52.6048 H         1 UNK         0.1150 
    138 H138        3.0104  -17.5483  -48.7140 H         1 UNK         0.1150 
    139 H139        5.6035  -19.3759  -50.6109 H         1 UNK         0.0800 
    140 H140        5.1048  -18.8800  -49.0155 H         1 UNK         0.0800 
    141 H141        2.5108  -19.7406  -48.1750 H         1 UNK         0.0800 
    142 H142        3.8822  -20.4760  -47.3944 H         1 UNK         0.0800 
    143 H143        2.7629  -22.7770  -48.0098 H         1 UNK         0.0600 
    144 H144        2.3701  -21.1107  -45.7407 H         1 UNK         0.3000 
    145 H145        0.6383  -23.5160  -43.7436 H         1 UNK         0.0600 
    146 H146        2.5270  -22.9975  -42.2272 H         1 UNK         0.0600 
    147 H147        3.0642  -24.0565  -43.5223 H         1 UNK         0.0600 
    148 H148        3.4648  -22.3445  -43.5682 H         1 UNK         0.0600 
    149 H149        1.4800  -20.8685  -43.1602 H         1 UNK         0.3000 
    150 H150       -1.4434  -19.1812  -44.4140 H         1 UNK         0.0600 
    151 H151       -1.9845  -19.9529  -42.1224 H         1 UNK         0.0600 
    152 H152       -1.3116  -18.3307  -42.0602 H         1 UNK         0.0600 
    153 H153       -0.3194  -19.7108  -41.6106 H         1 UNK         0.0600 
    154 H154        0.8920  -18.1373  -43.2050 H         1 UNK         0.3000 
    155 H155        2.8831  -17.7820  -46.1729 H         1 UNK         0.0600 
    156 H156        2.9433  -15.4682  -45.2280 H         1 UNK         0.0600 
    157 H157        1.4714  -15.7938  -44.3144 H         1 UNK         0.0600 
    158 H158        1.4385  -15.7896  -46.0686 H         1 UNK         0.0600 
    159 H159        3.3330  -17.2462  -43.3804 H         1 UNK         0.3000 
    160 H160        4.8758  -20.3659  -42.6103 H         1 UNK         0.0600 
    161 H161        6.0688  -17.5669  -43.0058 H         1 UNK         0.0600 
    162 H162        6.6562  -19.0433  -43.7619 H         1 UNK         0.0600 
    163 H163        6.7534  -18.8579  -42.0182 H         1 UNK         0.0600 
    164 H164        4.4952  -17.9418  -41.1289 H         1 UNK         0.3000 
    165 H165        1.2711  -18.7079  -39.8215 H         1 UNK         0.0600 
    166 H166        2.4922  -18.3977  -37.6897 H         1 UNK         0.0600 
    167 H167        2.8877  -19.9613  -38.3845 H         1 UNK         0.0600 
    168 H168        4.0392  -18.6361  -38.5030 H         1 UNK         0.0600 
    169 H169        3.0103  -16.5197  -39.3400 H         1 UNK         0.3000 
    170 H170        2.0993  -14.4105  -40.0481 H         1 UNK         0.0600 
    171 H171        4.3309  -14.9721  -41.0839 H         1 UNK         0.0600 
    172 H172        3.6157  -14.9028  -42.6913 H         1 UNK         0.0600 
    173 H173        3.7318  -13.4456  -41.7094 H         1 UNK         0.0600 
    174 H174        0.6231  -14.8630  -42.4705 H         1 UNK         0.3000 
    175 H175       -1.2125  -11.9431  -42.0797 H         1 UNK         0.0600 
    176 H176        0.4921  -12.4660  -44.5748 H         1 UNK         0.0600 
    177 H177       -0.9844  -11.5044  -44.5085 H         1 UNK         0.0600 
    178 H178        0.4576  -10.9580  -43.6675 H         1 UNK         0.0600 
    179 H179       -1.4887  -13.8861  -44.0767 H         1 UNK         0.3000 
    180 H180       -2.1404  -16.4292  -43.2772 H         1 UNK         0.0600 
    181 H181       -4.3545  -17.2301  -42.4558 H         1 UNK         0.0600 
    182 H182       -4.5683  -15.7389  -41.5395 H         1 UNK         0.0600 
    183 H183       -3.2775  -16.8575  -41.1209 H         1 UNK         0.0600 
    184 H184       -3.3634  -15.7154  -44.9795 H         1 UNK         0.3000 
    185 H185       -5.9952  -14.4176  -45.6712 H         1 UNK         0.0600 
    186 H186       -6.0225  -12.0315  -45.0824 H         1 UNK         0.0600 
    187 H187       -4.3824  -11.8133  -45.6754 H         1 UNK         0.0600 
    188 H188       -5.6882  -12.1935  -46.7975 H         1 UNK         0.0600 
    189 H189       -4.6975  -15.0933  -47.3242 H         1 UNK         0.3000 
    190 H190        0.1414  -20.5027  -47.1286 H         1 UNK         0.3000 
    191 H191       -1.3962  -20.7795  -49.4864 H         1 UNK         0.0600 
    192 H192       -3.1184  -19.6014  -48.1942 H         1 UNK         0.0600 
    193 H193       -1.5673  -18.9283  -47.7438 H         1 UNK         0.0600 
    194 H194       -2.3741  -20.0587  -46.6664 H         1 UNK         0.0600 
    195 H195       -1.3444  -22.6746  -46.5160 H         1 UNK         0.3000 
    196 H196       -2.0725  -24.6626  -45.9345 H         1 UNK         0.0600 
    197 H197       -3.0839  -25.1948  -48.7804 H         1 UNK         0.0600 
    198 H198       -1.4055  -25.3966  -48.2863 H         1 UNK         0.0600 
    199 H199       -2.6546  -26.3857  -47.5589 H         1 UNK         0.0600 
    200 H200       -4.3747  -26.1506  -46.5425 H         1 UNK         0.3000 
    201 H201       -6.2599  -25.0071  -44.8202 H         1 UNK         0.0600 
    202 H202       -6.5806  -27.2687  -46.8666 H         1 UNK         0.0600 
    203 H203       -7.6834  -26.9410  -45.5355 H         1 UNK         0.0600 
    204 H204       -6.0349  -27.4449  -45.1980 H         1 UNK         0.0600 
    205 H205       -7.8671  -23.6113  -45.0725 H         1 UNK         0.3000 
    206 H206       -9.2556  -22.0856  -45.8477 H         1 UNK         0.0600 
    207 H207      -10.4973  -24.1059  -46.6816 H         1 UNK         0.0600 
    208 H208      -10.7993  -22.6878  -47.6695 H         1 UNK         0.0600 
    209 H209       -9.7068  -23.9370  -48.2486 H         1 UNK         0.0600 
    210 H210       -6.3603  -22.0869  -46.8417 H         1 UNK         0.3000 
    211 H211       -4.9490  -20.9687  -48.0485 H         1 UNK         0.0600 
    212 H212       -5.4146  -18.6744  -48.7960 H         1 UNK         0.0600 
    213 H213       -6.1359  -18.9295  -47.2170 H         1 UNK         0.0600 
    214 H214       -7.1478  -18.9306  -48.6621 H         1 UNK         0.0600 
    215 H215       -6.4371  -23.1330  -49.2853 H         1 UNK         0.3000 
    216 H216       -7.2724  -22.5498  -51.9013 H         1 UNK         0.0600 
    217 H217       -6.3173  -25.1903  -50.6803 H         1 UNK         0.0600 
    218 H218       -7.2256  -25.0368  -52.1808 H         1 UNK         0.0600 
    219 H219       -7.9661  -24.5663  -50.6588 H         1 UNK         0.0600 
    220 H220       -3.9720  -23.2504  -50.7406 H         1 UNK         0.3000 
    221 H221       -2.9732  -23.8547  -53.4315 H         1 UNK         0.0600 
    222 H222       -0.8139  -24.1182  -52.3278 H         1 UNK         0.0600 
    223 H223       -2.0322  -24.9733  -51.3926 H         1 UNK         0.0600 
    224 H224       -1.4171  -23.4176  -50.8392 H         1 UNK         0.0600 
    225 H225       -3.3447  -21.0202  -51.3975 H         1 UNK         0.3000 
    226 H226       -1.3602  -19.3338  -52.5942 H         1 UNK         0.0600 
    227 H227       -2.2830  -18.8475  -50.3705 H         1 UNK         0.0600 
    228 H228       -2.6258  -17.5087  -51.4410 H         1 UNK         0.0600 
    229 H229       -3.9036  -18.6475  -51.0371 H         1 UNK         0.0600 
    230 H230       -4.3954  -20.4167  -53.7913 H         1 UNK         0.3000 
    231 H231       -5.0111  -18.2455  -55.5811 H         1 UNK         0.0600 
    232 H232       -5.8229  -21.2029  -55.6371 H         1 UNK         0.0600 
    233 H233       -6.5758  -19.9131  -56.5669 H         1 UNK         0.0600 
    234 H234       -6.7016  -19.9139  -54.8146 H         1 UNK         0.0600 
    235 H235       -2.5613  -20.6938  -55.6556 H         1 UNK         0.3000 
    236 H236       -1.9775  -20.1300  -58.5355 H         1 UNK         0.0600 
    237 H237       -2.9213  -22.4032  -58.4051 H         1 UNK         0.0600 
    238 H238       -1.1956  -22.4977  -58.7226 H         1 UNK         0.0600 
    239 H239       -1.8113  -22.8382  -57.1086 H         1 UNK         0.0600 
    240 H240       -0.6296  -21.5040  -55.5146 H         1 UNK         0.3000 
    241 H241        1.4266  -21.8494  -54.8790 H         1 UNK         0.0600 
    242 H242        4.4605  -20.2936  -56.7389 H         1 UNK         0.3800 
    243 H243        3.6742  -19.5236  -55.3902 H         1 UNK         0.3800 
    244 H244        2.3904  -19.9323  -53.7164 H         1 UNK         0.0800 
    245 H245        0.6902  -20.0963  -53.4918 H         1 UNK         0.0800 
    246 H246        3.5060  -17.6386  -54.5689 H         1 UNK         0.0800 
    247 H247        2.5531  -16.1934  -54.3852 H         1 UNK         0.0800 
@<TRIPOS>BOND
     1    1    2 1    
     2    1  127 1    
     3    1  128 1    
     4    1  129 1    
     5    2    3 2    
     6    2    4 am   BACKBONE|DICT|INTERRES
     7    4    5 1    
     8    4  130 1    
     9    5    6 1    
    10    5   65 1    
    11    5  131 1    
    12    6    7 1    
    13    6  132 1    
    14    6  133 1    
    15    7    8 1    
    16    8    9 1    
    17    8  134 1    
    18    8  135 1    
    19    9   10 ar   
    20    9   14 ar   
    21   10   11 ar   
    22   10  136 1    
    23   11   12 ar   
    24   11  126 1    
    25   12   13 ar   
    26   12  137 1    
    27   13   14 ar   
    28   13   15 1    
    29   14  138 1    
    30   15   16 1    
    31   15  139 1    
    32   15  140 1    
    33   16   17 1    
    34   17   18 1    
    35   17  141 1    
    36   17  142 1    
    37   18   19 1    
    38   18   67 1    
    39   18  143 1    
    40   19   20 am   BACKBONE|DICT|INTERRES
    41   19  144 1    
    42   20   21 2    
    43   20   22 1    
    44   22   23 1    
    45   22   24 1    
    46   22  145 1    
    47   23  146 1    
    48   23  147 1    
    49   23  148 1    
    50   24   25 am   BACKBONE|DICT|INTERRES
    51   24  149 1    
    52   25   26 2    
    53   25   27 1    
    54   27   28 1    
    55   27   29 1    
    56   27  150 1    
    57   28  151 1    
    58   28  152 1    
    59   28  153 1    
    60   29   30 am   BACKBONE|DICT|INTERRES
    61   29  154 1    
    62   30   31 2    
    63   30   32 1    
    64   32   33 1    
    65   32   34 1    
    66   32  155 1    
    67   33  156 1    
    68   33  157 1    
    69   33  158 1    
    70   34   35 am   BACKBONE|DICT|INTERRES
    71   34  159 1    
    72   35   36 2    
    73   35   37 1    
    74   37   38 1    
    75   37   39 1    
    76   37  160 1    
    77   38  161 1    
    78   38  162 1    
    79   38  163 1    
    80   39   40 am   BACKBONE|DICT|INTERRES
    81   39  164 1    
    82   40   41 2    
    83   40   42 1    
    84   42   43 1    
    85   42   44 1    
    86   42  165 1    
    87   43  166 1    
    88   43  167 1    
    89   43  168 1    
    90   44   45 am   BACKBONE|DICT|INTERRES
    91   44  169 1    
    92   45   46 2    
    93   45   47 1    
    94   47   48 1    
    95   47   49 1    
    96   47  170 1    
    97   48  171 1    
    98   48  172 1    
    99   48  173 1    
   100   49   50 am   BACKBONE|DICT|INTERRES
   101   49  174 1    
   102   50   51 2    
   103   50   52 1    
   104   52   53 1    
   105   52   54 1    
   106   52  175 1    
   107   53  176 1    
   108   53  177 1    
   109   53  178 1    
   110   54   55 am   BACKBONE|DICT|INTERRES
   111   54  179 1    
   112   55   56 2    
   113   55   57 1    
   114   57   58 1    
   115   57   59 1    
   116   57  180 1    
   117   58  181 1    
   118   58  182 1    
   119   58  183 1    
   120   59   60 am   BACKBONE|DICT|INTERRES
   121   59  184 1    
   122   60   61 2    
   123   60   62 1    
   124   62   63 1    
   125   62   64 1    
   126   62  185 1    
   127   63  186 1    
   128   63  187 1    
   129   63  188 1    
   130   64   65 am   BACKBONE|DICT|INTERRES
   131   64  189 1    
   132   65   66 2    
   133   67   68 2    
   134   67   69 am   BACKBONE|DICT|INTERRES
   135   69   70 1    
   136   69  190 1    
   137   70   71 1    
   138   70   72 1    
   139   70  191 1    
   140   71  192 1    
   141   71  193 1    
   142   71  194 1    
   143   72   73 2    
   144   72   74 am   BACKBONE|DICT|INTERRES
   145   74   75 1    
   146   74  195 1    
   147   75   76 1    
   148   75   77 1    
   149   75  196 1    
   150   76  197 1    
   151   76  198 1    
   152   76  199 1    
   153   77   78 2    
   154   77   79 am   BACKBONE|DICT|INTERRES
   155   79   80 1    
   156   79  200 1    
   157   80   81 1    
   158   80   82 1    
   159   80  201 1    
   160   81  202 1    
   161   81  203 1    
   162   81  204 1    
   163   82   83 2    
   164   82   84 am   BACKBONE|DICT|INTERRES
   165   84   85 1    
   166   84  205 1    
   167   85   86 1    
   168   85   87 1    
   169   85  206 1    
   170   86  207 1    
   171   86  208 1    
   172   86  209 1    
   173   87   88 2    
   174   87   89 am   BACKBONE|DICT|INTERRES
   175   89   90 1    
   176   89  210 1    
   177   90   91 1    
   178   90   92 1    
   179   90  211 1    
   180   91  212 1    
   181   91  213 1    
   182   91  214 1    
   183   92   93 2    
   184   92   94 am   BACKBONE|DICT|INTERRES
   185   94   95 1    
   186   94  215 1    
   187   95   96 1    
   188   95   97 1    
   189   95  216 1    
   190   96  217 1    
   191   96  218 1    
   192   96  219 1    
   193   97   98 2    
   194   97   99 am   BACKBONE|DICT|INTERRES
   195   99  100 1    
   196   99  220 1    
   197  100  101 1    
   198  100  102 1    
   199  100  221 1    
   200  101  222 1    
   201  101  223 1    
   202  101  224 1    
   203  102  103 2    
   204  102  104 am   BACKBONE|DICT|INTERRES
   205  104  105 1    
   206  104  225 1    
   207  105  106 1    
   208  105  107 1    
   209  105  226 1    
   210  106  227 1    
   211  106  228 1    
   212  106  229 1    
   213  107  108 2    
   214  107  109 am   BACKBONE|DICT|INTERRES
   215  109  110 1    
   216  109  230 1    
   217  110  111 1    
   218  110  112 1    
   219  110  231 1    
   220  111  232 1    
   221  111  233 1    
   222  111  234 1    
   223  112  113 2    
   224  112  114 am   BACKBONE|DICT|INTERRES
   225  114  115 1    
   226  114  235 1    
   227  115  116 1    
   228  115  117 1    
   229  115  236 1    
   230  116  237 1    
   231  116  238 1    
   232  116  239 1    
   233  117  118 2    
   234  117  119 am   BACKBONE|DICT|INTERRES
   235  119  120 1    
   236  119  240 1    
   237  120  121 1    
   238  120  124 1    
   239  120  241 1    
   240  121  122 am   BACKBONE|DICT|INTERRES
   241  121  123 2    
   242  122  242 1    
   243  122  243 1    
   244  124  125 1    
   245  124  244 1    
   246  124  245 1    
   247  125  126 1    
   248  126  246 1    
   249  126  247 1    
@<TRIPOS>SUBSTRUCTURE
     1 UNK         1 GROUP             0       ****    0 ROOT    
