@<TRIPOS>MOLECULE
3R540
247   249    1
SMALL
USER_CHARGES


@<TRIPOS>ATOM
      1 CA          2.1006  -12.5438  -53.3040 C.3       0 UNK        -0.1800 
      2 C           1.7323  -13.4623  -52.1473 C.2       0 UNK         0.5000 
      3 O           2.5301  -14.3200  -51.7691 O.2       0 UNK        -0.5000 
      4 N           0.5267  -13.2902  -51.5909 N.am      1 UNK        -0.5000 
      5 CA          0.0202  -14.0430  -50.4426 C.3       1 UNK         0.1400 
      6 C6         -1.5223  -13.9248  -50.3388 C.3       23 UNK        -0.0398 
      7 S7         -2.2706  -14.8703  -48.9662 S.3       23 UNK        -0.2404 
      8 C8         -2.6335  -16.4718  -49.7465 C.3       23 UNK        -0.0205 
      9 C9         -1.3596  -17.2353  -50.0725 C.ar      23 UNK        -0.0193 
     10 C10        -0.9683  -17.4203  -51.4013 C.ar      23 UNK        -0.1150 
     11 C11         0.2334  -18.0681  -51.7006 C.ar      23 UNK        -0.0193 
     12 C12         1.0422  -18.5373  -50.6621 C.ar      23 UNK        -0.1150 
     13 C13         0.6547  -18.3699  -49.3306 C.ar      23 UNK        -0.0193 
     14 C14        -0.5525  -17.7275  -49.0424 C.ar      23 UNK        -0.1150 
     15 C15         1.5540  -18.8575  -48.2046 C.3       23 UNK        -0.0205 
     16 S16         1.5804  -20.6720  -48.0704 S.3       23 UNK        -0.2404 
     17 C17        -0.1595  -21.0003  -47.6514 C.3       23 UNK        -0.0398 
     18 CA         -0.3943  -22.4496  -47.1728 C.3       11 UNK         0.1400 
     19 N           0.3635  -22.7828  -45.9633 N.am      11 UNK        -0.5000 
     20 C           0.5617  -24.0350  -45.5245 C.2       10 UNK         0.5000 
     21 O           0.1326  -25.0320  -46.1026 O.2       10 UNK        -0.5000 
     22 CA          1.3128  -24.2063  -44.1899 C.3       10 UNK         0.1400 
     23 CB          2.8276  -24.2741  -44.4319 C.3       10 UNK        -0.1800 
     24 N           1.0258  -23.1413  -43.2294 N.am      10 UNK        -0.5000 
     25 C          -0.1910  -22.8327  -42.7592 C.2       9 UNK         0.5000 
     26 O          -1.2034  -23.4832  -43.0190 O.2       9 UNK        -0.5000 
     27 CA         -0.3090  -21.5525  -41.9093 C.3       9 UNK         0.1400 
     28 CB         -0.3626  -21.9015  -40.4152 C.3       9 UNK        -0.1800 
     29 N           0.7718  -20.5875  -42.1366 N.am      9 UNK        -0.5000 
     30 C           1.0479  -19.9692  -43.2923 C.2       8 UNK         0.5000 
     31 O           0.4025  -20.1497  -44.3269 O.2       8 UNK        -0.5000 
     32 CA          2.2631  -19.0172  -43.2810 C.3       8 UNK         0.1400 
     33 CB          2.4919  -18.3260  -44.6360 C.3       8 UNK        -0.1800 
     34 N           2.1708  -17.9882  -42.2452 N.am      8 UNK        -0.5000 
     35 C           2.3980  -18.1514  -40.9339 C.2       7 UNK         0.5000 
     36 O           2.6415  -19.2447  -40.4190 O.2       7 UNK        -0.5000 
     37 CA          2.3361  -16.8730  -40.0699 C.3       7 UNK         0.1400 
     38 CB          3.0818  -17.0102  -38.7263 C.3       7 UNK        -0.1800 
     39 N           2.7729  -15.6793  -40.8063 N.am      7 UNK        -0.5000 
     40 C           3.9903  -15.4407  -41.3226 C.2       6 UNK         0.5000 
     41 O           4.9611  -16.1777  -41.1462 O.2       6 UNK        -0.5000 
     42 CA          4.1543  -14.2036  -42.2308 C.3       6 UNK         0.1400 
     43 CB          4.6382  -14.6282  -43.6261 C.3       6 UNK        -0.1800 
     44 N           2.9228  -13.4242  -42.3832 N.am      6 UNK        -0.5000 
     45 C           2.5103  -12.4895  -41.5183 C.2       5 UNK         0.5000 
     46 O           3.1328  -12.1767  -40.5027 O.2       5 UNK        -0.5000 
     47 CA          1.1656  -11.8027  -41.8220 C.3       5 UNK         0.1400 
     48 CB          1.3660  -10.6585  -42.8276 C.3       5 UNK        -0.1800 
     49 N           0.1046  -12.6882  -42.3148 N.am      5 UNK        -0.5000 
     50 C          -0.3502  -13.8021  -41.7210 C.2       4 UNK         0.5000 
     51 O           0.1773  -14.3142  -40.7349 O.2       4 UNK        -0.5000 
     52 CA         -1.6190  -14.4540  -42.3107 C.3       4 UNK         0.1400 
     53 CB         -2.7938  -14.2948  -41.3331 C.3       4 UNK        -0.1800 
     54 N          -2.0093  -13.8654  -43.5957 N.am      4 UNK        -0.5000 
     55 C          -1.5700  -14.1896  -44.8193 C.2       3 UNK         0.5000 
     56 O          -1.9124  -13.5333  -45.8016 O.2       3 UNK        -0.5000 
     57 CA         -0.6564  -15.4209  -45.0175 C.3       3 UNK         0.1400 
     58 CB         -1.4919  -16.6798  -45.3017 C.3       3 UNK        -0.1800 
     59 N           0.2714  -15.2068  -46.1241 N.am      3 UNK        -0.5000 
     60 C           1.3847  -14.4688  -46.0325 C.2       2 UNK         0.5000 
     61 O           1.7554  -13.9326  -44.9868 O.2       2 UNK        -0.5000 
     62 CA          2.2381  -14.3245  -47.3063 C.3       2 UNK         0.1400 
     63 CB          3.4052  -15.3233  -47.2802 C.3       2 UNK        -0.1800 
     64 N           1.4685  -14.5451  -48.5317 N.am      2 UNK        -0.5000 
     65 C           0.7523  -13.6027  -49.1573 C.2       1 UNK         0.5000 
     66 O           0.6681  -12.4327  -48.7771 O.2       1 UNK        -0.5000 
     67 C          -1.9019  -22.7027  -46.9887 C.2       11 UNK         0.5000 
     68 O          -2.5707  -23.0654  -47.9558 O.2       11 UNK        -0.5000 
     69 N          -2.4151  -22.5189  -45.7646 N.am      12 UNK        -0.5000 
     70 CA         -3.7980  -22.8329  -45.4078 C.3       12 UNK         0.1400 
     71 CB         -4.1849  -22.1035  -44.1126 C.3       12 UNK        -0.1800 
     72 C          -4.0122  -24.3506  -45.2886 C.2       12 UNK         0.5000 
     73 O          -5.0100  -24.8598  -45.7975 O.2       12 UNK        -0.5000 
     74 N          -3.0481  -25.0494  -44.6715 N.am      13 UNK        -0.5000 
     75 CA         -3.0288  -26.5075  -44.5287 C.3       13 UNK         0.1400 
     76 CB         -1.8659  -26.9145  -43.6116 C.3       13 UNK        -0.1800 
     77 C          -2.9445  -27.2453  -45.8795 C.2       13 UNK         0.5000 
     78 O          -3.6385  -28.2441  -46.0717 O.2       13 UNK        -0.5000 
     79 N          -2.1256  -26.7200  -46.8013 N.am      14 UNK        -0.5000 
     80 CA         -1.9835  -27.2114  -48.1746 C.3       14 UNK         0.1400 
     81 CB         -0.6578  -26.6864  -48.7495 C.3       14 UNK        -0.1800 
     82 C          -3.1520  -26.8115  -49.0992 C.2       14 UNK         0.5000 
     83 O          -3.2346  -27.3285  -50.2134 O.2       14 UNK        -0.5000 
     84 N          -4.0014  -25.8779  -48.6433 N.am      15 UNK        -0.5000 
     85 CA         -5.1176  -25.2418  -49.3546 C.3       15 UNK         0.1400 
     86 CB         -6.1807  -26.2737  -49.7818 C.3       15 UNK        -0.1800 
     87 C          -4.6796  -24.3270  -50.5191 C.2       15 UNK         0.5000 
     88 O          -5.5229  -23.8951  -51.3057 O.2       15 UNK        -0.5000 
     89 N          -3.3853  -23.9875  -50.5784 N.am      16 UNK        -0.5000 
     90 CA         -2.7999  -23.0355  -51.5206 C.3       16 UNK         0.1400 
     91 CB         -1.2687  -23.0761  -51.4016 C.3       16 UNK        -0.1800 
     92 C          -3.3226  -21.6088  -51.2902 C.2       16 UNK         0.5000 
     93 O          -3.6190  -20.9092  -52.2570 O.2       16 UNK        -0.5000 
     94 N          -3.4836  -21.2301  -50.0140 N.am      17 UNK        -0.5000 
     95 CA         -4.0627  -19.9508  -49.6031 C.3       17 UNK         0.1400 
     96 CB         -3.7780  -19.7098  -48.1120 C.3       17 UNK        -0.1800 
     97 C          -5.5744  -19.8624  -49.8769 C.2       17 UNK         0.5000 
     98 O          -6.0765  -18.7716  -50.1464 O.2       17 UNK        -0.5000 
     99 N          -6.2667  -21.0079  -49.8026 N.am      18 UNK        -0.5000 
    100 CA        -7.6953  -21.1292  -50.0893 C.3       18 UNK         0.1400 
    101 CB        -8.2335  -22.4381  -49.4898 C.3       18 UNK        -0.1800 
    102 C         -7.9799  -21.0502  -51.5989 C.2       18 UNK         0.5000 
    103 O         -8.9188  -20.3640  -52.0041 O.2       18 UNK        -0.5000 
    104 N         -7.1539  -21.7371  -52.4011 N.am      19 UNK        -0.5000 
    105 CA        -7.2027  -21.7038  -53.8619 C.3       19 UNK         0.1400 
    106 CB        -6.3336  -22.8398  -54.4246 C.3       19 UNK        -0.1800 
    107 C         -6.7522  -20.3471  -54.4323 C.2       19 UNK         0.5000 
    108 O         -7.3864  -19.8365  -55.3557 O.2       19 UNK        -0.5000 
    109 N         -5.6556  -19.8072  -53.8774 N.am      20 UNK        -0.5000 
    110 CA        -4.9806  -18.5532  -54.2351 C.3       20 UNK         0.1400 
    111 CB        -5.8944  -17.3404  -53.9687 C.3       20 UNK        -0.1800 
    112 C         -4.3783  -18.5430  -55.6580 C.2       20 UNK         0.5000 
    113 O         -4.0146  -17.4780  -56.1600 O.2       20 UNK        -0.5000 
    114 N         -4.2482  -19.7265  -56.2765 N.am      21 UNK        -0.5000 
    115 CA        -3.7583  -19.9332  -57.6432 C.3       21 UNK         0.1400 
    116 CB        -3.9544  -21.4095  -58.0208 C.3       21 UNK        -0.1800 
    117 C         -2.2911  -19.5103  -57.8489 C.2       21 UNK         0.5000 
    118 O         -1.9090  -19.1554  -58.9646 O.2       21 UNK        -0.5000 
    119 N         -1.5098  -19.5348  -56.7641 N.am      22 UNK        -0.5000 
    120 CA        -0.1437  -19.0030  -56.6840 C.3       22 UNK         0.1400 
    121 C         -0.0506  -17.4479  -56.6168 C.2       22 UNK         0.5000 
    122 N         -1.1467  -16.7068  -56.4941 N.am      22 UNK        -0.7600 
    123 O          1.0452  -16.8988  -56.6893 O.2       22 UNK        -0.5000 
    124 C124        0.6621  -19.6897  -55.5497 C.3       23 UNK        -0.0398 
    125 S125       -0.1600  -19.6603  -53.9160 S.3       23 UNK        -0.2404 
    126 C126        0.6691  -18.2388  -53.1448 C.3       23 UNK        -0.0205 
    127 H127        2.3007  -13.1315  -54.1999 H         1 UNK         0.0600 
    128 H128        2.9980  -11.9751  -53.0603 H         1 UNK         0.0600 
    129 H129        1.3019  -11.8375  -53.5320 H         1 UNK         0.0600 
    130 H130       -0.0684  -12.5461  -51.9259 H         1 UNK         0.3000 
    131 H131        0.2604  -15.0908  -50.6227 H         1 UNK         0.0600 
    132 H132       -1.8091  -12.8796  -50.2120 H         1 UNK         0.0800 
    133 H133       -1.9817  -14.2476  -51.2741 H         1 UNK         0.0800 
    134 H134       -3.2451  -16.3199  -50.6373 H         1 UNK         0.0800 
    135 H135       -3.2390  -17.0549  -49.0545 H         1 UNK         0.0800 
    136 H136       -1.5866  -17.0454  -52.2049 H         1 UNK         0.1150 
    137 H137        1.9754  -19.0341  -50.8878 H         1 UNK         0.1150 
    138 H138       -0.8574  -17.5901  -48.0157 H         1 UNK         0.1150 
    139 H139        1.2357  -18.4312  -47.2531 H         1 UNK         0.0800 
    140 H140        2.5711  -18.5035  -48.3768 H         1 UNK         0.0800 
    141 H141       -0.7489  -20.7971  -48.5477 H         1 UNK         0.0800 
    142 H142       -0.4832  -20.2855  -46.8926 H         1 UNK         0.0800 
    143 H143       -0.0581  -23.1186  -47.9682 H         1 UNK         0.0600 
    144 H144        0.7053  -21.9995  -45.4193 H         1 UNK         0.3000 
    145 H145        0.9929  -25.1504  -43.7454 H         1 UNK         0.0600 
    146 H146        3.0754  -25.0756  -45.1292 H         1 UNK         0.0600 
    147 H147        3.3672  -24.4727  -43.5057 H         1 UNK         0.0600 
    148 H148        3.2107  -23.3432  -44.8522 H         1 UNK         0.0600 
    149 H149        1.8009  -22.5567  -42.9553 H         1 UNK         0.3000 
    150 H150       -1.2485  -21.0685  -42.1836 H         1 UNK         0.0600 
    151 H151        0.5652  -22.3650  -40.0775 H         1 UNK         0.0600 
    152 H152       -1.1750  -22.5986  -40.2047 H         1 UNK         0.0600 
    153 H153       -0.5335  -21.0120  -39.8084 H         1 UNK         0.0600 
    154 H154        1.3616  -20.3629  -41.3401 H         1 UNK         0.3000 
    155 H155        3.1423  -19.6312  -43.0753 H         1 UNK         0.0600 
    156 H156        3.3834  -17.6994  -44.6151 H         1 UNK         0.0600 
    157 H157        1.6463  -17.6980  -44.9177 H         1 UNK         0.0600 
    158 H158        2.6399  -19.0639  -45.4248 H         1 UNK         0.0600 
    159 H159        1.9602  -17.0561  -42.5665 H         1 UNK         0.3000 
    160 H160        1.2810  -16.7181  -39.8410 H         1 UNK         0.0600 
    161 H161        4.1349  -17.2548  -38.8664 H         1 UNK         0.0600 
    162 H162        2.6435  -17.8011  -38.1168 H         1 UNK         0.0600 
    163 H163        3.0247  -16.0876  -38.1486 H         1 UNK         0.0600 
    164 H164        2.0417  -14.9944  -40.9701 H         1 UNK         0.3000 
    165 H165        4.9257  -13.5719  -41.7856 H         1 UNK         0.0600 
    166 H166        4.7356  -13.7697  -44.2909 H         1 UNK         0.0600 
    167 H167        5.6144  -15.1117  -43.5751 H         1 UNK         0.0600 
    168 H168        3.9470  -15.3348  -44.0853 H         1 UNK         0.0600 
    169 H169        2.3742  -13.5995  -43.2225 H         1 UNK         0.3000 
    170 H170        0.8082  -11.3700  -40.8855 H         1 UNK         0.0600 
    171 H171        0.4510  -10.0802  -42.9566 H         1 UNK         0.0600 
    172 H172        1.6672  -11.0342  -43.8066 H         1 UNK         0.0600 
    173 H173        2.1395   -9.9683  -42.4880 H         1 UNK         0.0600 
    174 H174       -0.3824  -12.3700  -43.1396 H         1 UNK         0.3000 
    175 H175       -1.4355  -15.5237  -42.4172 H         1 UNK         0.0600 
    176 H176       -2.5658  -14.7489  -40.3676 H         1 UNK         0.0600 
    177 H177       -3.0313  -13.2454  -41.1537 H         1 UNK         0.0600 
    178 H178       -3.6920  -14.7817  -41.7136 H         1 UNK         0.0600 
    179 H179       -2.6424  -13.0822  -43.5252 H         1 UNK         0.3000 
    180 H180       -0.0558  -15.6014  -44.1260 H         1 UNK         0.0600 
    181 H181       -2.1111  -16.5594  -46.1915 H         1 UNK         0.0600 
    182 H182       -2.1598  -16.9015  -44.4686 H         1 UNK         0.0600 
    183 H183       -0.8574  -17.5546  -45.4472 H         1 UNK         0.0600 
    184 H184       -0.0202  -15.5290  -47.0339 H         1 UNK         0.3000 
    185 H185        2.6541  -13.3147  -47.3177 H         1 UNK         0.0600 
    186 H186        4.0006  -15.2596  -48.1912 H         1 UNK         0.0600 
    187 H187        4.0756  -15.1186  -46.4463 H         1 UNK         0.0600 
    188 H188        3.0569  -16.3513  -47.1771 H         1 UNK         0.0600 
    189 H189        1.5191  -15.4689  -48.9368 H         1 UNK         0.3000 
    190 H190       -1.7982  -22.2511  -45.0110 H         1 UNK         0.3000 
    191 H191       -4.4545  -22.4704  -46.2011 H         1 UNK         0.0600 
    192 H192       -4.0551  -21.0260  -44.2145 H         1 UNK         0.0600 
    193 H193       -5.2321  -22.2828  -43.8660 H         1 UNK         0.0600 
    194 H194       -3.5898  -22.4338  -43.2616 H         1 UNK         0.0600 
    195 H195       -2.2849  -24.5390  -44.2364 H         1 UNK         0.3000 
    196 H196       -3.9621  -26.8043  -44.0458 H         1 UNK         0.0600 
    197 H197       -1.8658  -27.9911  -43.4368 H         1 UNK         0.0600 
    198 H198       -1.9390  -26.4259  -42.6398 H         1 UNK         0.0600 
    199 H199       -0.9010  -26.6532  -44.0459 H         1 UNK         0.0600 
    200 H200       -1.5219  -25.9467  -46.5357 H         1 UNK         0.3000 
    201 H201       -1.9396  -28.3022  -48.1531 H         1 UNK         0.0600 
    202 H202       -0.4909  -27.0591  -49.7609 H         1 UNK         0.0600 
    203 H203        0.1893  -27.0076  -48.1432 H         1 UNK         0.0600 
    204 H204       -0.6432  -25.5965  -48.7942 H         1 UNK         0.0600 
    205 H205       -3.8433  -25.5285  -47.7073 H         1 UNK         0.3000 
    206 H206       -5.5859  -24.5799  -48.6249 H         1 UNK         0.0600 
    207 H207       -6.4793  -26.9019  -48.9426 H         1 UNK         0.0600 
    208 H208       -7.0798  -25.7792  -50.1509 H         1 UNK         0.0600 
    209 H209       -5.8206  -26.9243  -50.5789 H         1 UNK         0.0600 
    210 H210       -2.7878  -24.3068  -49.8286 H         1 UNK         0.3000 
    211 H211       -3.0789  -23.3393  -52.5316 H         1 UNK         0.0600 
    212 H212       -0.9326  -22.7960  -50.4027 H         1 UNK         0.0600 
    213 H213       -0.8049  -22.3861  -52.1081 H         1 UNK         0.0600 
    214 H214       -0.8827  -24.0723  -51.6180 H         1 UNK         0.0600 
    215 H215       -3.2252  -21.8842  -49.2804 H         1 UNK         0.3000 
    216 H216       -3.5798  -19.1628  -50.1828 H         1 UNK         0.0600 
    217 H217       -4.2537  -18.7928  -47.7623 H         1 UNK         0.0600 
    218 H218       -2.7113  -19.6076  -47.9228 H         1 UNK         0.0600 
    219 H219       -4.1565  -20.5231  -47.4943 H         1 UNK         0.0600 
    220 H220       -5.7662  -21.8595  -49.6025 H         1 UNK         0.3000 
    221 H221       -8.2156  -20.2997  -49.6055 H         1 UNK         0.0600 
    222 H222       -7.7702  -23.3148  -49.9415 H         1 UNK         0.0600 
    223 H223       -8.0581  -22.4818  -48.4148 H         1 UNK         0.0600 
    224 H224       -9.3095  -22.5218  -49.6469 H         1 UNK         0.0600 
    225 H225       -6.4494  -22.3385  -51.9837 H         1 UNK         0.3000 
    226 H226       -8.2345  -21.8759  -54.1756 H         1 UNK         0.0600 
    227 H227       -6.3528  -22.8458  -55.5152 H         1 UNK         0.0600 
    228 H228       -5.2927  -22.7452  -54.1123 H         1 UNK         0.0600 
    229 H229       -6.6931  -23.8123  -54.0875 H         1 UNK         0.0600 
    230 H230       -5.1712  -20.3390  -53.1581 H         1 UNK         0.3000 
    231 H231       -4.1302  -18.4729  -53.5564 H         1 UNK         0.0600 
    232 H232       -6.7385  -17.3088  -54.6578 H         1 UNK         0.0600 
    233 H233       -5.3463  -16.4043  -54.0808 H         1 UNK         0.0600 
    234 H234       -6.2898  -17.3634  -52.9528 H         1 UNK         0.0600 
    235 H235       -4.5564  -20.5483  -55.7794 H         1 UNK         0.3000 
    236 H236       -4.3703  -19.3232  -58.3106 H         1 UNK         0.0600 
    237 H237       -3.3851  -22.0710  -57.3665 H         1 UNK         0.0600 
    238 H238       -5.0043  -21.6968  -57.9587 H         1 UNK         0.0600 
    239 H239       -3.6271  -21.5981  -59.0441 H         1 UNK         0.0600 
    240 H240       -1.9116  -19.8339  -55.8875 H         1 UNK         0.3000 
    241 H241        0.3551  -19.2684  -57.6181 H         1 UNK         0.0600 
    242 H242       -1.0575  -15.7040  -56.4635 H         1 UNK         0.3800 
    243 H243       -2.0697  -17.1236  -56.4391 H         1 UNK         0.3800 
    244 H244        1.6674  -19.2721  -55.4721 H         1 UNK         0.0800 
    245 H245        0.8104  -20.7382  -55.8111 H         1 UNK         0.0800 
    246 H246        1.7506  -18.3724  -53.1982 H         1 UNK         0.0800 
    247 H247        0.4416  -17.3304  -53.7039 H         1 UNK         0.0800 
@<TRIPOS>BOND
     1    1    2 1    
     2    1  127 1    
     3    1  128 1    
     4    1  129 1    
     5    2    3 2    
     6    2    4 am   BACKBONE|DICT|INTERRES
     7    4    5 1    
     8    4  130 1    
     9    5    6 1    
    10    5   65 1    
    11    5  131 1    
    12    6    7 1    
    13    6  132 1    
    14    6  133 1    
    15    7    8 1    
    16    8    9 1    
    17    8  134 1    
    18    8  135 1    
    19    9   10 ar   
    20    9   14 ar   
    21   10   11 ar   
    22   10  136 1    
    23   11   12 ar   
    24   11  126 1    
    25   12   13 ar   
    26   12  137 1    
    27   13   14 ar   
    28   13   15 1    
    29   14  138 1    
    30   15   16 1    
    31   15  139 1    
    32   15  140 1    
    33   16   17 1    
    34   17   18 1    
    35   17  141 1    
    36   17  142 1    
    37   18   19 1    
    38   18   67 1    
    39   18  143 1    
    40   19   20 am   BACKBONE|DICT|INTERRES
    41   19  144 1    
    42   20   21 2    
    43   20   22 1    
    44   22   23 1    
    45   22   24 1    
    46   22  145 1    
    47   23  146 1    
    48   23  147 1    
    49   23  148 1    
    50   24   25 am   BACKBONE|DICT|INTERRES
    51   24  149 1    
    52   25   26 2    
    53   25   27 1    
    54   27   28 1    
    55   27   29 1    
    56   27  150 1    
    57   28  151 1    
    58   28  152 1    
    59   28  153 1    
    60   29   30 am   BACKBONE|DICT|INTERRES
    61   29  154 1    
    62   30   31 2    
    63   30   32 1    
    64   32   33 1    
    65   32   34 1    
    66   32  155 1    
    67   33  156 1    
    68   33  157 1    
    69   33  158 1    
    70   34   35 am   BACKBONE|DICT|INTERRES
    71   34  159 1    
    72   35   36 2    
    73   35   37 1    
    74   37   38 1    
    75   37   39 1    
    76   37  160 1    
    77   38  161 1    
    78   38  162 1    
    79   38  163 1    
    80   39   40 am   BACKBONE|DICT|INTERRES
    81   39  164 1    
    82   40   41 2    
    83   40   42 1    
    84   42   43 1    
    85   42   44 1    
    86   42  165 1    
    87   43  166 1    
    88   43  167 1    
    89   43  168 1    
    90   44   45 am   BACKBONE|DICT|INTERRES
    91   44  169 1    
    92   45   46 2    
    93   45   47 1    
    94   47   48 1    
    95   47   49 1    
    96   47  170 1    
    97   48  171 1    
    98   48  172 1    
    99   48  173 1    
   100   49   50 am   BACKBONE|DICT|INTERRES
   101   49  174 1    
   102   50   51 2    
   103   50   52 1    
   104   52   53 1    
   105   52   54 1    
   106   52  175 1    
   107   53  176 1    
   108   53  177 1    
   109   53  178 1    
   110   54   55 am   BACKBONE|DICT|INTERRES
   111   54  179 1    
   112   55   56 2    
   113   55   57 1    
   114   57   58 1    
   115   57   59 1    
   116   57  180 1    
   117   58  181 1    
   118   58  182 1    
   119   58  183 1    
   120   59   60 am   BACKBONE|DICT|INTERRES
   121   59  184 1    
   122   60   61 2    
   123   60   62 1    
   124   62   63 1    
   125   62   64 1    
   126   62  185 1    
   127   63  186 1    
   128   63  187 1    
   129   63  188 1    
   130   64   65 am   BACKBONE|DICT|INTERRES
   131   64  189 1    
   132   65   66 2    
   133   67   68 2    
   134   67   69 am   BACKBONE|DICT|INTERRES
   135   69   70 1    
   136   69  190 1    
   137   70   71 1    
   138   70   72 1    
   139   70  191 1    
   140   71  192 1    
   141   71  193 1    
   142   71  194 1    
   143   72   73 2    
   144   72   74 am   BACKBONE|DICT|INTERRES
   145   74   75 1    
   146   74  195 1    
   147   75   76 1    
   148   75   77 1    
   149   75  196 1    
   150   76  197 1    
   151   76  198 1    
   152   76  199 1    
   153   77   78 2    
   154   77   79 am   BACKBONE|DICT|INTERRES
   155   79   80 1    
   156   79  200 1    
   157   80   81 1    
   158   80   82 1    
   159   80  201 1    
   160   81  202 1    
   161   81  203 1    
   162   81  204 1    
   163   82   83 2    
   164   82   84 am   BACKBONE|DICT|INTERRES
   165   84   85 1    
   166   84  205 1    
   167   85   86 1    
   168   85   87 1    
   169   85  206 1    
   170   86  207 1    
   171   86  208 1    
   172   86  209 1    
   173   87   88 2    
   174   87   89 am   BACKBONE|DICT|INTERRES
   175   89   90 1    
   176   89  210 1    
   177   90   91 1    
   178   90   92 1    
   179   90  211 1    
   180   91  212 1    
   181   91  213 1    
   182   91  214 1    
   183   92   93 2    
   184   92   94 am   BACKBONE|DICT|INTERRES
   185   94   95 1    
   186   94  215 1    
   187   95   96 1    
   188   95   97 1    
   189   95  216 1    
   190   96  217 1    
   191   96  218 1    
   192   96  219 1    
   193   97   98 2    
   194   97   99 am   BACKBONE|DICT|INTERRES
   195   99  100 1    
   196   99  220 1    
   197  100  101 1    
   198  100  102 1    
   199  100  221 1    
   200  101  222 1    
   201  101  223 1    
   202  101  224 1    
   203  102  103 2    
   204  102  104 am   BACKBONE|DICT|INTERRES
   205  104  105 1    
   206  104  225 1    
   207  105  106 1    
   208  105  107 1    
   209  105  226 1    
   210  106  227 1    
   211  106  228 1    
   212  106  229 1    
   213  107  108 2    
   214  107  109 am   BACKBONE|DICT|INTERRES
   215  109  110 1    
   216  109  230 1    
   217  110  111 1    
   218  110  112 1    
   219  110  231 1    
   220  111  232 1    
   221  111  233 1    
   222  111  234 1    
   223  112  113 2    
   224  112  114 am   BACKBONE|DICT|INTERRES
   225  114  115 1    
   226  114  235 1    
   227  115  116 1    
   228  115  117 1    
   229  115  236 1    
   230  116  237 1    
   231  116  238 1    
   232  116  239 1    
   233  117  118 2    
   234  117  119 am   BACKBONE|DICT|INTERRES
   235  119  120 1    
   236  119  240 1    
   237  120  121 1    
   238  120  124 1    
   239  120  241 1    
   240  121  122 am   BACKBONE|DICT|INTERRES
   241  121  123 2    
   242  122  242 1    
   243  122  243 1    
   244  124  125 1    
   245  124  244 1    
   246  124  245 1    
   247  125  126 1    
   248  126  246 1    
   249  126  247 1    
@<TRIPOS>SUBSTRUCTURE
     1 UNK         1 GROUP             0       ****    0 ROOT    
