@<TRIPOS>MOLECULE
3R540
247   249    1
SMALL
USER_CHARGES


@<TRIPOS>ATOM
      1 CA          8.7708  -14.0864  -48.1952 C.3       0 UNK        -0.1800 
      2 C           8.4559  -15.2842  -49.0903 C.2       0 UNK         0.5000 
      3 O           9.3780  -15.8808  -49.6435 O.2       0 UNK        -0.5000 
      4 N           7.1885  -15.6875  -49.2536 N.am      1 UNK        -0.5000 
      5 CA          5.9719  -15.0378  -48.7540 C.3       1 UNK         0.1400 
      6 C6          4.7348  -15.9749  -48.8341 C.3       23 UNK        -0.0398 
      7 S7          4.4925  -16.7960  -50.4504 S.3       23 UNK        -0.2404 
      8 C8          3.1809  -15.7817  -51.2030 C.3       23 UNK        -0.0205 
      9 C9          1.7879  -16.2113  -50.7663 C.ar      23 UNK        -0.0193 
     10 C10         1.0563  -15.4436  -49.8541 C.ar      23 UNK        -0.1150 
     11 C11        -0.2556  -15.7963  -49.5215 C.ar      23 UNK        -0.0193 
     12 C12        -0.8214  -16.9425  -50.0843 C.ar      23 UNK        -0.1150 
     13 C13        -0.0981  -17.7243  -50.9884 C.ar      23 UNK        -0.0193 
     14 C14         1.2050  -17.3517  -51.3277 C.ar      23 UNK        -0.1150 
     15 C15        -0.7408  -18.9489  -51.6244 C.3       23 UNK        -0.0205 
     16 S16        -0.0512  -20.5140  -50.9981 S.3       23 UNK        -0.2404 
     17 C17        -0.3322  -20.3454  -49.2056 C.3       23 UNK        -0.0398 
     18 CA         -0.0890  -21.6657  -48.4357 C.3       11 UNK         0.1400 
     19 N           0.2920  -21.4237  -47.0432 N.am      11 UNK        -0.5000 
     20 C           0.7385  -22.3629  -46.1978 C.2       10 UNK         0.5000 
     21 O           0.9034  -23.5428  -46.5079 O.2       10 UNK        -0.5000 
     22 CA          1.0043  -21.9190  -44.7489 C.3       10 UNK         0.1400 
     23 CB          2.3502  -21.1873  -44.6398 C.3       10 UNK        -0.1800 
     24 N          -0.0646  -21.0752  -44.2124 N.am      10 UNK        -0.5000 
     25 C          -1.3314  -21.4799  -44.0400 C.2       9 UNK         0.5000 
     26 O          -1.7263  -22.6179  -44.2909 O.2       9 UNK        -0.5000 
     27 CA         -2.3391  -20.4297  -43.5431 C.3       9 UNK         0.1400 
     28 CB         -2.1980  -20.2098  -42.0297 C.3       9 UNK        -0.1800 
     29 N          -2.2163  -19.1507  -44.2402 N.am      9 UNK        -0.5000 
     30 C          -2.4049  -18.9761  -45.5561 C.2       8 UNK         0.5000 
     31 O          -2.7201  -19.8736  -46.3377 O.2       8 UNK        -0.5000 
     32 CA         -2.1465  -17.5629  -46.1008 C.3       8 UNK         0.1400 
     33 CB         -3.2779  -16.6105  -45.6897 C.3       8 UNK        -0.1800 
     34 N          -0.8647  -17.0136  -45.6625 N.am      8 UNK        -0.5000 
     35 C           0.3312  -17.5797  -45.8788 C.2       7 UNK         0.5000 
     36 O           0.4977  -18.6135  -46.5228 O.2       7 UNK        -0.5000 
     37 CA          1.5391  -16.9100  -45.2061 C.3       7 UNK         0.1400 
     38 CB          1.9992  -15.6775  -45.9993 C.3       7 UNK        -0.1800 
     39 N           1.2539  -16.5395  -43.8198 N.am      7 UNK        -0.5000 
     40 C           1.0201  -17.4187  -42.8336 C.2       6 UNK         0.5000 
     41 O           1.0640  -18.6402  -42.9770 O.2       6 UNK        -0.5000 
     42 CA          0.6244  -16.8287  -41.4685 C.3       6 UNK         0.1400 
     43 CB          1.8682  -16.3719  -40.6917 C.3       6 UNK        -0.1800 
     44 N          -0.3070  -15.7077  -41.6002 N.am      6 UNK        -0.5000 
     45 C          -1.5661  -15.8191  -42.0478 C.2       5 UNK         0.5000 
     46 O          -2.0913  -16.8908  -42.3481 O.2       5 UNK        -0.5000 
     47 CA         -2.3488  -14.5054  -42.2373 C.3       5 UNK         0.1400 
     48 CB         -3.0346  -14.0909  -40.9271 C.3       5 UNK        -0.1800 
     49 N          -1.5040  -13.4066  -42.7158 N.am      5 UNK        -0.5000 
     50 C          -0.8973  -13.3881  -43.9091 C.2       4 UNK         0.5000 
     51 O          -1.0116  -14.2832  -44.7517 O.2       4 UNK        -0.5000 
     52 CA          0.0447  -12.2098  -44.1823 C.3       4 UNK         0.1400 
     53 CB          1.3905  -12.4420  -43.4629 C.3       4 UNK        -0.1800 
     54 N           0.2396  -12.1110  -45.6258 N.am      4 UNK        -0.5000 
     55 C           0.8901  -11.1405  -46.2724 C.2       3 UNK         0.5000 
     56 O           1.4019  -10.1637  -45.7200 O.2       3 UNK        -0.5000 
     57 CA          1.0172  -11.2898  -47.7924 C.3       3 UNK         0.1400 
     58 CB          0.1326  -10.2775  -48.5402 C.3       3 UNK        -0.1800 
     59 N           2.4217  -11.0941  -48.1268 N.am      3 UNK        -0.5000 
     60 C           3.0457  -11.6030  -49.1928 C.2       2 UNK         0.5000 
     61 O           2.4710  -12.2040  -50.0999 O.2       2 UNK        -0.5000 
     62 CA          4.5783  -11.4903  -49.2240 C.3       2 UNK         0.1400 
     63 CB          5.1411  -10.3341  -48.3725 C.3       2 UNK        -0.1800 
     64 N           5.1028  -12.7566  -48.7204 N.am      2 UNK        -0.5000 
     65 C           5.7021  -13.6927  -49.4636 C.2       1 UNK         0.5000 
     66 O           6.0168  -13.5404  -50.6465 O.2       1 UNK        -0.5000 
     67 C          -1.2918  -22.6246  -48.5356 C.2       11 UNK         0.5000 
     68 O          -1.2360  -23.5891  -49.2985 O.2       11 UNK        -0.5000 
     69 N          -2.3311  -22.3805  -47.7228 N.am      12 UNK        -0.5000 
     70 CA         -3.5137  -23.2341  -47.6152 C.3       12 UNK         0.1400 
     71 CB         -4.5606  -22.5681  -46.7116 C.3       12 UNK        -0.1800 
     72 C          -3.1873  -24.6552  -47.1276 C.2       12 UNK         0.5000 
     73 O          -3.7115  -25.6132  -47.6936 O.2       12 UNK        -0.5000 
     74 N          -2.3070  -24.7763  -46.1251 N.am      13 UNK        -0.5000 
     75 CA         -1.8214  -26.0564  -45.6091 C.3       13 UNK         0.1400 
     76 CB         -0.9920  -25.8247  -44.3370 C.3       13 UNK        -0.1800 
     77 C          -1.0152  -26.8501  -46.6533 C.2       13 UNK         0.5000 
     78 O          -1.2430  -28.0505  -46.8067 O.2       13 UNK        -0.5000 
     79 N          -0.1133  -26.1641  -47.3695 N.am      14 UNK        -0.5000 
     80 CA          0.7208  -26.7395  -48.4258 C.3       14 UNK         0.1400 
     81 CB          1.7961  -25.7226  -48.8386 C.3       14 UNK        -0.1800 
     82 C          -0.0885  -27.1995  -49.6522 C.2       14 UNK         0.5000 
     83 O           0.1801  -28.2745  -50.1898 O.2       14 UNK        -0.5000 
     84 N          -1.0672  -26.3848  -50.0656 N.am      15 UNK        -0.5000 
     85 CA         -1.9266  -26.6403  -51.2226 C.3       15 UNK         0.1400 
     86 CB         -2.4627  -25.2967  -51.7337 C.3       15 UNK        -0.1800 
     87 C          -3.1003  -27.5943  -50.9301 C.2       15 UNK         0.5000 
     88 O          -3.7919  -27.9838  -51.8703 O.2       15 UNK        -0.5000 
     89 N          -3.3369  -27.9176  -49.6502 N.am      16 UNK        -0.5000 
     90 CA         -4.4740  -28.6858  -49.1293 C.3       16 UNK         0.1400 
     91 CB         -4.4302  -30.1492  -49.6167 C.3       16 UNK        -0.1800 
     92 C          -5.8175  -27.9803  -49.4162 C.2       16 UNK         0.5000 
     93 O          -6.7430  -28.5820  -49.9630 O.2       16 UNK        -0.5000 
     94 N          -5.8656  -26.6908  -49.0541 N.am      17 UNK        -0.5000 
     95 CA         -6.9771  -25.7397  -49.1713 C.3       17 UNK         0.1400 
     96 CB         -8.2213  -26.2373  -48.4069 C.3       17 UNK        -0.1800 
     97 C          -7.3109  -25.2980  -50.6129 C.2       17 UNK         0.5000 
     98 O          -8.2980  -24.5875  -50.8063 O.2       17 UNK        -0.5000 
     99 N          -6.4842  -25.6804  -51.5966 N.am      18 UNK        -0.5000 
    100 CA        -6.6434  -25.2989  -53.0043 C.3       18 UNK         0.1400 
    101 CB        -5.9897  -26.3719  -53.8889 C.3       18 UNK        -0.1800 
    102 C         -6.0721  -23.9024  -53.3318 C.2       18 UNK         0.5000 
    103 O         -6.3192  -23.3949  -54.4269 O.2       18 UNK        -0.5000 
    104 N         -5.3055  -23.3142  -52.4027 N.am      19 UNK        -0.5000 
    105 CA        -4.6978  -21.9890  -52.5293 C.3       19 UNK         0.1400 
    106 CB        -3.6719  -21.7983  -51.4000 C.3       19 UNK        -0.1800 
    107 C         -5.7319  -20.8498  -52.4750 C.2       19 UNK         0.5000 
    108 O         -6.7961  -21.0034  -51.8713 O.2       19 UNK        -0.5000 
    109 N         -5.3572  -19.6976  -53.0474 N.am      20 UNK        -0.5000 
    110 CA        -6.1116  -18.4428  -52.9607 C.3       20 UNK         0.1400 
    111 CB        -5.5663  -17.4581  -54.0065 C.3       20 UNK        -0.1800 
    112 C         -6.0661  -17.8076  -51.5555 C.2       20 UNK         0.5000 
    113 O         -6.9564  -17.0262  -51.2176 O.2       20 UNK        -0.5000 
    114 N         -5.0247  -18.1458  -50.7755 N.am      21 UNK        -0.5000 
    115 CA        -4.8064  -17.7849  -49.3683 C.3       21 UNK         0.1400 
    116 CB        -5.7862  -18.5678  -48.4708 C.3       21 UNK        -0.1800 
    117 C         -4.8331  -16.2620  -49.1048 C.2       21 UNK         0.5000 
    118 O         -5.3212  -15.8265  -48.0624 O.2       21 UNK        -0.5000 
    119 N         -4.3321  -15.4792  -50.0722 N.am      22 UNK        -0.5000 
    120 CA        -4.3709  -14.0041  -50.0937 C.3       22 UNK         0.1400 
    121 C         -5.8088  -13.3891  -50.1273 C.2       22 UNK         0.5000 
    122 N         -6.8507  -14.1399  -50.4684 N.am      22 UNK        -0.7600 
    123 O         -5.9866  -12.1987  -49.8828 O.2       22 UNK        -0.5000 
    124 C124       -3.4445  -13.3617  -49.0157 C.3       23 UNK        -0.0398 
    125 S125       -1.6839  -13.4511  -49.4890 S.3       23 UNK        -0.2404 
    126 C126       -1.0810  -14.9162  -48.5962 C.3       23 UNK        -0.0205 
    127 H127        8.2756  -14.1684  -47.2281 H         1 UNK         0.0600 
    128 H128        8.4651  -13.1555  -48.6724 H         1 UNK         0.0600 
    129 H129        9.8430  -14.0252  -48.0074 H         1 UNK         0.0600 
    130 H130        7.0114  -16.4664  -49.8721 H         1 UNK         0.3000 
    131 H131        6.1297  -14.8225  -47.6957 H         1 UNK         0.0600 
    132 H132        3.8251  -15.4417  -48.5569 H         1 UNK         0.0800 
    133 H133        4.8419  -16.7652  -48.0899 H         1 UNK         0.0800 
    134 H134        3.2541  -15.8736  -52.2875 H         1 UNK         0.0800 
    135 H135        3.3479  -14.7264  -50.9836 H         1 UNK         0.0800 
    136 H136        1.4901  -14.5482  -49.4330 H         1 UNK         0.1150 
    137 H137       -1.8346  -17.2133  -49.8348 H         1 UNK         0.1150 
    138 H138        1.7632  -17.9452  -52.0383 H         1 UNK         0.1150 
    139 H139       -1.8183  -18.9395  -51.4621 H         1 UNK         0.0800 
    140 H140       -0.5968  -18.9090  -52.7050 H         1 UNK         0.0800 
    141 H141       -1.3271  -19.9404  -49.0109 H         1 UNK         0.0800 
    142 H142        0.3738  -19.5872  -48.8669 H         1 UNK         0.0800 
    143 H143        0.7636  -22.1713  -48.8947 H         1 UNK         0.0600 
    144 H144        0.2182  -20.4634  -46.7152 H         1 UNK         0.3000 
    145 H145        1.0577  -22.8186  -44.1324 H         1 UNK         0.0600 
    146 H146        2.5873  -20.9530  -43.6019 H         1 UNK         0.0600 
    147 H147        2.3478  -20.2525  -45.2009 H         1 UNK         0.0600 
    148 H148        3.1626  -21.8028  -45.0282 H         1 UNK         0.0600 
    149 H149        0.1923  -20.1283  -43.9498 H         1 UNK         0.3000 
    150 H150       -3.3416  -20.8161  -43.7376 H         1 UNK         0.0600 
    151 H151       -2.2944  -21.1508  -41.4867 H         1 UNK         0.0600 
    152 H152       -2.9711  -19.5379  -41.6563 H         1 UNK         0.0600 
    153 H153       -1.2297  -19.7786  -41.7734 H         1 UNK         0.0600 
    154 H154       -1.9879  -18.3438  -43.6667 H         1 UNK         0.3000 
    155 H155       -2.1260  -17.6307  -47.1896 H         1 UNK         0.0600 
    156 H156       -3.3044  -16.4528  -44.6135 H         1 UNK         0.0600 
    157 H157       -4.2499  -17.0121  -45.9737 H         1 UNK         0.0600 
    158 H158       -3.1728  -15.6347  -46.1629 H         1 UNK         0.0600 
    159 H159       -0.9020  -16.1359  -45.1516 H         1 UNK         0.3000 
    160 H160        2.3572  -17.6334  -45.2024 H         1 UNK         0.0600 
    161 H161        1.2664  -14.8730  -45.9671 H         1 UNK         0.0600 
    162 H162        2.1526  -15.9335  -47.0472 H         1 UNK         0.0600 
    163 H163        2.9416  -15.2886  -45.6139 H         1 UNK         0.0600 
    164 H164        1.1572  -15.5563  -43.6215 H         1 UNK         0.3000 
    165 H165        0.1320  -17.6164  -40.8940 H         1 UNK         0.0600 
    166 H166        1.6027  -16.0219  -39.6940 H         1 UNK         0.0600 
    167 H167        2.5745  -17.1941  -40.5691 H         1 UNK         0.0600 
    168 H168        2.3913  -15.5629  -41.2033 H         1 UNK         0.0600 
    169 H169        0.0423  -14.7909  -41.3649 H         1 UNK         0.3000 
    170 H170       -3.1244  -14.6842  -42.9845 H         1 UNK         0.0600 
    171 H171       -3.6853  -14.8856  -40.5595 H         1 UNK         0.0600 
    172 H172       -2.3093  -13.8712  -40.1428 H         1 UNK         0.0600 
    173 H173       -3.6544  -13.2055  -41.0696 H         1 UNK         0.0600 
    174 H174       -1.3608  -12.6369  -42.0776 H         1 UNK         0.3000 
    175 H175       -0.4223  -11.2916  -43.8207 H         1 UNK         0.0600 
    176 H176        1.9091  -13.3184  -43.8529 H         1 UNK         0.0600 
    177 H177        2.0576  -11.5874  -43.5714 H         1 UNK         0.0600 
    178 H178        1.2475  -12.5934  -42.3924 H         1 UNK         0.0600 
    179 H179       -0.1830  -12.8762  -46.1363 H         1 UNK         0.3000 
    180 H180        0.7222  -12.3024  -48.0740 H         1 UNK         0.0600 
    181 H181        0.2066  -10.4112  -49.6195 H         1 UNK         0.0600 
    182 H182        0.4130   -9.2494  -48.3086 H         1 UNK         0.0600 
    183 H183       -0.9163  -10.4043  -48.2698 H         1 UNK         0.0600 
    184 H184        2.9571  -10.6158  -47.4136 H         1 UNK         0.3000 
    185 H185        4.8719  -11.3221  -50.2623 H         1 UNK         0.0600 
    186 H186        4.9564  -10.4730  -47.3067 H         1 UNK         0.0600 
    187 H187        6.2195  -10.2480  -48.5070 H         1 UNK         0.0600 
    188 H188        4.7036   -9.3796  -48.6683 H         1 UNK         0.0600 
    189 H189        4.8673  -12.9724  -47.7620 H         1 UNK         0.3000 
    190 H190       -2.3152  -21.5551  -47.1284 H         1 UNK         0.3000 
    191 H191       -3.9442  -23.3305  -48.6129 H         1 UNK         0.0600 
    192 H192       -4.8668  -21.6013  -47.1115 H         1 UNK         0.0600 
    193 H193       -4.1767  -22.4055  -45.7040 H         1 UNK         0.0600 
    194 H194       -5.4564  -23.1848  -46.6284 H         1 UNK         0.0600 
    195 H195       -1.9565  -23.9379  -45.6694 H         1 UNK         0.3000 
    196 H196       -2.6922  -26.6570  -45.3380 H         1 UNK         0.0600 
    197 H197       -1.5897  -25.3486  -43.5597 H         1 UNK         0.0600 
    198 H198       -0.1272  -25.1891  -44.5290 H         1 UNK         0.0600 
    199 H199       -0.6241  -26.7683  -43.9322 H         1 UNK         0.0600 
    200 H200        0.0386  -25.1819  -47.1565 H         1 UNK         0.3000 
    201 H201        1.2249  -27.6161  -48.0136 H         1 UNK         0.0600 
    202 H202        2.4346  -25.4610  -47.9947 H         1 UNK         0.0600 
    203 H203        1.3535  -24.8015  -49.2198 H         1 UNK         0.0600 
    204 H204        2.4396  -26.1277  -49.6205 H         1 UNK         0.0600 
    205 H205       -1.1888  -25.4873  -49.6021 H         1 UNK         0.3000 
    206 H206       -1.3271  -27.0905  -52.0165 H         1 UNK         0.0600 
    207 H207       -3.1126  -24.8281  -50.9942 H         1 UNK         0.0600 
    208 H208       -1.6485  -24.6063  -51.9549 H         1 UNK         0.0600 
    209 H209       -3.0375  -25.4205  -52.6513 H         1 UNK         0.0600 
    210 H210       -2.7327  -27.5078  -48.9500 H         1 UNK         0.3000 
    211 H211       -4.3602  -28.6991  -48.0442 H         1 UNK         0.0600 
    212 H212       -4.5862  -30.2281  -50.6928 H         1 UNK         0.0600 
    213 H213       -5.2059  -30.7427  -49.1317 H         1 UNK         0.0600 
    214 H214       -3.4721  -30.6128  -49.3819 H         1 UNK         0.0600 
    215 H215       -5.0305  -26.3117  -48.6056 H         1 UNK         0.3000 
    216 H216       -6.6324  -24.8364  -48.6660 H         1 UNK         0.0600 
    217 H217       -8.9811  -25.4574  -48.3453 H         1 UNK         0.0600 
    218 H218       -7.9691  -26.5221  -47.3855 H         1 UNK         0.0600 
    219 H219       -8.6802  -27.0982  -48.8934 H         1 UNK         0.0600 
    220 H220       -5.7168  -26.2993  -51.3748 H         1 UNK         0.3000 
    221 H221       -7.7085  -25.2767  -53.2448 H         1 UNK         0.0600 
    222 H222       -4.9092  -26.4048  -53.7537 H         1 UNK         0.0600 
    223 H223       -6.3855  -27.3632  -53.6670 H         1 UNK         0.0600 
    224 H224       -6.1794  -26.1757  -54.9449 H         1 UNK         0.0600 
    225 H225       -5.1910  -23.7841  -51.5192 H         1 UNK         0.3000 
    226 H226       -4.1773  -21.9423  -53.4882 H         1 UNK         0.0600 
    227 H227       -2.8699  -22.5315  -51.4560 H         1 UNK         0.0600 
    228 H228       -3.2002  -20.8191  -51.4595 H         1 UNK         0.0600 
    229 H229       -4.1368  -21.8721  -50.4171 H         1 UNK         0.0600 
    230 H230       -4.4779  -19.6579  -53.5427 H         1 UNK         0.3000 
    231 H231       -7.1577  -18.6504  -53.1957 H         1 UNK         0.0600 
    232 H232       -6.1219  -16.5194  -53.9864 H         1 UNK         0.0600 
    233 H233       -5.6554  -17.8641  -55.0143 H         1 UNK         0.0600 
    234 H234       -4.5162  -17.2216  -53.8305 H         1 UNK         0.0600 
    235 H235       -4.3477  -18.7776  -51.1740 H         1 UNK         0.3000 
    236 H236       -3.8024  -18.1233  -49.1126 H         1 UNK         0.0600 
    237 H237       -6.8168  -18.2456  -48.6236 H         1 UNK         0.0600 
    238 H238       -5.7364  -19.6375  -48.6747 H         1 UNK         0.0600 
    239 H239       -5.5513  -18.4320  -47.4150 H         1 UNK         0.0600 
    240 H240       -3.9761  -15.9175  -50.9084 H         1 UNK         0.3000 
    241 H241       -3.9684  -13.7261  -51.0685 H         1 UNK         0.0600 
    242 H242       -7.7669  -13.7220  -50.4981 H         1 UNK         0.3800 
    243 H243       -6.7487  -15.1281  -50.6770 H         1 UNK         0.3800 
    244 H244       -3.6022  -13.8013  -48.0306 H         1 UNK         0.0800 
    245 H245       -3.6592  -12.2991  -48.8962 H         1 UNK         0.0800 
    246 H246       -0.4839  -14.6062  -47.7387 H         1 UNK         0.0800 
    247 H247       -1.9237  -15.4785  -48.1979 H         1 UNK         0.0800 
@<TRIPOS>BOND
     1    1    2 1    
     2    1  127 1    
     3    1  128 1    
     4    1  129 1    
     5    2    3 2    
     6    2    4 am   BACKBONE|DICT|INTERRES
     7    4    5 1    
     8    4  130 1    
     9    5    6 1    
    10    5   65 1    
    11    5  131 1    
    12    6    7 1    
    13    6  132 1    
    14    6  133 1    
    15    7    8 1    
    16    8    9 1    
    17    8  134 1    
    18    8  135 1    
    19    9   10 ar   
    20    9   14 ar   
    21   10   11 ar   
    22   10  136 1    
    23   11   12 ar   
    24   11  126 1    
    25   12   13 ar   
    26   12  137 1    
    27   13   14 ar   
    28   13   15 1    
    29   14  138 1    
    30   15   16 1    
    31   15  139 1    
    32   15  140 1    
    33   16   17 1    
    34   17   18 1    
    35   17  141 1    
    36   17  142 1    
    37   18   19 1    
    38   18   67 1    
    39   18  143 1    
    40   19   20 am   BACKBONE|DICT|INTERRES
    41   19  144 1    
    42   20   21 2    
    43   20   22 1    
    44   22   23 1    
    45   22   24 1    
    46   22  145 1    
    47   23  146 1    
    48   23  147 1    
    49   23  148 1    
    50   24   25 am   BACKBONE|DICT|INTERRES
    51   24  149 1    
    52   25   26 2    
    53   25   27 1    
    54   27   28 1    
    55   27   29 1    
    56   27  150 1    
    57   28  151 1    
    58   28  152 1    
    59   28  153 1    
    60   29   30 am   BACKBONE|DICT|INTERRES
    61   29  154 1    
    62   30   31 2    
    63   30   32 1    
    64   32   33 1    
    65   32   34 1    
    66   32  155 1    
    67   33  156 1    
    68   33  157 1    
    69   33  158 1    
    70   34   35 am   BACKBONE|DICT|INTERRES
    71   34  159 1    
    72   35   36 2    
    73   35   37 1    
    74   37   38 1    
    75   37   39 1    
    76   37  160 1    
    77   38  161 1    
    78   38  162 1    
    79   38  163 1    
    80   39   40 am   BACKBONE|DICT|INTERRES
    81   39  164 1    
    82   40   41 2    
    83   40   42 1    
    84   42   43 1    
    85   42   44 1    
    86   42  165 1    
    87   43  166 1    
    88   43  167 1    
    89   43  168 1    
    90   44   45 am   BACKBONE|DICT|INTERRES
    91   44  169 1    
    92   45   46 2    
    93   45   47 1    
    94   47   48 1    
    95   47   49 1    
    96   47  170 1    
    97   48  171 1    
    98   48  172 1    
    99   48  173 1    
   100   49   50 am   BACKBONE|DICT|INTERRES
   101   49  174 1    
   102   50   51 2    
   103   50   52 1    
   104   52   53 1    
   105   52   54 1    
   106   52  175 1    
   107   53  176 1    
   108   53  177 1    
   109   53  178 1    
   110   54   55 am   BACKBONE|DICT|INTERRES
   111   54  179 1    
   112   55   56 2    
   113   55   57 1    
   114   57   58 1    
   115   57   59 1    
   116   57  180 1    
   117   58  181 1    
   118   58  182 1    
   119   58  183 1    
   120   59   60 am   BACKBONE|DICT|INTERRES
   121   59  184 1    
   122   60   61 2    
   123   60   62 1    
   124   62   63 1    
   125   62   64 1    
   126   62  185 1    
   127   63  186 1    
   128   63  187 1    
   129   63  188 1    
   130   64   65 am   BACKBONE|DICT|INTERRES
   131   64  189 1    
   132   65   66 2    
   133   67   68 2    
   134   67   69 am   BACKBONE|DICT|INTERRES
   135   69   70 1    
   136   69  190 1    
   137   70   71 1    
   138   70   72 1    
   139   70  191 1    
   140   71  192 1    
   141   71  193 1    
   142   71  194 1    
   143   72   73 2    
   144   72   74 am   BACKBONE|DICT|INTERRES
   145   74   75 1    
   146   74  195 1    
   147   75   76 1    
   148   75   77 1    
   149   75  196 1    
   150   76  197 1    
   151   76  198 1    
   152   76  199 1    
   153   77   78 2    
   154   77   79 am   BACKBONE|DICT|INTERRES
   155   79   80 1    
   156   79  200 1    
   157   80   81 1    
   158   80   82 1    
   159   80  201 1    
   160   81  202 1    
   161   81  203 1    
   162   81  204 1    
   163   82   83 2    
   164   82   84 am   BACKBONE|DICT|INTERRES
   165   84   85 1    
   166   84  205 1    
   167   85   86 1    
   168   85   87 1    
   169   85  206 1    
   170   86  207 1    
   171   86  208 1    
   172   86  209 1    
   173   87   88 2    
   174   87   89 am   BACKBONE|DICT|INTERRES
   175   89   90 1    
   176   89  210 1    
   177   90   91 1    
   178   90   92 1    
   179   90  211 1    
   180   91  212 1    
   181   91  213 1    
   182   91  214 1    
   183   92   93 2    
   184   92   94 am   BACKBONE|DICT|INTERRES
   185   94   95 1    
   186   94  215 1    
   187   95   96 1    
   188   95   97 1    
   189   95  216 1    
   190   96  217 1    
   191   96  218 1    
   192   96  219 1    
   193   97   98 2    
   194   97   99 am   BACKBONE|DICT|INTERRES
   195   99  100 1    
   196   99  220 1    
   197  100  101 1    
   198  100  102 1    
   199  100  221 1    
   200  101  222 1    
   201  101  223 1    
   202  101  224 1    
   203  102  103 2    
   204  102  104 am   BACKBONE|DICT|INTERRES
   205  104  105 1    
   206  104  225 1    
   207  105  106 1    
   208  105  107 1    
   209  105  226 1    
   210  106  227 1    
   211  106  228 1    
   212  106  229 1    
   213  107  108 2    
   214  107  109 am   BACKBONE|DICT|INTERRES
   215  109  110 1    
   216  109  230 1    
   217  110  111 1    
   218  110  112 1    
   219  110  231 1    
   220  111  232 1    
   221  111  233 1    
   222  111  234 1    
   223  112  113 2    
   224  112  114 am   BACKBONE|DICT|INTERRES
   225  114  115 1    
   226  114  235 1    
   227  115  116 1    
   228  115  117 1    
   229  115  236 1    
   230  116  237 1    
   231  116  238 1    
   232  116  239 1    
   233  117  118 2    
   234  117  119 am   BACKBONE|DICT|INTERRES
   235  119  120 1    
   236  119  240 1    
   237  120  121 1    
   238  120  124 1    
   239  120  241 1    
   240  121  122 am   BACKBONE|DICT|INTERRES
   241  121  123 2    
   242  122  242 1    
   243  122  243 1    
   244  124  125 1    
   245  124  244 1    
   246  124  245 1    
   247  125  126 1    
   248  126  246 1    
   249  126  247 1    
@<TRIPOS>SUBSTRUCTURE
     1 UNK         1 GROUP             0       ****    0 ROOT    
