@<TRIPOS>MOLECULE
3R540
247   249    1
SMALL
USER_CHARGES


@<TRIPOS>ATOM
      1 CA         -4.1855  -13.9425  -45.7766 C.3       0 UNK        -0.1800 
      2 C          -3.3689  -12.9730  -46.6160 C.2       0 UNK         0.5000 
      3 O          -3.6238  -11.7689  -46.5778 O.2       0 UNK        -0.5000 
      4 N          -2.3961  -13.4941  -47.3706 N.am      1 UNK        -0.5000 
      5 CA         -1.4142  -12.7150  -48.1305 C.3       1 UNK         0.1400 
      6 C6         -1.1671  -13.3080  -49.5456 C.3       23 UNK        -0.0398 
      7 S7         -0.6809  -15.0656  -49.5689 S.3       23 UNK        -0.2404 
      8 C8          0.8504  -15.0306  -50.5485 C.3       23 UNK        -0.0205 
      9 C9          1.6501  -16.2926  -50.2857 C.ar      23 UNK        -0.0193 
     10 C10         1.6285  -17.3731  -51.1725 C.ar      23 UNK        -0.1150 
     11 C11         2.2915  -18.5638  -50.8548 C.ar      23 UNK        -0.0193 
     12 C12         3.0158  -18.6487  -49.6601 C.ar      23 UNK        -0.1150 
     13 C13         3.0678  -17.5588  -48.7855 C.ar      23 UNK        -0.0193 
     14 C14         2.3838  -16.3892  -49.1056 C.ar      23 UNK        -0.1150 
     15 C15         3.8332  -17.6406  -47.4781 C.3       23 UNK        -0.0205 
     16 S16         2.9115  -18.5928  -46.2423 S.3       23 UNK        -0.2404 
     17 C17         1.4725  -17.5253  -45.8653 C.3       23 UNK        -0.0398 
     18 CA          0.1579  -17.8991  -46.6052 C.3       11 UNK         0.1400 
     19 N          -0.0418  -19.3428  -46.6704 N.am      11 UNK        -0.5000 
     20 C          -0.7727  -19.9802  -47.5897 C.2       10 UNK         0.5000 
     21 O          -1.5686  -19.4262  -48.3507 O.2       10 UNK        -0.5000 
     22 CA         -0.5577  -21.4978  -47.6639 C.3       10 UNK         0.1400 
     23 CB          0.8768  -21.8183  -48.1214 C.3       10 UNK        -0.1800 
     24 N          -0.7891  -22.1154  -46.3605 N.am      10 UNK        -0.5000 
     25 C          -1.7742  -22.9778  -46.0762 C.2       9 UNK         0.5000 
     26 O          -2.6055  -23.3644  -46.8969 O.2       9 UNK        -0.5000 
     27 CA         -1.8562  -23.5166  -44.6310 C.3       9 UNK         0.1400 
     28 CB         -1.2978  -24.9465  -44.5623 C.3       9 UNK        -0.1800 
     29 N          -1.1600  -22.6945  -43.6390 N.am      9 UNK        -0.5000 
     30 C          -1.5144  -21.4517  -43.2874 C.2       8 UNK         0.5000 
     31 O          -2.5009  -20.8732  -43.7395 O.2       8 UNK        -0.5000 
     32 CA         -0.5798  -20.7057  -42.3112 C.3       8 UNK         0.1400 
     33 CB         -1.0762  -20.8556  -40.8662 C.3       8 UNK        -0.1800 
     34 N           0.8356  -21.0909  -42.3791 N.am      8 UNK        -0.5000 
     35 C           1.5868  -21.0719  -43.4872 C.2       7 UNK         0.5000 
     36 O           1.1399  -20.8158  -44.6053 O.2       7 UNK        -0.5000 
     37 CA          3.0845  -21.3306  -43.3092 C.3       7 UNK         0.1400 
     38 CB          3.7028  -22.0230  -44.5416 C.3       7 UNK        -0.1800 
     39 N           3.7084  -20.0364  -43.0645 N.am      7 UNK        -0.5000 
     40 C           4.9438  -19.8370  -42.5953 C.2       6 UNK         0.5000 
     41 O           5.7304  -20.7444  -42.3202 O.2       6 UNK        -0.5000 
     42 CA          5.3666  -18.3727  -42.3702 C.3       6 UNK         0.1400 
     43 CB          5.9500  -17.7732  -43.6587 C.3       6 UNK        -0.1800 
     44 N           4.2835  -17.5174  -41.8696 N.am      6 UNK        -0.5000 
     45 C           3.7320  -17.6458  -40.6512 C.2       5 UNK         0.5000 
     46 O           4.0511  -18.5337  -39.8592 O.2       5 UNK        -0.5000 
     47 CA          2.6773  -16.6117  -40.2031 C.3       5 UNK         0.1400 
     48 CB          3.2429  -15.7191  -39.0864 C.3       5 UNK        -0.1800 
     49 N           2.1790  -15.7484  -41.2720 N.am      5 UNK        -0.5000 
     50 C           1.2941  -16.1176  -42.2051 C.2       4 UNK         0.5000 
     51 O           0.8204  -17.2505  -42.2872 O.2       4 UNK        -0.5000 
     52 CA          0.8919  -15.0406  -43.2347 C.3       4 UNK         0.1400 
     53 CB         -0.3085  -14.2338  -42.7172 C.3       4 UNK        -0.1800 
     54 N           1.9646  -14.1137  -43.6183 N.am      4 UNK        -0.5000 
     55 C           3.1940  -14.4445  -44.0442 C.2       3 UNK         0.5000 
     56 O           3.6094  -15.6021  -44.0927 O.2       3 UNK        -0.5000 
     57 CA          4.1039  -13.2716  -44.4685 C.3       3 UNK         0.1400 
     58 CB          5.4245  -13.7333  -45.1219 C.3       3 UNK        -0.1800 
     59 N           3.3992  -12.2967  -45.3117 N.am      3 UNK        -0.5000 
     60 C           2.8759  -12.5174  -46.5270 C.2       2 UNK         0.5000 
     61 O           3.0114  -13.5624  -47.1627 O.2       2 UNK        -0.5000 
     62 CA          2.0724  -11.3533  -47.1416 C.3       2 UNK         0.1400 
     63 CB          2.9441  -10.5679  -48.1336 C.3       2 UNK        -0.1800 
     64 N           0.8405  -11.7729  -47.8209 N.am      2 UNK        -0.5000 
     65 C          -0.1391  -12.5112  -47.2770 C.2       1 UNK         0.5000 
     66 O          -0.0863  -12.9638  -46.1293 O.2       1 UNK        -0.5000 
     67 C          -1.0753  -17.2071  -45.9886 C.2       11 UNK         0.5000 
     68 O          -1.6584  -16.3164  -46.6083 O.2       11 UNK        -0.5000 
     69 N          -1.5026  -17.6703  -44.8016 N.am      12 UNK        -0.5000 
     70 CA         -2.7160  -17.1885  -44.1244 C.3       12 UNK         0.1400 
     71 CB         -2.6985  -17.5744  -42.6376 C.3       12 UNK        -0.1800 
     72 C          -4.0136  -17.6792  -44.7976 C.2       12 UNK         0.5000 
     73 O          -5.0637  -17.0667  -44.6070 O.2       12 UNK        -0.5000 
     74 N          -3.9111  -18.7392  -45.6106 N.am      13 UNK        -0.5000 
     75 CA         -4.9633  -19.2283  -46.5030 C.3       13 UNK         0.1400 
     76 CB         -4.6586  -20.6862  -46.8762 C.3       13 UNK        -0.1800 
     77 C          -5.1399  -18.3583  -47.7676 C.2       13 UNK         0.5000 
     78 O          -6.0387  -18.6356  -48.5619 O.2       13 UNK        -0.5000 
     79 N          -4.2897  -17.3328  -47.9359 N.am      14 UNK        -0.5000 
     80 CA         -4.3087  -16.3219  -48.9957 C.3       14 UNK         0.1400 
     81 CB         -5.6004  -15.4793  -48.9312 C.3       14 UNK        -0.1800 
     82 C          -4.0378  -16.8960  -50.3989 C.2       14 UNK         0.5000 
     83 O          -4.5390  -16.3519  -51.3848 O.2       14 UNK        -0.5000 
     84 N          -3.2425  -17.9760  -50.4619 N.am      15 UNK        -0.5000 
     85 CA         -2.8022  -18.6653  -51.6781 C.3       15 UNK         0.1400 
     86 CB         -1.8644  -17.7499  -52.4904 C.3       15 UNK        -0.1800 
     87 C          -3.9667  -19.2199  -52.5273 C.2       15 UNK         0.5000 
     88 O          -3.9030  -19.1775  -53.7573 O.2       15 UNK        -0.5000 
     89 N          -5.0184  -19.7090  -51.8525 N.am      16 UNK        -0.5000 
     90 CA         -6.2415  -20.2543  -52.4416 C.3       16 UNK         0.1400 
     91 CB         -7.2086  -20.6466  -51.3131 C.3       16 UNK        -0.1800 
     92 C          -5.9724  -21.4452  -53.3819 C.2       16 UNK         0.5000 
     93 O          -5.6994  -22.5531  -52.9129 O.2       16 UNK        -0.5000 
     94 N          -6.0571  -21.1926  -54.6942 N.am      17 UNK        -0.5000 
     95 CA         -5.8042  -22.1681  -55.7565 C.3       17 UNK         0.1400 
     96 CB         -5.7304  -21.4383  -57.1057 C.3       17 UNK        -0.1800 
     97 C          -6.8500  -23.2958  -55.8083 C.2       17 UNK         0.5000 
     98 O          -6.5052  -24.4210  -56.1670 O.2       17 UNK        -0.5000 
     99 N          -8.0925  -22.9899  -55.4072 N.am      18 UNK        -0.5000 
    100 CA        -9.1952  -23.9492  -55.2960 C.3       18 UNK         0.1400 
    101 CB       -10.5076  -23.1831  -55.0710 C.3       18 UNK        -0.1800 
    102 C         -8.9764  -24.9871  -54.1775 C.2       18 UNK         0.5000 
    103 O         -9.4116  -26.1308  -54.3143 O.2       18 UNK        -0.5000 
    104 N         -8.2857  -24.5734  -53.1066 N.am      19 UNK        -0.5000 
    105 CA        -7.8622  -25.4339  -52.0008 C.3       19 UNK         0.1400 
    106 CB        -7.8052  -24.5854  -50.7198 C.3       19 UNK        -0.1800 
    107 C         -6.4917  -26.0907  -52.2619 C.2       19 UNK         0.5000 
    108 O         -6.1092  -26.9936  -51.5170 O.2       19 UNK        -0.5000 
    109 N         -5.7719  -25.6037  -53.2857 N.am      20 UNK        -0.5000 
    110 CA        -4.3805  -25.9061  -53.6354 C.3       20 UNK         0.1400 
    111 CB        -4.2383  -27.3617  -54.1250 C.3       20 UNK        -0.1800 
    112 C         -3.4105  -25.5469  -52.4900 C.2       20 UNK         0.5000 
    113 O         -2.4820  -26.3045  -52.2029 O.2       20 UNK        -0.5000 
    114 N         -3.6667  -24.3988  -51.8442 N.am      21 UNK        -0.5000 
    115 CA        -3.0383  -23.9451  -50.6003 C.3       21 UNK         0.1400 
    116 CB        -3.6366  -22.5812  -50.2249 C.3       21 UNK        -0.1800 
    117 C         -1.4997  -23.8794  -50.6524 C.2       21 UNK         0.5000 
    118 O         -0.8373  -24.3471  -49.7269 O.2       21 UNK        -0.5000 
    119 N         -0.9666  -23.3397  -51.7541 N.am      22 UNK        -0.5000 
    120 CA         0.4766  -23.2678  -52.0419 C.3       22 UNK         0.1400 
    121 C          1.0517  -24.5494  -52.7196 C.2       22 UNK         0.5000 
    122 N          0.2900  -25.6211  -52.9069 N.am      22 UNK        -0.7600 
    123 O          2.2268  -24.5825  -53.0743 O.2       22 UNK        -0.5000 
    124 C124        0.8294  -21.9836  -52.8389 C.3       23 UNK        -0.0398 
    125 S125        0.5447  -20.4723  -51.8550 S.3       23 UNK        -0.2404 
    126 C126        2.2199  -19.7566  -51.7982 C.3       23 UNK        -0.0205 
    127 H127       -5.2483  -13.7151  -45.8577 H         1 UNK         0.0600 
    128 H128       -4.0359  -14.9704  -46.1028 H         1 UNK         0.0600 
    129 H129       -3.8975  -13.8681  -44.7282 H         1 UNK         0.0600 
    130 H130       -2.1658  -14.4790  -47.2713 H         1 UNK         0.3000 
    131 H131       -1.8117  -11.7111  -48.2928 H         1 UNK         0.0600 
    132 H132       -2.0898  -13.2297  -50.1220 H         1 UNK         0.0800 
    133 H133       -0.4401  -12.7107  -50.0966 H         1 UNK         0.0800 
    134 H134        0.6084  -14.9330  -51.6078 H         1 UNK         0.0800 
    135 H135        1.4507  -14.1610  -50.2756 H         1 UNK         0.0800 
    136 H136        1.0739  -17.3041  -52.0964 H         1 UNK         0.1150 
    137 H137        3.5287  -19.5642  -49.4009 H         1 UNK         0.1150 
    138 H138        2.3894  -15.5600  -48.4161 H         1 UNK         0.1150 
    139 H139        4.0501  -16.6461  -47.0829 H         1 UNK         0.0800 
    140 H140        4.7969  -18.1215  -47.6500 H         1 UNK         0.0800 
    141 H141        1.7332  -16.4826  -46.0542 H         1 UNK         0.0800 
    142 H142        1.3350  -17.6208  -44.7904 H         1 UNK         0.0800 
    143 H143        0.2478  -17.5381  -47.6319 H         1 UNK         0.0600 
    144 H144        0.5591  -19.8891  -46.0569 H         1 UNK         0.3000 
    145 H145       -1.2428  -21.8916  -48.4123 H         1 UNK         0.0600 
    146 H146        1.1044  -21.3288  -49.0681 H         1 UNK         0.0600 
    147 H147        1.0101  -22.8898  -48.2689 H         1 UNK         0.0600 
    148 H148        1.6220  -21.4887  -47.3962 H         1 UNK         0.0600 
    149 H149       -0.1653  -21.8246  -45.6144 H         1 UNK         0.3000 
    150 H150       -2.9131  -23.5482  -44.3578 H         1 UNK         0.0600 
    151 H151       -0.2353  -24.9744  -44.8078 H         1 UNK         0.0600 
    152 H152       -1.8138  -25.6022  -45.2649 H         1 UNK         0.0600 
    153 H153       -1.4258  -25.3740  -43.5676 H         1 UNK         0.0600 
    154 H154       -0.3263  -23.0876  -43.2281 H         1 UNK         0.3000 
    155 H155       -0.6241  -19.6479  -42.5733 H         1 UNK         0.0600 
    156 H156       -1.0001  -21.8870  -40.5202 H         1 UNK         0.0600 
    157 H157       -2.1212  -20.5551  -40.7776 H         1 UNK         0.0600 
    158 H158       -0.5017  -20.2272  -40.1853 H         1 UNK         0.0600 
    159 H159        1.2817  -21.2970  -41.4969 H         1 UNK         0.3000 
    160 H160        3.2271  -21.9712  -42.4367 H         1 UNK         0.0600 
    161 H161        3.6595  -21.3892  -45.4276 H         1 UNK         0.0600 
    162 H162        3.1734  -22.9475  -44.7749 H         1 UNK         0.0600 
    163 H163        4.7470  -22.2840  -44.3715 H         1 UNK         0.0600 
    164 H164        3.1301  -19.2303  -43.2613 H         1 UNK         0.3000 
    165 H165        6.1586  -18.3745  -41.6183 H         1 UNK         0.0600 
    166 H166        6.3098  -16.7575  -43.4947 H         1 UNK         0.0600 
    167 H167        6.7933  -18.3641  -44.0177 H         1 UNK         0.0600 
    168 H168        5.2104  -17.7407  -44.4587 H         1 UNK         0.0600 
    169 H169        3.9632  -16.7813  -42.4914 H         1 UNK         0.3000 
    170 H170        1.8340  -17.1719  -39.7934 H         1 UNK         0.0600 
    171 H171        2.4853  -15.0327  -38.7076 H         1 UNK         0.0600 
    172 H172        4.0898  -15.1270  -39.4355 H         1 UNK         0.0600 
    173 H173        3.5867  -16.3168  -38.2411 H         1 UNK         0.0600 
    174 H174        2.5322  -14.8033  -41.2940 H         1 UNK         0.3000 
    175 H175        0.5701  -15.5479  -44.1416 H         1 UNK         0.0600 
    176 H176       -1.1299  -14.8905  -42.4293 H         1 UNK         0.0600 
    177 H177       -0.0454  -13.6356  -41.8441 H         1 UNK         0.0600 
    178 H178       -0.6912  -13.5602  -43.4842 H         1 UNK         0.0600 
    179 H179        1.7079  -13.1379  -43.6438 H         1 UNK         0.3000 
    180 H180        4.3658  -12.7465  -43.5490 H         1 UNK         0.0600 
    181 H181        5.2511  -14.3443  -46.0082 H         1 UNK         0.0600 
    182 H182        6.0118  -14.3339  -44.4265 H         1 UNK         0.0600 
    183 H183        6.0393  -12.8824  -45.4149 H         1 UNK         0.0600 
    184 H184        3.2471  -11.3926  -44.8866 H         1 UNK         0.3000 
    185 H185        1.7760  -10.6774  -46.3370 H         1 UNK         0.0600 
    186 H186        3.8609  -10.2178  -47.6574 H         1 UNK         0.0600 
    187 H187        3.2327  -11.1832  -48.9869 H         1 UNK         0.0600 
    188 H188        2.4212   -9.6897  -48.5127 H         1 UNK         0.0600 
    189 H189        0.7285  -11.4343  -48.7644 H         1 UNK         0.3000 
    190 H190       -0.9970  -18.4213  -44.3557 H         1 UNK         0.3000 
    191 H191       -2.7140  -16.0981  -44.1777 H         1 UNK         0.0600 
    192 H192       -1.7756  -17.2669  -42.1497 H         1 UNK         0.0600 
    193 H193       -3.5177  -17.0877  -42.1071 H         1 UNK         0.0600 
    194 H194       -2.8193  -18.6458  -42.4911 H         1 UNK         0.0600 
    195 H195       -3.0206  -19.2127  -45.6616 H         1 UNK         0.3000 
    196 H196       -5.9123  -19.2088  -45.9636 H         1 UNK         0.0600 
    197 H197       -5.4470  -21.1086  -47.5004 H         1 UNK         0.0600 
    198 H198       -4.5780  -21.3124  -45.9874 H         1 UNK         0.0600 
    199 H199       -3.7245  -20.7698  -47.4293 H         1 UNK         0.0600 
    200 H200       -3.5418  -17.2256  -47.2622 H         1 UNK         0.3000 
    201 H201       -3.4756  -15.6545  -48.7818 H         1 UNK         0.0600 
    202 H202       -5.5269  -14.6040  -49.5776 H         1 UNK         0.0600 
    203 H203       -5.7928  -15.1198  -47.9213 H         1 UNK         0.0600 
    204 H204       -6.4719  -16.0503  -49.2527 H         1 UNK         0.0600 
    205 H205       -2.8586  -18.3434  -49.5963 H         1 UNK         0.3000 
    206 H206       -2.2251  -19.5264  -51.3408 H         1 UNK         0.0600 
    207 H207       -1.1285  -17.2813  -51.8407 H         1 UNK         0.0600 
    208 H208       -1.3260  -18.3149  -53.2519 H         1 UNK         0.0600 
    209 H209       -2.4105  -16.9525  -52.9953 H         1 UNK         0.0600 
    210 H210       -4.9947  -19.6651  -50.8436 H         1 UNK         0.3000 
    211 H211       -6.7122  -19.4565  -53.0193 H         1 UNK         0.0600 
    212 H212       -6.7601  -21.3646  -50.6264 H         1 UNK         0.0600 
    213 H213       -8.1190  -21.0960  -51.7118 H         1 UNK         0.0600 
    214 H214       -7.5061  -19.7742  -50.7310 H         1 UNK         0.0600 
    215 H215       -6.2382  -20.2448  -54.9926 H         1 UNK         0.3000 
    216 H216       -4.8328  -22.6287  -55.5638 H         1 UNK         0.0600 
    217 H217       -6.6684  -20.9354  -57.3443 H         1 UNK         0.0600 
    218 H218       -5.5160  -22.1361  -57.9164 H         1 UNK         0.0600 
    219 H219       -4.9379  -20.6895  -57.1054 H         1 UNK         0.0600 
    220 H220       -8.2883  -22.0366  -55.1389 H         1 UNK         0.3000 
    221 H221       -9.2718  -24.4909  -56.2412 H         1 UNK         0.0600 
    222 H222      -10.4834  -22.6037  -54.1471 H         1 UNK         0.0600 
    223 H223      -10.7099  -22.4968  -55.8935 H         1 UNK         0.0600 
    224 H224      -11.3535  -23.8688  -55.0063 H         1 UNK         0.0600 
    225 H225       -7.9516  -23.6207  -53.0837 H         1 UNK         0.3000 
    226 H226       -8.5934  -26.2312  -51.8525 H         1 UNK         0.0600 
    227 H227       -8.7658  -24.1129  -50.5142 H         1 UNK         0.0600 
    228 H228       -7.5540  -25.2002  -49.8547 H         1 UNK         0.0600 
    229 H229       -7.0520  -23.8004  -50.7914 H         1 UNK         0.0600 
    230 H230       -6.1949  -24.8646  -53.8285 H         1 UNK         0.3000 
    231 H231       -4.1247  -25.2507  -54.4692 H         1 UNK         0.0600 
    232 H232       -4.4246  -28.0800  -53.3263 H         1 UNK         0.0600 
    233 H233       -3.2331  -27.5488  -54.5044 H         1 UNK         0.0600 
    234 H234       -4.9352  -27.5728  -54.9361 H         1 UNK         0.0600 
    235 H235       -4.4386  -23.8291  -52.1811 H         1 UNK         0.3000 
    236 H236       -3.3112  -24.6608  -49.8222 H         1 UNK         0.0600 
    237 H237       -3.3743  -21.8167  -50.9551 H         1 UNK         0.0600 
    238 H238       -4.7234  -22.6305  -50.1633 H         1 UNK         0.0600 
    239 H239       -3.2799  -22.2467  -49.2536 H         1 UNK         0.0600 
    240 H240       -1.5858  -23.0115  -52.4798 H         1 UNK         0.3000 
    241 H241        1.0091  -23.2026  -51.0910 H         1 UNK         0.0600 
    242 H242        0.6935  -26.4356  -53.3414 H         1 UNK         0.3800 
    243 H243       -0.6694  -25.6609  -52.5783 H         1 UNK         0.3800 
    244 H244        0.2359  -21.9249  -53.7523 H         1 UNK         0.0800 
    245 H245        1.8720  -21.9966  -53.1604 H         1 UNK         0.0800 
    246 H246        2.9289  -20.5264  -51.4895 H         1 UNK         0.0800 
    247 H247        2.5145  -19.4440  -52.8010 H         1 UNK         0.0800 
@<TRIPOS>BOND
     1    1    2 1    
     2    1  127 1    
     3    1  128 1    
     4    1  129 1    
     5    2    3 2    
     6    2    4 am   BACKBONE|DICT|INTERRES
     7    4    5 1    
     8    4  130 1    
     9    5    6 1    
    10    5   65 1    
    11    5  131 1    
    12    6    7 1    
    13    6  132 1    
    14    6  133 1    
    15    7    8 1    
    16    8    9 1    
    17    8  134 1    
    18    8  135 1    
    19    9   10 ar   
    20    9   14 ar   
    21   10   11 ar   
    22   10  136 1    
    23   11   12 ar   
    24   11  126 1    
    25   12   13 ar   
    26   12  137 1    
    27   13   14 ar   
    28   13   15 1    
    29   14  138 1    
    30   15   16 1    
    31   15  139 1    
    32   15  140 1    
    33   16   17 1    
    34   17   18 1    
    35   17  141 1    
    36   17  142 1    
    37   18   19 1    
    38   18   67 1    
    39   18  143 1    
    40   19   20 am   BACKBONE|DICT|INTERRES
    41   19  144 1    
    42   20   21 2    
    43   20   22 1    
    44   22   23 1    
    45   22   24 1    
    46   22  145 1    
    47   23  146 1    
    48   23  147 1    
    49   23  148 1    
    50   24   25 am   BACKBONE|DICT|INTERRES
    51   24  149 1    
    52   25   26 2    
    53   25   27 1    
    54   27   28 1    
    55   27   29 1    
    56   27  150 1    
    57   28  151 1    
    58   28  152 1    
    59   28  153 1    
    60   29   30 am   BACKBONE|DICT|INTERRES
    61   29  154 1    
    62   30   31 2    
    63   30   32 1    
    64   32   33 1    
    65   32   34 1    
    66   32  155 1    
    67   33  156 1    
    68   33  157 1    
    69   33  158 1    
    70   34   35 am   BACKBONE|DICT|INTERRES
    71   34  159 1    
    72   35   36 2    
    73   35   37 1    
    74   37   38 1    
    75   37   39 1    
    76   37  160 1    
    77   38  161 1    
    78   38  162 1    
    79   38  163 1    
    80   39   40 am   BACKBONE|DICT|INTERRES
    81   39  164 1    
    82   40   41 2    
    83   40   42 1    
    84   42   43 1    
    85   42   44 1    
    86   42  165 1    
    87   43  166 1    
    88   43  167 1    
    89   43  168 1    
    90   44   45 am   BACKBONE|DICT|INTERRES
    91   44  169 1    
    92   45   46 2    
    93   45   47 1    
    94   47   48 1    
    95   47   49 1    
    96   47  170 1    
    97   48  171 1    
    98   48  172 1    
    99   48  173 1    
   100   49   50 am   BACKBONE|DICT|INTERRES
   101   49  174 1    
   102   50   51 2    
   103   50   52 1    
   104   52   53 1    
   105   52   54 1    
   106   52  175 1    
   107   53  176 1    
   108   53  177 1    
   109   53  178 1    
   110   54   55 am   BACKBONE|DICT|INTERRES
   111   54  179 1    
   112   55   56 2    
   113   55   57 1    
   114   57   58 1    
   115   57   59 1    
   116   57  180 1    
   117   58  181 1    
   118   58  182 1    
   119   58  183 1    
   120   59   60 am   BACKBONE|DICT|INTERRES
   121   59  184 1    
   122   60   61 2    
   123   60   62 1    
   124   62   63 1    
   125   62   64 1    
   126   62  185 1    
   127   63  186 1    
   128   63  187 1    
   129   63  188 1    
   130   64   65 am   BACKBONE|DICT|INTERRES
   131   64  189 1    
   132   65   66 2    
   133   67   68 2    
   134   67   69 am   BACKBONE|DICT|INTERRES
   135   69   70 1    
   136   69  190 1    
   137   70   71 1    
   138   70   72 1    
   139   70  191 1    
   140   71  192 1    
   141   71  193 1    
   142   71  194 1    
   143   72   73 2    
   144   72   74 am   BACKBONE|DICT|INTERRES
   145   74   75 1    
   146   74  195 1    
   147   75   76 1    
   148   75   77 1    
   149   75  196 1    
   150   76  197 1    
   151   76  198 1    
   152   76  199 1    
   153   77   78 2    
   154   77   79 am   BACKBONE|DICT|INTERRES
   155   79   80 1    
   156   79  200 1    
   157   80   81 1    
   158   80   82 1    
   159   80  201 1    
   160   81  202 1    
   161   81  203 1    
   162   81  204 1    
   163   82   83 2    
   164   82   84 am   BACKBONE|DICT|INTERRES
   165   84   85 1    
   166   84  205 1    
   167   85   86 1    
   168   85   87 1    
   169   85  206 1    
   170   86  207 1    
   171   86  208 1    
   172   86  209 1    
   173   87   88 2    
   174   87   89 am   BACKBONE|DICT|INTERRES
   175   89   90 1    
   176   89  210 1    
   177   90   91 1    
   178   90   92 1    
   179   90  211 1    
   180   91  212 1    
   181   91  213 1    
   182   91  214 1    
   183   92   93 2    
   184   92   94 am   BACKBONE|DICT|INTERRES
   185   94   95 1    
   186   94  215 1    
   187   95   96 1    
   188   95   97 1    
   189   95  216 1    
   190   96  217 1    
   191   96  218 1    
   192   96  219 1    
   193   97   98 2    
   194   97   99 am   BACKBONE|DICT|INTERRES
   195   99  100 1    
   196   99  220 1    
   197  100  101 1    
   198  100  102 1    
   199  100  221 1    
   200  101  222 1    
   201  101  223 1    
   202  101  224 1    
   203  102  103 2    
   204  102  104 am   BACKBONE|DICT|INTERRES
   205  104  105 1    
   206  104  225 1    
   207  105  106 1    
   208  105  107 1    
   209  105  226 1    
   210  106  227 1    
   211  106  228 1    
   212  106  229 1    
   213  107  108 2    
   214  107  109 am   BACKBONE|DICT|INTERRES
   215  109  110 1    
   216  109  230 1    
   217  110  111 1    
   218  110  112 1    
   219  110  231 1    
   220  111  232 1    
   221  111  233 1    
   222  111  234 1    
   223  112  113 2    
   224  112  114 am   BACKBONE|DICT|INTERRES
   225  114  115 1    
   226  114  235 1    
   227  115  116 1    
   228  115  117 1    
   229  115  236 1    
   230  116  237 1    
   231  116  238 1    
   232  116  239 1    
   233  117  118 2    
   234  117  119 am   BACKBONE|DICT|INTERRES
   235  119  120 1    
   236  119  240 1    
   237  120  121 1    
   238  120  124 1    
   239  120  241 1    
   240  121  122 am   BACKBONE|DICT|INTERRES
   241  121  123 2    
   242  122  242 1    
   243  122  243 1    
   244  124  125 1    
   245  124  244 1    
   246  124  245 1    
   247  125  126 1    
   248  126  246 1    
   249  126  247 1    
@<TRIPOS>SUBSTRUCTURE
     1 UNK         1 GROUP             0       ****    0 ROOT    
