@<TRIPOS>MOLECULE
3R540
247   249    1
SMALL
USER_CHARGES


@<TRIPOS>ATOM
      1 CA         -2.1529   -9.7903  -48.3430 C.3       0 UNK        -0.1800 
      2 C          -1.5556  -10.8928  -47.4819 C.2       0 UNK         0.5000 
      3 O          -0.3356  -10.9622  -47.3364 O.2       0 UNK        -0.5000 
      4 N          -2.4066  -11.7450  -46.8948 N.am      1 UNK        -0.5000 
      5 CA         -2.0270  -12.8933  -46.0596 C.3       1 UNK         0.1400 
      6 C6         -3.2599  -13.7098  -45.6078 C.3       23 UNK        -0.0398 
      7 S7         -4.0088  -14.6328  -46.9888 S.3       23 UNK        -0.2404 
      8 C8         -3.1025  -16.1980  -46.8144 C.3       23 UNK        -0.0205 
      9 C9         -3.6102  -17.2637  -47.7678 C.ar      23 UNK        -0.0193 
     10 C10        -3.1547  -17.3078  -49.0873 C.ar      23 UNK        -0.1150 
     11 C11        -3.5889  -18.3140  -49.9556 C.ar      23 UNK        -0.0193 
     12 C12        -4.4947  -19.2760  -49.4940 C.ar      23 UNK        -0.1150 
     13 C13        -4.9650  -19.2337  -48.1769 C.ar      23 UNK        -0.0193 
     14 C14        -4.5176  -18.2255  -47.3197 C.ar      23 UNK        -0.1150 
     15 C15        -5.9646  -20.2650  -47.6723 C.3       23 UNK        -0.0205 
     16 S16        -5.2079  -21.8915  -47.3618 S.3       23 UNK        -0.2404 
     17 C17        -3.9024  -21.4976  -46.1481 C.3       23 UNK        -0.0398 
     18 CA         -3.0952  -22.7621  -45.7562 C.3       11 UNK         0.1400 
     19 N          -1.6467  -22.5296  -45.7195 N.am      11 UNK        -0.5000 
     20 C          -0.7339  -23.5089  -45.7723 C.2       10 UNK         0.5000 
     21 O          -1.0290  -24.6938  -45.9159 O.2       10 UNK        -0.5000 
     22 CA          0.7477  -23.1220  -45.6465 C.3       10 UNK         0.1400 
     23 CB          1.3106  -22.7140  -47.0145 C.3       10 UNK        -0.1800 
     24 N           0.9721  -22.0577  -44.6713 N.am      10 UNK        -0.5000 
     25 C           0.7318  -22.1734  -43.3577 C.2       9 UNK         0.5000 
     26 O           0.3446  -23.2139  -42.8265 O.2       9 UNK        -0.5000 
     27 CA          0.8890  -20.8992  -42.5072 C.3       9 UNK         0.1400 
     28 CB          2.3623  -20.6512  -42.1527 C.3       9 UNK        -0.1800 
     29 N           0.3351  -19.7147  -43.1652 N.am      9 UNK        -0.5000 
     30 C          -0.9542  -19.5650  -43.5028 C.2       8 UNK         0.5000 
     31 O          -1.8322  -20.3917  -43.2533 O.2       8 UNK        -0.5000 
     32 CA         -1.3081  -18.3094  -44.3152 C.3       8 UNK         0.1400 
     33 CB         -1.4179  -17.0738  -43.4077 C.3       8 UNK        -0.1800 
     34 N          -0.3330  -18.0602  -45.3773 N.am      8 UNK        -0.5000 
     35 C          -0.1792  -18.8422  -46.4564 C.2       7 UNK         0.5000 
     36 O          -0.8694  -19.8342  -46.6833 O.2       7 UNK        -0.5000 
     37 CA          0.9751  -18.4867  -47.4111 C.3       7 UNK         0.1400 
     38 CB          0.5449  -17.4077  -48.4149 C.3       7 UNK        -0.1800 
     39 N           2.1716  -18.0403  -46.6961 N.am      7 UNK        -0.5000 
     40 C           2.9123  -18.8286  -45.9040 C.2       6 UNK         0.5000 
     41 O           2.6828  -20.0227  -45.7240 O.2       6 UNK        -0.5000 
     42 CA          4.0739  -18.1620  -45.1482 C.3       6 UNK         0.1400 
     43 CB          5.3451  -18.1529  -46.0091 C.3       6 UNK        -0.1800 
     44 N           3.7681  -16.7963  -44.7240 N.am      6 UNK        -0.5000 
     45 C           2.8103  -16.4416  -43.8601 C.2       5 UNK         0.5000 
     46 O           2.0522  -17.2505  -43.3234 O.2       5 UNK        -0.5000 
     47 CA          2.6489  -14.9352  -43.5725 C.3       5 UNK         0.1400 
     48 CB          3.7854  -14.4093  -42.6769 C.3       5 UNK        -0.1800 
     49 N           2.4824  -14.0981  -44.7689 N.am      5 UNK        -0.5000 
     50 C           3.3385  -13.8745  -45.7788 C.2       4 UNK         0.5000 
     51 O           4.4637  -14.3692  -45.8595 O.2       4 UNK        -0.5000 
     52 CA          2.8477  -12.9380  -46.8955 C.3       4 UNK         0.1400 
     53 CB          1.8054  -13.6446  -47.7771 C.3       4 UNK        -0.1800 
     54 N           2.2875  -11.6907  -46.3783 N.am      4 UNK        -0.5000 
     55 C           2.9893  -10.7395  -45.7448 C.2       3 UNK         0.5000 
     56 O           4.2022  -10.8000  -45.5403 O.2       3 UNK        -0.5000 
     57 CA          2.2012   -9.5142  -45.2527 C.3       3 UNK         0.1400 
     58 CB          2.0013   -8.4978  -46.3880 C.3       3 UNK        -0.1800 
     59 N           0.9007   -9.9019  -44.7095 N.am      3 UNK        -0.5000 
     60 C           0.7082  -10.3447  -43.4594 C.2       2 UNK         0.5000 
     61 O           1.5976  -10.4055  -42.6099 O.2       2 UNK        -0.5000 
     62 CA         -0.7168  -10.8034  -43.0934 C.3       2 UNK         0.1400 
     63 CB         -1.5167   -9.6414  -42.4853 C.3       2 UNK        -0.1800 
     64 N          -1.4584  -11.3503  -44.2311 N.am      2 UNK        -0.5000 
     65 C          -1.1676  -12.5090  -44.8384 C.2       1 UNK         0.5000 
     66 O          -0.2459  -13.2504  -44.4960 O.2       1 UNK        -0.5000 
     67 C          -3.6089  -23.4262  -44.4645 C.2       11 UNK         0.5000 
     68 O          -4.4444  -24.3266  -44.5441 O.2       11 UNK        -0.5000 
     69 N          -3.0461  -23.0437  -43.3089 N.am      12 UNK        -0.5000 
     70 CA         -3.2810  -23.7009  -42.0191 C.3       12 UNK         0.1400 
     71 CB         -2.6363  -22.8750  -40.8960 C.3       12 UNK        -0.1800 
     72 C          -2.7794  -25.1607  -41.9925 C.2       12 UNK         0.5000 
     73 O          -3.4208  -26.0140  -41.3791 O.2       12 UNK        -0.5000 
     74 N          -1.6724  -25.4282  -42.6990 N.am      13 UNK        -0.5000 
     75 CA         -1.1095  -26.7619  -42.9274 C.3       13 UNK         0.1400 
     76 CB          0.3865  -26.6131  -43.2501 C.3       13 UNK        -0.1800 
     77 C          -1.8290  -27.5603  -44.0390 C.2       13 UNK         0.5000 
     78 O          -1.4757  -28.7185  -44.2629 O.2       13 UNK        -0.5000 
     79 N          -2.8032  -26.9370  -44.7202 N.am      14 UNK        -0.5000 
     80 CA         -3.6150  -27.4572  -45.8280 C.3       14 UNK         0.1400 
     81 CB         -4.4348  -28.6891  -45.3906 C.3       14 UNK        -0.1800 
     82 C          -2.8360  -27.6929  -47.1420 C.2       14 UNK         0.5000 
     83 O          -3.3384  -28.3833  -48.0304 O.2       14 UNK        -0.5000 
     84 N          -1.6464  -27.0914  -47.2677 N.am      15 UNK        -0.5000 
     85 CA         -0.8507  -27.0551  -48.4963 C.3       15 UNK         0.1400 
     86 CB          0.6363  -26.9404  -48.1262 C.3       15 UNK        -0.1800 
     87 C          -1.2723  -25.8817  -49.4008 C.2       15 UNK         0.5000 
     88 O          -1.2158  -25.9993  -50.6249 O.2       15 UNK        -0.5000 
     89 N          -1.6787  -24.7684  -48.7715 N.am      16 UNK        -0.5000 
     90 CA         -2.2456  -23.5409  -49.3496 C.3       16 UNK         0.1400 
     91 CB         -3.5807  -23.8543  -50.0517 C.3       16 UNK        -0.1800 
     92 C          -1.3006  -22.7145  -50.2452 C.2       16 UNK         0.5000 
     93 O          -1.7337  -21.6961  -50.7809 O.2       16 UNK        -0.5000 
     94 N          -0.0386  -23.1467  -50.3898 N.am      17 UNK        -0.5000 
     95 CA          1.0137  -22.5387  -51.2146 C.3       17 UNK         0.1400 
     96 CB          1.4634  -21.1890  -50.6132 C.3       17 UNK        -0.1800 
     97 C           0.6324  -22.4385  -52.7100 C.2       17 UNK         0.5000 
     98 O           1.0184  -21.4774  -53.3773 O.2       17 UNK        -0.5000 
     99 N          -0.1198  -23.4408  -53.1965 N.am      18 UNK        -0.5000 
    100 CA        -0.7038  -23.5473  -54.5385 C.3       18 UNK         0.1400 
    101 CB         0.3946  -23.7005  -55.6118 C.3       18 UNK        -0.1800 
    102 C         -1.6753  -22.3844  -54.8274 C.2       18 UNK         0.5000 
    103 O         -1.4003  -21.5316  -55.6746 O.2       18 UNK        -0.5000 
    104 N         -2.7952  -22.3659  -54.0915 N.am      19 UNK        -0.5000 
    105 CA        -3.8393  -21.3349  -54.1057 C.3       19 UNK         0.1400 
    106 CB        -4.6966  -21.4860  -52.8377 C.3       19 UNK        -0.1800 
    107 C         -4.7020  -21.3072  -55.3889 C.2       19 UNK         0.5000 
    108 O         -5.9323  -21.2749  -55.3130 O.2       19 UNK        -0.5000 
    109 N         -4.0511  -21.2951  -56.5557 N.am      20 UNK        -0.5000 
    110 CA        -4.6570  -21.1632  -57.8789 C.3       20 UNK         0.1400 
    111 CB        -3.6786  -21.7292  -58.9238 C.3       20 UNK        -0.1800 
    112 C         -5.0392  -19.6941  -58.1503 C.2       20 UNK         0.5000 
    113 O         -4.3885  -19.0249  -58.9548 O.2       20 UNK        -0.5000 
    114 N         -6.0673  -19.2191  -57.4312 N.am      21 UNK        -0.5000 
    115 CA        -6.5763  -17.8431  -57.3994 C.3       21 UNK         0.1400 
    116 CB        -7.1872  -17.4461  -58.7601 C.3       21 UNK        -0.1800 
    117 C         -5.5072  -16.8516  -56.8940 C.2       21 UNK         0.5000 
    118 O         -5.1748  -15.8834  -57.5804 O.2       21 UNK        -0.5000 
    119 N         -4.9687  -17.1393  -55.7013 N.am      22 UNK        -0.5000 
    120 CA        -3.9049  -16.3610  -55.0425 C.3       22 UNK         0.1400 
    121 C         -4.3130  -14.9439  -54.5340 C.2       22 UNK         0.5000 
    122 N         -5.5929  -14.5953  -54.4802 N.am      22 UNK        -0.7600 
    123 O         -3.4476  -14.1410  -54.1954 O.2       22 UNK        -0.5000 
    124 C124       -3.1898  -17.1897  -53.9423 C.3       23 UNK        -0.0398 
    125 S125       -4.2801  -17.6854  -52.5604 S.3       23 UNK        -0.2404 
    126 C126       -3.0657  -18.3597  -51.3840 C.3       23 UNK        -0.0205 
    127 H127       -3.2417   -9.8388  -48.3666 H         1 UNK         0.0600 
    128 H128       -1.7852   -9.8749  -49.3655 H         1 UNK         0.0600 
    129 H129       -1.8627   -8.8140  -47.9549 H         1 UNK         0.0600 
    130 H130       -3.3972  -11.6413  -47.0634 H         1 UNK         0.3000 
    131 H131       -1.4004  -13.5383  -46.6784 H         1 UNK         0.0600 
    132 H132       -3.0042  -14.4161  -44.8163 H         1 UNK         0.0800 
    133 H133       -4.0175  -13.0524  -45.1777 H         1 UNK         0.0800 
    134 H134       -3.2046  -16.5509  -45.7888 H         1 UNK         0.0800 
    135 H135       -2.0384  -16.0272  -46.9807 H         1 UNK         0.0800 
    136 H136       -2.4566  -16.5595  -49.4352 H         1 UNK         0.1150 
    137 H137       -4.8356  -20.0564  -50.1585 H         1 UNK         0.1150 
    138 H138       -4.8730  -18.1918  -46.2994 H         1 UNK         0.1150 
    139 H139       -6.4482  -19.9182  -46.7578 H         1 UNK         0.0800 
    140 H140       -6.7601  -20.3830  -48.4093 H         1 UNK         0.0800 
    141 H141       -4.3340  -20.9937  -45.2812 H         1 UNK         0.0800 
    142 H142       -3.2471  -20.7668  -46.6200 H         1 UNK         0.0800 
    143 H143       -3.2539  -23.5147  -46.5301 H         1 UNK         0.0600 
    144 H144       -1.3345  -21.5652  -45.6741 H         1 UNK         0.3000 
    145 H145        1.2937  -24.0042  -45.3071 H         1 UNK         0.0600 
    146 H146        2.3748  -22.4868  -46.9526 H         1 UNK         0.0600 
    147 H147        1.1942  -23.5184  -47.7409 H         1 UNK         0.0600 
    148 H148        0.8024  -21.8359  -47.4123 H         1 UNK         0.0600 
    149 H149        1.3614  -21.1887  -45.0274 H         1 UNK         0.3000 
    150 H150        0.3361  -21.0500  -41.5778 H         1 UNK         0.0600 
    151 H151        2.7800  -21.4999  -41.6098 H         1 UNK         0.0600 
    152 H152        2.4729  -19.7714  -41.5183 H         1 UNK         0.0600 
    153 H153        2.9721  -20.4998  -43.0430 H         1 UNK         0.0600 
    154 H154        0.9837  -18.9639  -43.3798 H         1 UNK         0.3000 
    155 H155       -2.2803  -18.4813  -44.7816 H         1 UNK         0.0600 
    156 H156       -0.5088  -16.9086  -42.8298 H         1 UNK         0.0600 
    157 H157       -2.2373  -17.1884  -42.6973 H         1 UNK         0.0600 
    158 H158       -1.6082  -16.1696  -43.9840 H         1 UNK         0.0600 
    159 H159        0.3188  -17.3051  -45.2269 H         1 UNK         0.3000 
    160 H160        1.2325  -19.3876  -47.9717 H         1 UNK         0.0600 
    161 H161        1.3484  -17.1765  -49.1144 H         1 UNK         0.0600 
    162 H162        0.2545  -16.4815  -47.9181 H         1 UNK         0.0600 
    163 H163       -0.3056  -17.7498  -49.0049 H         1 UNK         0.0600 
    164 H164        2.4334  -17.0708  -46.7904 H         1 UNK         0.3000 
    165 H165        4.2706  -18.7537  -44.2522 H         1 UNK         0.0600 
    166 H166        6.1948  -17.7580  -45.4519 H         1 UNK         0.0600 
    167 H167        5.6076  -19.1620  -46.3297 H         1 UNK         0.0600 
    168 H168        5.2203  -17.5439  -46.9054 H         1 UNK         0.0600 
    169 H169        4.3065  -16.0449  -45.1501 H         1 UNK         0.3000 
    170 H170        1.7190  -14.8265  -43.0117 H         1 UNK         0.0600 
    171 H171        3.8464  -14.9812  -41.7502 H         1 UNK         0.0600 
    172 H172        4.7578  -14.4758  -43.1654 H         1 UNK         0.0600 
    173 H173        3.6186  -13.3666  -42.4056 H         1 UNK         0.0600 
    174 H174        1.5702  -13.6503  -44.8222 H         1 UNK         0.3000 
    175 H175        3.7056  -12.6853  -47.5222 H         1 UNK         0.0600 
    176 H176        0.9162  -13.9205  -47.2104 H         1 UNK         0.0600 
    177 H177        1.4890  -13.0055  -48.6017 H         1 UNK         0.0600 
    178 H178        2.2152  -14.5570  -48.2119 H         1 UNK         0.0600 
    179 H179        1.3030  -11.5210  -46.5657 H         1 UNK         0.3000 
    180 H180        2.7875   -9.0284  -44.4696 H         1 UNK         0.0600 
    181 H181        1.4266   -8.9172  -47.2143 H         1 UNK         0.0600 
    182 H182        2.9610   -8.1709  -46.7900 H         1 UNK         0.0600 
    183 H183        1.4782   -7.6096  -46.0333 H         1 UNK         0.0600 
    184 H184        0.1308   -9.9364  -45.3635 H         1 UNK         0.3000 
    185 H185       -0.6263  -11.5875  -42.3384 H         1 UNK         0.0600 
    186 H186       -1.0029   -9.2257  -41.6174 H         1 UNK         0.0600 
    187 H187       -1.6585   -8.8313  -43.2019 H         1 UNK         0.0600 
    188 H188       -2.5005   -9.9715  -42.1513 H         1 UNK         0.0600 
    189 H189       -2.2231  -10.7953  -44.5871 H         1 UNK         0.3000 
    190 H190       -2.4012  -22.2581  -43.3127 H         1 UNK         0.3000 
    191 H191       -4.3593  -23.7199  -41.8477 H         1 UNK         0.0600 
    192 H192       -2.8429  -23.3163  -39.9203 H         1 UNK         0.0600 
    193 H193       -3.0254  -21.8568  -40.8824 H         1 UNK         0.0600 
    194 H194       -1.5538  -22.8168  -41.0062 H         1 UNK         0.0600 
    195 H195       -1.1648  -24.6511  -43.1070 H         1 UNK         0.3000 
    196 H196       -1.1996  -27.3396  -42.0054 H         1 UNK         0.0600 
    197 H197        0.8667  -27.5875  -43.3463 H         1 UNK         0.0600 
    198 H198        0.9089  -26.0712  -42.4614 H         1 UNK         0.0600 
    199 H199        0.5450  -26.0772  -44.1856 H         1 UNK         0.0600 
    200 H200       -3.0113  -25.9813  -44.4599 H         1 UNK         0.3000 
    201 H201       -4.3288  -26.6651  -46.0576 H         1 UNK         0.0600 
    202 H202       -4.9815  -28.4914  -44.4684 H         1 UNK         0.0600 
    203 H203       -3.8025  -29.5619  -45.2270 H         1 UNK         0.0600 
    204 H204       -5.1702  -28.9593  -46.1491 H         1 UNK         0.0600 
    205 H205       -1.3348  -26.4910  -46.5101 H         1 UNK         0.3000 
    206 H206       -0.9935  -27.9823  -49.0551 H         1 UNK         0.0600 
    207 H207        0.9577  -27.7946  -47.5300 H         1 UNK         0.0600 
    208 H208        1.2614  -26.9143  -49.0197 H         1 UNK         0.0600 
    209 H209        0.8441  -26.0375  -47.5513 H         1 UNK         0.0600 
    210 H210       -1.6248  -24.7821  -47.7584 H         1 UNK         0.3000 
    211 H211       -2.4653  -22.8818  -48.5127 H         1 UNK         0.0600 
    212 H212       -3.4314  -24.3798  -50.9952 H         1 UNK         0.0600 
    213 H213       -4.1316  -22.9388  -50.2631 H         1 UNK         0.0600 
    214 H214       -4.2230  -24.4690  -49.4210 H         1 UNK         0.0600 
    215 H215        0.2039  -24.0164  -49.9390 H         1 UNK         0.3000 
    216 H216        1.8673  -23.2164  -51.1698 H         1 UNK         0.0600 
    217 H217        1.7840  -21.3062  -49.5791 H         1 UNK         0.0600 
    218 H218        0.6646  -20.4470  -50.6357 H         1 UNK         0.0600 
    219 H219        2.3092  -20.7753  -51.1634 H         1 UNK         0.0600 
    220 H220       -0.3838  -24.1719  -52.5495 H         1 UNK         0.3000 
    221 H221       -1.2964  -24.4634  -54.5491 H         1 UNK         0.0600 
    222 H222        1.0283  -22.8161  -55.6823 H         1 UNK         0.0600 
    223 H223        1.0363  -24.5553  -55.3985 H         1 UNK         0.0600 
    224 H224       -0.0463  -23.8625  -56.5960 H         1 UNK         0.0600 
    225 H225       -2.9312  -23.1083  -53.4220 H         1 UNK         0.3000 
    226 H226       -3.3419  -20.3661  -54.0484 H         1 UNK         0.0600 
    227 H227       -5.4539  -20.7035  -52.7743 H         1 UNK         0.0600 
    228 H228       -5.2090  -22.4481  -52.8071 H         1 UNK         0.0600 
    229 H229       -4.0822  -21.4019  -51.9448 H         1 UNK         0.0600 
    230 H230       -3.0345  -21.2988  -56.5169 H         1 UNK         0.3000 
    231 H231       -5.5704  -21.7605  -57.9184 H         1 UNK         0.0600 
    232 H232       -3.4749  -22.7842  -58.7399 H         1 UNK         0.0600 
    233 H233       -2.7253  -21.1990  -58.9141 H         1 UNK         0.0600 
    234 H234       -4.0917  -21.6487  -59.9300 H         1 UNK         0.0600 
    235 H235       -6.4783  -19.8548  -56.7555 H         1 UNK         0.3000 
    236 H236       -7.3825  -17.8284  -56.6645 H         1 UNK         0.0600 
    237 H237       -7.9556  -18.1550  -59.0683 H         1 UNK         0.0600 
    238 H238       -7.6569  -16.4635  -58.7026 H         1 UNK         0.0600 
    239 H239       -6.4367  -17.4016  -59.5496 H         1 UNK         0.0600 
    240 H240       -5.3105  -17.9387  -55.1889 H         1 UNK         0.3000 
    241 H241       -3.1544  -16.1701  -55.8122 H         1 UNK         0.0600 
    242 H242       -5.8436  -13.6747  -54.1558 H         1 UNK         0.3800 
    243 H243       -6.3130  -15.2455  -54.7496 H         1 UNK         0.3800 
    244 H244       -2.7575  -18.0879  -54.3839 H         1 UNK         0.0800 
    245 H245       -2.3457  -16.6257  -53.5415 H         1 UNK         0.0800 
    246 H246       -2.1330  -17.7978  -51.4523 H         1 UNK         0.0800 
    247 H247       -2.8201  -19.3854  -51.6591 H         1 UNK         0.0800 
@<TRIPOS>BOND
     1    1    2 1    
     2    1  127 1    
     3    1  128 1    
     4    1  129 1    
     5    2    3 2    
     6    2    4 am   BACKBONE|DICT|INTERRES
     7    4    5 1    
     8    4  130 1    
     9    5    6 1    
    10    5   65 1    
    11    5  131 1    
    12    6    7 1    
    13    6  132 1    
    14    6  133 1    
    15    7    8 1    
    16    8    9 1    
    17    8  134 1    
    18    8  135 1    
    19    9   10 ar   
    20    9   14 ar   
    21   10   11 ar   
    22   10  136 1    
    23   11   12 ar   
    24   11  126 1    
    25   12   13 ar   
    26   12  137 1    
    27   13   14 ar   
    28   13   15 1    
    29   14  138 1    
    30   15   16 1    
    31   15  139 1    
    32   15  140 1    
    33   16   17 1    
    34   17   18 1    
    35   17  141 1    
    36   17  142 1    
    37   18   19 1    
    38   18   67 1    
    39   18  143 1    
    40   19   20 am   BACKBONE|DICT|INTERRES
    41   19  144 1    
    42   20   21 2    
    43   20   22 1    
    44   22   23 1    
    45   22   24 1    
    46   22  145 1    
    47   23  146 1    
    48   23  147 1    
    49   23  148 1    
    50   24   25 am   BACKBONE|DICT|INTERRES
    51   24  149 1    
    52   25   26 2    
    53   25   27 1    
    54   27   28 1    
    55   27   29 1    
    56   27  150 1    
    57   28  151 1    
    58   28  152 1    
    59   28  153 1    
    60   29   30 am   BACKBONE|DICT|INTERRES
    61   29  154 1    
    62   30   31 2    
    63   30   32 1    
    64   32   33 1    
    65   32   34 1    
    66   32  155 1    
    67   33  156 1    
    68   33  157 1    
    69   33  158 1    
    70   34   35 am   BACKBONE|DICT|INTERRES
    71   34  159 1    
    72   35   36 2    
    73   35   37 1    
    74   37   38 1    
    75   37   39 1    
    76   37  160 1    
    77   38  161 1    
    78   38  162 1    
    79   38  163 1    
    80   39   40 am   BACKBONE|DICT|INTERRES
    81   39  164 1    
    82   40   41 2    
    83   40   42 1    
    84   42   43 1    
    85   42   44 1    
    86   42  165 1    
    87   43  166 1    
    88   43  167 1    
    89   43  168 1    
    90   44   45 am   BACKBONE|DICT|INTERRES
    91   44  169 1    
    92   45   46 2    
    93   45   47 1    
    94   47   48 1    
    95   47   49 1    
    96   47  170 1    
    97   48  171 1    
    98   48  172 1    
    99   48  173 1    
   100   49   50 am   BACKBONE|DICT|INTERRES
   101   49  174 1    
   102   50   51 2    
   103   50   52 1    
   104   52   53 1    
   105   52   54 1    
   106   52  175 1    
   107   53  176 1    
   108   53  177 1    
   109   53  178 1    
   110   54   55 am   BACKBONE|DICT|INTERRES
   111   54  179 1    
   112   55   56 2    
   113   55   57 1    
   114   57   58 1    
   115   57   59 1    
   116   57  180 1    
   117   58  181 1    
   118   58  182 1    
   119   58  183 1    
   120   59   60 am   BACKBONE|DICT|INTERRES
   121   59  184 1    
   122   60   61 2    
   123   60   62 1    
   124   62   63 1    
   125   62   64 1    
   126   62  185 1    
   127   63  186 1    
   128   63  187 1    
   129   63  188 1    
   130   64   65 am   BACKBONE|DICT|INTERRES
   131   64  189 1    
   132   65   66 2    
   133   67   68 2    
   134   67   69 am   BACKBONE|DICT|INTERRES
   135   69   70 1    
   136   69  190 1    
   137   70   71 1    
   138   70   72 1    
   139   70  191 1    
   140   71  192 1    
   141   71  193 1    
   142   71  194 1    
   143   72   73 2    
   144   72   74 am   BACKBONE|DICT|INTERRES
   145   74   75 1    
   146   74  195 1    
   147   75   76 1    
   148   75   77 1    
   149   75  196 1    
   150   76  197 1    
   151   76  198 1    
   152   76  199 1    
   153   77   78 2    
   154   77   79 am   BACKBONE|DICT|INTERRES
   155   79   80 1    
   156   79  200 1    
   157   80   81 1    
   158   80   82 1    
   159   80  201 1    
   160   81  202 1    
   161   81  203 1    
   162   81  204 1    
   163   82   83 2    
   164   82   84 am   BACKBONE|DICT|INTERRES
   165   84   85 1    
   166   84  205 1    
   167   85   86 1    
   168   85   87 1    
   169   85  206 1    
   170   86  207 1    
   171   86  208 1    
   172   86  209 1    
   173   87   88 2    
   174   87   89 am   BACKBONE|DICT|INTERRES
   175   89   90 1    
   176   89  210 1    
   177   90   91 1    
   178   90   92 1    
   179   90  211 1    
   180   91  212 1    
   181   91  213 1    
   182   91  214 1    
   183   92   93 2    
   184   92   94 am   BACKBONE|DICT|INTERRES
   185   94   95 1    
   186   94  215 1    
   187   95   96 1    
   188   95   97 1    
   189   95  216 1    
   190   96  217 1    
   191   96  218 1    
   192   96  219 1    
   193   97   98 2    
   194   97   99 am   BACKBONE|DICT|INTERRES
   195   99  100 1    
   196   99  220 1    
   197  100  101 1    
   198  100  102 1    
   199  100  221 1    
   200  101  222 1    
   201  101  223 1    
   202  101  224 1    
   203  102  103 2    
   204  102  104 am   BACKBONE|DICT|INTERRES
   205  104  105 1    
   206  104  225 1    
   207  105  106 1    
   208  105  107 1    
   209  105  226 1    
   210  106  227 1    
   211  106  228 1    
   212  106  229 1    
   213  107  108 2    
   214  107  109 am   BACKBONE|DICT|INTERRES
   215  109  110 1    
   216  109  230 1    
   217  110  111 1    
   218  110  112 1    
   219  110  231 1    
   220  111  232 1    
   221  111  233 1    
   222  111  234 1    
   223  112  113 2    
   224  112  114 am   BACKBONE|DICT|INTERRES
   225  114  115 1    
   226  114  235 1    
   227  115  116 1    
   228  115  117 1    
   229  115  236 1    
   230  116  237 1    
   231  116  238 1    
   232  116  239 1    
   233  117  118 2    
   234  117  119 am   BACKBONE|DICT|INTERRES
   235  119  120 1    
   236  119  240 1    
   237  120  121 1    
   238  120  124 1    
   239  120  241 1    
   240  121  122 am   BACKBONE|DICT|INTERRES
   241  121  123 2    
   242  122  242 1    
   243  122  243 1    
   244  124  125 1    
   245  124  244 1    
   246  124  245 1    
   247  125  126 1    
   248  126  246 1    
   249  126  247 1    
@<TRIPOS>SUBSTRUCTURE
     1 UNK         1 GROUP             0       ****    0 ROOT    
