@<TRIPOS>MOLECULE
3R540
247   249    1
SMALL
USER_CHARGES


@<TRIPOS>ATOM
      1 CA          3.3090   -9.3757  -53.0918 C.3       0 UNK        -0.1800 
      2 C           2.6196  -10.1249  -51.9601 C.2       0 UNK         0.5000 
      3 O           1.4249   -9.9282  -51.7385 O.2       0 UNK        -0.5000 
      4 N           3.3728  -10.9741  -51.2459 N.am      1 UNK        -0.5000 
      5 CA          2.9226  -11.8140  -50.1227 C.3       1 UNK         0.1400 
      6 C6          1.8687  -12.8856  -50.5180 C.3       23 UNK        -0.0398 
      7 S7          2.3732  -13.9311  -51.9312 S.3       23 UNK        -0.2404 
      8 C8          3.0458  -15.4191  -51.1093 C.3       23 UNK        -0.0205 
      9 C9          2.0728  -16.1427  -50.1787 C.ar      23 UNK        -0.0193 
     10 C10         0.6963  -16.1867  -50.4366 C.ar      23 UNK        -0.1150 
     11 C11        -0.1737  -16.8204  -49.5465 C.ar      23 UNK        -0.0193 
     12 C12         0.3397  -17.4210  -48.3957 C.ar      23 UNK        -0.1150 
     13 C13         1.7170  -17.4456  -48.1551 C.ar      23 UNK        -0.0193 
     14 C14         2.5744  -16.7936  -49.0459 C.ar      23 UNK        -0.1150 
     15 C15         2.2796  -18.1655  -46.9337 C.3       23 UNK        -0.0205 
     16 S16         2.4555  -19.9645  -47.1913 S.3       23 UNK        -0.2404 
     17 C17         0.7149  -20.4871  -47.3400 C.3       23 UNK        -0.0398 
     18 CA          0.4378  -21.9176  -46.8252 C.3       11 UNK         0.1400 
     19 N           0.5359  -22.0230  -45.3696 N.am      11 UNK        -0.5000 
     20 C           0.4955  -23.1720  -44.6813 C.2       10 UNK         0.5000 
     21 O           0.5123  -24.2868  -45.2028 O.2       10 UNK        -0.5000 
     22 CA          0.3639  -23.0553  -43.1526 C.3       10 UNK         0.1400 
     23 CB          1.7380  -22.8667  -42.4913 C.3       10 UNK        -0.1800 
     24 N          -0.5330  -21.9686  -42.7531 N.am      10 UNK        -0.5000 
     25 C          -1.8547  -21.9484  -42.9804 C.2       9 UNK         0.5000 
     26 O          -2.4694  -22.8579  -43.5390 O.2       9 UNK        -0.5000 
     27 CA         -2.6107  -20.6846  -42.5291 C.3       9 UNK         0.1400 
     28 CB         -2.9619  -20.7681  -41.0363 C.3       9 UNK        -0.1800 
     29 N          -1.8573  -19.4552  -42.7786 N.am      9 UNK        -0.5000 
     30 C          -1.5870  -18.9652  -43.9970 C.2       8 UNK         0.5000 
     31 O          -1.9563  -19.4892  -45.0463 O.2       8 UNK        -0.5000 
     32 CA         -0.6864  -17.7189  -44.0558 C.3       8 UNK         0.1400 
     33 CB         -1.5029  -16.4430  -43.8119 C.3       8 UNK        -0.1800 
     34 N           0.4370  -17.7820  -43.1157 N.am      8 UNK        -0.5000 
     35 C           1.3496  -18.7680  -43.0863 C.2       7 UNK         0.5000 
     36 O           1.3621  -19.6939  -43.8952 O.2       7 UNK        -0.5000 
     37 CA          2.4068  -18.7581  -41.9664 C.3       7 UNK         0.1400 
     38 CB          3.8047  -18.5007  -42.5486 C.3       7 UNK        -0.1800 
     39 N           2.1219  -17.7973  -40.8986 N.am      7 UNK        -0.5000 
     40 C           1.1424  -17.9463  -39.9925 C.2       6 UNK         0.5000 
     41 O           0.3954  -18.9255  -39.9607 O.2       6 UNK        -0.5000 
     42 CA          0.9305  -16.8049  -38.9759 C.3       6 UNK         0.1400 
     43 CB          1.6213  -17.1380  -37.6451 C.3       6 UNK        -0.1800 
     44 N           1.3983  -15.4963  -39.4402 N.am      6 UNK        -0.5000 
     45 C           0.9175  -14.8363  -40.5025 C.2       5 UNK         0.5000 
     46 O          -0.0016  -15.2606  -41.2034 O.2       5 UNK        -0.5000 
     47 CA          1.6083  -13.5122  -40.8923 C.3       5 UNK         0.1400 
     48 CB          2.5403  -12.9381  -39.8017 C.3       5 UNK        -0.1800 
     49 N           2.3321  -13.6493  -42.1594 N.am      5 UNK        -0.5000 
     50 C           3.2735  -14.5531  -42.4620 C.2       4 UNK         0.5000 
     51 O           3.7090  -15.3807  -41.6606 O.2       4 UNK        -0.5000 
     52 CA          3.8278  -14.5361  -43.8990 C.3       4 UNK         0.1400 
     53 CB          2.7927  -15.0719  -44.9093 C.3       4 UNK        -0.1800 
     54 N           4.3830  -13.2400  -44.3116 N.am      4 UNK        -0.5000 
     55 C           3.7530  -12.0755  -44.5258 C.2       3 UNK         0.5000 
     56 O           2.5343  -11.9302  -44.4117 O.2       3 UNK        -0.5000 
     57 CA          4.6309  -10.8646  -44.9133 C.3       3 UNK         0.1400 
     58 CB          6.1275  -11.1969  -45.0883 C.3       3 UNK        -0.1800 
     59 N           4.1431  -10.2602  -46.1504 N.am      3 UNK        -0.5000 
     60 C           3.2221   -9.2914  -46.2335 C.2       2 UNK         0.5000 
     61 O           2.7182   -8.7371  -45.2552 O.2       2 UNK        -0.5000 
     62 CA          2.8038   -8.8445  -47.6494 C.3       2 UNK         0.1400 
     63 CB          3.4614   -7.5019  -48.0063 C.3       2 UNK        -0.1800 
     64 N           3.1221   -9.8155  -48.7011 N.am      2 UNK        -0.5000 
     65 C           2.4717  -10.9710  -48.9036 C.2       1 UNK         0.5000 
     66 O           1.5559  -11.3641  -48.1796 O.2       1 UNK        -0.5000 
     67 C          -0.9475  -22.3883  -47.3104 C.2       11 UNK         0.5000 
     68 O          -1.0167  -23.3005  -48.1352 O.2       11 UNK        -0.5000 
     69 N          -2.0212  -21.7694  -46.7885 N.am      12 UNK        -0.5000 
     70 CA         -3.4162  -21.9670  -47.2035 C.3       12 UNK         0.1400 
     71 CB         -4.3430  -21.0680  -46.3746 C.3       12 UNK        -0.1800 
     72 C          -3.9071  -23.4239  -47.1580 C.2       12 UNK         0.5000 
     73 O          -4.7229  -23.8040  -48.0000 O.2       12 UNK        -0.5000 
     74 N          -3.3417  -24.2247  -46.2437 N.am      13 UNK        -0.5000 
     75 CA         -3.5368  -25.6725  -46.1157 C.3       13 UNK         0.1400 
     76 CB         -2.6772  -26.1836  -44.9499 C.3       13 UNK        -0.1800 
     77 C          -3.2503  -26.4894  -47.3971 C.2       13 UNK         0.5000 
     78 O          -3.7338  -27.6171  -47.5022 O.2       13 UNK        -0.5000 
     79 N          -2.5094  -25.9094  -48.3505 N.am      14 UNK        -0.5000 
     80 CA         -2.3908  -26.3929  -49.7240 C.3       14 UNK         0.1400 
     81 CB         -0.9654  -26.9104  -49.9672 C.3       14 UNK        -0.1800 
     82 C          -2.7446  -25.2805  -50.7254 C.2       14 UNK         0.5000 
     83 O          -3.4674  -25.5371  -51.6895 O.2       14 UNK        -0.5000 
     84 N          -2.2443  -24.0600  -50.4869 N.am      15 UNK        -0.5000 
     85 CA         -2.3139  -22.9347  -51.4190 C.3       15 UNK         0.1400 
     86 CB         -1.3615  -21.8245  -50.9585 C.3       15 UNK        -0.1800 
     87 C          -3.7273  -22.3711  -51.6429 C.2       15 UNK         0.5000 
     88 O          -3.9692  -21.7870  -52.6978 O.2       15 UNK        -0.5000 
     89 N          -4.6343  -22.5477  -50.6753 N.am      16 UNK        -0.5000 
     90 CA         -6.0503  -22.2035  -50.8077 C.3       16 UNK         0.1400 
     91 CB         -6.5205  -21.4000  -49.5834 C.3       16 UNK        -0.1800 
     92 C          -6.8859  -23.4818  -50.9577 C.2       16 UNK         0.5000 
     93 O          -7.7708  -23.5300  -51.8108 O.2       16 UNK        -0.5000 
     94 N          -6.5863  -24.4911  -50.1282 N.am      17 UNK        -0.5000 
     95 CA         -7.3474  -25.7346  -50.0195 C.3       17 UNK         0.1400 
     96 CB         -6.8479  -26.5151  -48.7965 C.3       17 UNK        -0.1800 
     97 C          -7.3036  -26.6285  -51.2724 C.2       17 UNK         0.5000 
     98 O          -8.3054  -27.2824  -51.5669 O.2       17 UNK        -0.5000 
     99 N          -6.1596  -26.6600  -51.9694 N.am      18 UNK        -0.5000 
    100 CA        -5.9351  -27.5122  -53.1371 C.3       18 UNK         0.1400 
    101 CB        -4.7906  -28.4978  -52.8444 C.3       18 UNK        -0.1800 
    102 C         -5.6390  -26.6792  -54.3913 C.2       18 UNK         0.5000 
    103 O         -6.2785  -26.8966  -55.4214 O.2       18 UNK        -0.5000 
    104 N         -4.6757  -25.7513  -54.2979 N.am      19 UNK        -0.5000 
    105 CA        -4.2084  -24.9588  -55.4402 C.3       19 UNK         0.1400 
    106 CB        -2.8147  -24.3932  -55.1347 C.3       19 UNK        -0.1800 
    107 C         -5.1685  -23.8207  -55.8322 C.2       19 UNK         0.5000 
    108 O         -5.1845  -23.4266  -56.9988 O.2       19 UNK        -0.5000 
    109 N         -5.9317  -23.3105  -54.8530 N.am      20 UNK        -0.5000 
    110 CA        -6.8870  -22.1989  -54.9597 C.3       20 UNK         0.1400 
    111 CB        -8.0915  -22.5998  -55.8361 C.3       20 UNK        -0.1800 
    112 C         -6.2473  -20.8590  -55.3934 C.2       20 UNK         0.5000 
    113 O         -6.9236  -20.0143  -55.9822 O.2       20 UNK        -0.5000 
    114 N         -4.9602  -20.6771  -55.0750 N.am      21 UNK        -0.5000 
    115 CA        -4.1875  -19.4640  -55.3318 C.3       21 UNK         0.1400 
    116 CB        -2.6987  -19.8310  -55.4369 C.3       21 UNK        -0.1800 
    117 C         -4.4135  -18.4195  -54.2264 C.2       21 UNK         0.5000 
    118 O         -4.5841  -17.2382  -54.5297 O.2       21 UNK        -0.5000 
    119 N         -4.4380  -18.8838  -52.9709 N.am      22 UNK        -0.5000 
    120 CA        -4.7169  -18.0716  -51.7733 C.3       22 UNK         0.1400 
    121 C         -6.2298  -18.0095  -51.4043 C.2       22 UNK         0.5000 
    122 N         -7.1329  -18.6026  -52.1761 N.am      22 UNK        -0.7600 
    123 O         -6.5965  -17.4004  -50.4035 O.2       22 UNK        -0.5000 
    124 C124       -3.8585  -18.5199  -50.5617 C.3       23 UNK        -0.0398 
    125 S125       -2.0664  -18.3341  -50.8454 S.3       23 UNK        -0.2404 
    126 C126       -1.6666  -16.8787  -49.8286 C.3       23 UNK        -0.0205 
    127 H127        4.3622   -9.6449  -53.1750 H         1 UNK         0.0600 
    128 H128        3.2449   -8.3006  -52.9238 H         1 UNK         0.0600 
    129 H129        2.8244   -9.6032  -54.0413 H         1 UNK         0.0600 
    130 H130        4.3451  -11.0859  -51.4978 H         1 UNK         0.3000 
    131 H131        3.8095  -12.3522  -49.7851 H         1 UNK         0.0600 
    132 H132        1.6435  -13.5246  -49.6634 H         1 UNK         0.0800 
    133 H133        0.9243  -12.4080  -50.7827 H         1 UNK         0.0800 
    134 H134        3.9405  -15.1240  -50.5588 H         1 UNK         0.0800 
    135 H135        3.3736  -16.1210  -51.8769 H         1 UNK         0.0800 
    136 H136        0.2948  -15.7233  -51.3264 H         1 UNK         0.1150 
    137 H137       -0.3429  -17.8902  -47.7044 H         1 UNK         0.1150 
    138 H138        3.6385  -16.7926  -48.8549 H         1 UNK         0.1150 
    139 H139        1.6520  -17.9812  -46.0657 H         1 UNK         0.0800 
    140 H140        3.2594  -17.7583  -46.6803 H         1 UNK         0.0800 
    141 H141        0.4410  -20.3882  -48.3928 H         1 UNK         0.0800 
    142 H142        0.0898  -19.7896  -46.7847 H         1 UNK         0.0800 
    143 H143        1.1807  -22.5881  -47.2624 H         1 UNK         0.0600 
    144 H144        0.6143  -21.1502  -44.8537 H         1 UNK         0.3000 
    145 H145       -0.0627  -23.9907  -42.7843 H         1 UNK         0.0600 
    146 H146        2.3927  -23.7101  -42.7142 H         1 UNK         0.0600 
    147 H147        1.6501  -22.8016  -41.4067 H         1 UNK         0.0600 
    148 H148        2.2398  -21.9657  -42.8434 H         1 UNK         0.0600 
    149 H149       -0.1061  -21.1612  -42.3246 H         1 UNK         0.3000 
    150 H150       -3.5432  -20.6326  -43.0943 H         1 UNK         0.0600 
    151 H151       -2.0675  -20.7852  -40.4117 H         1 UNK         0.0600 
    152 H152       -3.5328  -21.6718  -40.8191 H         1 UNK         0.0600 
    153 H153       -3.5701  -19.9180  -40.7267 H         1 UNK         0.0600 
    154 H154       -1.4808  -18.9790  -41.9709 H         1 UNK         0.3000 
    155 H155       -0.2809  -17.6597  -45.0649 H         1 UNK         0.0600 
    156 H156       -0.8843  -15.5523  -43.9260 H         1 UNK         0.0600 
    157 H157       -1.9346  -16.4256  -42.8106 H         1 UNK         0.0600 
    158 H158       -2.3238  -16.3622  -44.5256 H         1 UNK         0.0600 
    159 H159        0.4764  -17.0545  -42.4120 H         1 UNK         0.3000 
    160 H160        2.4132  -19.7558  -41.5227 H         1 UNK         0.0600 
    161 H161        3.8433  -17.5719  -43.1159 H         1 UNK         0.0600 
    162 H162        4.0934  -19.3036  -43.2284 H         1 UNK         0.0600 
    163 H163        4.5604  -18.4509  -41.7647 H         1 UNK         0.0600 
    164 H164        2.6793  -16.9484  -40.8936 H         1 UNK         0.3000 
    165 H165       -0.1435  -16.7281  -38.7942 H         1 UNK         0.0600 
    166 H166        1.2751  -18.0956  -37.2536 H         1 UNK         0.0600 
    167 H167        2.7042  -17.2022  -37.7595 H         1 UNK         0.0600 
    168 H168        1.4067  -16.3830  -36.8885 H         1 UNK         0.0600 
    169 H169        2.1807  -15.0951  -38.9439 H         1 UNK         0.3000 
    170 H170        0.8105  -12.7881  -41.0632 H         1 UNK         0.0600 
    171 H171        2.9279  -11.9639  -40.0999 H         1 UNK         0.0600 
    172 H172        3.3973  -13.5829  -39.6041 H         1 UNK         0.0600 
    173 H173        2.0052  -12.7944  -38.8621 H         1 UNK         0.0600 
    174 H174        2.0664  -13.0051  -42.8998 H         1 UNK         0.3000 
    175 H175        4.6711  -15.2285  -43.9112 H         1 UNK         0.0600 
    176 H176        1.9063  -14.4403  -44.9693 H         1 UNK         0.0600 
    177 H177        2.4559  -16.0692  -44.6261 H         1 UNK         0.0600 
    178 H178        3.2188  -15.1441  -45.9100 H         1 UNK         0.0600 
    179 H179        5.3889  -13.2316  -44.4085 H         1 UNK         0.3000 
    180 H180        4.5489  -10.1434  -44.0975 H         1 UNK         0.0600 
    181 H181        6.2953  -11.9273  -45.8811 H         1 UNK         0.0600 
    182 H182        6.5595  -11.5896  -44.1669 H         1 UNK         0.0600 
    183 H183        6.6948  -10.3014  -45.3433 H         1 UNK         0.0600 
    184 H184        4.4785  -10.6640  -47.0119 H         1 UNK         0.3000 
    185 H185        1.7215   -8.6990  -47.6364 H         1 UNK         0.0600 
    186 H186        3.2187   -6.7380  -47.2664 H         1 UNK         0.0600 
    187 H187        4.5481   -7.5848  -48.0481 H         1 UNK         0.0600 
    188 H188        3.1138   -7.1368  -48.9731 H         1 UNK         0.0600 
    189 H189        3.8531   -9.5579  -49.3486 H         1 UNK         0.3000 
    190 H190       -1.8769  -21.0316  -46.1024 H         1 UNK         0.3000 
    191 H191       -3.4828  -21.6404  -48.2421 H         1 UNK         0.0600 
    192 H192       -4.1169  -20.0140  -46.5355 H         1 UNK         0.0600 
    193 H193       -5.3883  -21.2161  -46.6471 H         1 UNK         0.0600 
    194 H194       -4.2510  -21.2759  -45.3087 H         1 UNK         0.0600 
    195 H195       -2.7081  -23.8006  -45.5767 H         1 UNK         0.3000 
    196 H196       -4.5868  -25.8330  -45.8644 H         1 UNK         0.0600 
    197 H197       -2.8318  -27.2508  -44.7860 H         1 UNK         0.0600 
    198 H198       -2.9276  -25.6730  -44.0197 H         1 UNK         0.0600 
    199 H199       -1.6145  -26.0309  -45.1407 H         1 UNK         0.0600 
    200 H200       -2.1202  -24.9929  -48.1580 H         1 UNK         0.3000 
    201 H201       -3.0895  -27.2130  -49.9033 H         1 UNK         0.0600 
    202 H202       -0.8456  -27.2593  -50.9938 H         1 UNK         0.0600 
    203 H203       -0.7366  -27.7490  -49.3094 H         1 UNK         0.0600 
    204 H204       -0.2189  -26.1348  -49.7916 H         1 UNK         0.0600 
    205 H205       -1.6771  -23.9024  -49.6563 H         1 UNK         0.3000 
    206 H206       -1.9458  -23.2957  -52.3790 H         1 UNK         0.0600 
    207 H207       -0.3582  -22.2092  -50.7751 H         1 UNK         0.0600 
    208 H208       -1.2743  -21.0532  -51.7243 H         1 UNK         0.0600 
    209 H209       -1.7113  -21.3433  -50.0451 H         1 UNK         0.0600 
    210 H210       -4.3726  -23.0689  -49.8473 H         1 UNK         0.3000 
    211 H211       -6.2181  -21.5844  -51.6911 H         1 UNK         0.0600 
    212 H212       -6.5129  -21.9968  -48.6720 H         1 UNK         0.0600 
    213 H213       -5.8993  -20.5234  -49.4109 H         1 UNK         0.0600 
    214 H214       -7.5419  -21.0458  -49.7274 H         1 UNK         0.0600 
    215 H215       -5.8735  -24.3424  -49.4201 H         1 UNK         0.3000 
    216 H216       -8.3912  -25.4651  -49.8447 H         1 UNK         0.0600 
    217 H217       -5.8151  -26.8339  -48.9312 H         1 UNK         0.0600 
    218 H218       -7.4482  -27.4105  -48.6303 H         1 UNK         0.0600 
    219 H219       -6.8998  -25.9132  -47.8889 H         1 UNK         0.0600 
    220 H220       -5.3780  -26.0854  -51.6739 H         1 UNK         0.3000 
    221 H221       -6.8240  -28.1069  -53.3571 H         1 UNK         0.0600 
    222 H222       -3.8522  -27.9873  -52.6285 H         1 UNK         0.0600 
    223 H223       -5.0288  -29.1309  -51.9895 H         1 UNK         0.0600 
    224 H224       -4.6161  -29.1554  -53.6968 H         1 UNK         0.0600 
    225 H225       -4.1770  -25.6407  -53.4185 H         1 UNK         0.3000 
    226 H226       -4.1143  -25.6243  -56.3012 H         1 UNK         0.0600 
    227 H227       -2.1336  -25.1686  -54.7836 H         1 UNK         0.0600 
    228 H228       -2.3736  -23.9495  -56.0281 H         1 UNK         0.0600 
    229 H229       -2.8616  -23.6121  -54.3795 H         1 UNK         0.0600 
    230 H230       -5.8350  -23.7157  -53.9335 H         1 UNK         0.3000 
    231 H231       -7.2647  -22.0266  -53.9523 H         1 UNK         0.0600 
    232 H232       -7.8090  -22.7241  -56.8817 H         1 UNK         0.0600 
    233 H233       -8.8751  -21.8423  -55.7969 H         1 UNK         0.0600 
    234 H234       -8.5316  -23.5364  -55.4933 H         1 UNK         0.0600 
    235 H235       -4.5084  -21.3795  -54.4978 H         1 UNK         0.3000 
    236 H236       -4.5011  -19.0306  -56.2839 H         1 UNK         0.0600 
    237 H237       -2.3250  -20.2770  -54.5140 H         1 UNK         0.0600 
    238 H238       -2.5257  -20.5420  -56.2449 H         1 UNK         0.0600 
    239 H239       -2.0930  -18.9478  -55.6438 H         1 UNK         0.0600 
    240 H240       -4.2826  -19.8754  -52.8198 H         1 UNK         0.3000 
    241 H241       -4.4399  -17.0376  -51.9867 H         1 UNK         0.0600 
    242 H242       -6.8556  -19.0530  -53.0317 H         1 UNK         0.3800 
    243 H243       -8.1084  -18.5408  -51.9306 H         1 UNK         0.3800 
    244 H244       -4.1325  -17.9680  -49.6614 H         1 UNK         0.0800 
    245 H245       -4.0452  -19.5693  -50.3370 H         1 UNK         0.0800 
    246 H246       -1.9941  -15.9737  -50.3424 H         1 UNK         0.0800 
    247 H247       -2.2142  -16.9175  -48.8858 H         1 UNK         0.0800 
@<TRIPOS>BOND
     1    1    2 1    
     2    1  127 1    
     3    1  128 1    
     4    1  129 1    
     5    2    3 2    
     6    2    4 am   BACKBONE|DICT|INTERRES
     7    4    5 1    
     8    4  130 1    
     9    5    6 1    
    10    5   65 1    
    11    5  131 1    
    12    6    7 1    
    13    6  132 1    
    14    6  133 1    
    15    7    8 1    
    16    8    9 1    
    17    8  134 1    
    18    8  135 1    
    19    9   10 ar   
    20    9   14 ar   
    21   10   11 ar   
    22   10  136 1    
    23   11   12 ar   
    24   11  126 1    
    25   12   13 ar   
    26   12  137 1    
    27   13   14 ar   
    28   13   15 1    
    29   14  138 1    
    30   15   16 1    
    31   15  139 1    
    32   15  140 1    
    33   16   17 1    
    34   17   18 1    
    35   17  141 1    
    36   17  142 1    
    37   18   19 1    
    38   18   67 1    
    39   18  143 1    
    40   19   20 am   BACKBONE|DICT|INTERRES
    41   19  144 1    
    42   20   21 2    
    43   20   22 1    
    44   22   23 1    
    45   22   24 1    
    46   22  145 1    
    47   23  146 1    
    48   23  147 1    
    49   23  148 1    
    50   24   25 am   BACKBONE|DICT|INTERRES
    51   24  149 1    
    52   25   26 2    
    53   25   27 1    
    54   27   28 1    
    55   27   29 1    
    56   27  150 1    
    57   28  151 1    
    58   28  152 1    
    59   28  153 1    
    60   29   30 am   BACKBONE|DICT|INTERRES
    61   29  154 1    
    62   30   31 2    
    63   30   32 1    
    64   32   33 1    
    65   32   34 1    
    66   32  155 1    
    67   33  156 1    
    68   33  157 1    
    69   33  158 1    
    70   34   35 am   BACKBONE|DICT|INTERRES
    71   34  159 1    
    72   35   36 2    
    73   35   37 1    
    74   37   38 1    
    75   37   39 1    
    76   37  160 1    
    77   38  161 1    
    78   38  162 1    
    79   38  163 1    
    80   39   40 am   BACKBONE|DICT|INTERRES
    81   39  164 1    
    82   40   41 2    
    83   40   42 1    
    84   42   43 1    
    85   42   44 1    
    86   42  165 1    
    87   43  166 1    
    88   43  167 1    
    89   43  168 1    
    90   44   45 am   BACKBONE|DICT|INTERRES
    91   44  169 1    
    92   45   46 2    
    93   45   47 1    
    94   47   48 1    
    95   47   49 1    
    96   47  170 1    
    97   48  171 1    
    98   48  172 1    
    99   48  173 1    
   100   49   50 am   BACKBONE|DICT|INTERRES
   101   49  174 1    
   102   50   51 2    
   103   50   52 1    
   104   52   53 1    
   105   52   54 1    
   106   52  175 1    
   107   53  176 1    
   108   53  177 1    
   109   53  178 1    
   110   54   55 am   BACKBONE|DICT|INTERRES
   111   54  179 1    
   112   55   56 2    
   113   55   57 1    
   114   57   58 1    
   115   57   59 1    
   116   57  180 1    
   117   58  181 1    
   118   58  182 1    
   119   58  183 1    
   120   59   60 am   BACKBONE|DICT|INTERRES
   121   59  184 1    
   122   60   61 2    
   123   60   62 1    
   124   62   63 1    
   125   62   64 1    
   126   62  185 1    
   127   63  186 1    
   128   63  187 1    
   129   63  188 1    
   130   64   65 am   BACKBONE|DICT|INTERRES
   131   64  189 1    
   132   65   66 2    
   133   67   68 2    
   134   67   69 am   BACKBONE|DICT|INTERRES
   135   69   70 1    
   136   69  190 1    
   137   70   71 1    
   138   70   72 1    
   139   70  191 1    
   140   71  192 1    
   141   71  193 1    
   142   71  194 1    
   143   72   73 2    
   144   72   74 am   BACKBONE|DICT|INTERRES
   145   74   75 1    
   146   74  195 1    
   147   75   76 1    
   148   75   77 1    
   149   75  196 1    
   150   76  197 1    
   151   76  198 1    
   152   76  199 1    
   153   77   78 2    
   154   77   79 am   BACKBONE|DICT|INTERRES
   155   79   80 1    
   156   79  200 1    
   157   80   81 1    
   158   80   82 1    
   159   80  201 1    
   160   81  202 1    
   161   81  203 1    
   162   81  204 1    
   163   82   83 2    
   164   82   84 am   BACKBONE|DICT|INTERRES
   165   84   85 1    
   166   84  205 1    
   167   85   86 1    
   168   85   87 1    
   169   85  206 1    
   170   86  207 1    
   171   86  208 1    
   172   86  209 1    
   173   87   88 2    
   174   87   89 am   BACKBONE|DICT|INTERRES
   175   89   90 1    
   176   89  210 1    
   177   90   91 1    
   178   90   92 1    
   179   90  211 1    
   180   91  212 1    
   181   91  213 1    
   182   91  214 1    
   183   92   93 2    
   184   92   94 am   BACKBONE|DICT|INTERRES
   185   94   95 1    
   186   94  215 1    
   187   95   96 1    
   188   95   97 1    
   189   95  216 1    
   190   96  217 1    
   191   96  218 1    
   192   96  219 1    
   193   97   98 2    
   194   97   99 am   BACKBONE|DICT|INTERRES
   195   99  100 1    
   196   99  220 1    
   197  100  101 1    
   198  100  102 1    
   199  100  221 1    
   200  101  222 1    
   201  101  223 1    
   202  101  224 1    
   203  102  103 2    
   204  102  104 am   BACKBONE|DICT|INTERRES
   205  104  105 1    
   206  104  225 1    
   207  105  106 1    
   208  105  107 1    
   209  105  226 1    
   210  106  227 1    
   211  106  228 1    
   212  106  229 1    
   213  107  108 2    
   214  107  109 am   BACKBONE|DICT|INTERRES
   215  109  110 1    
   216  109  230 1    
   217  110  111 1    
   218  110  112 1    
   219  110  231 1    
   220  111  232 1    
   221  111  233 1    
   222  111  234 1    
   223  112  113 2    
   224  112  114 am   BACKBONE|DICT|INTERRES
   225  114  115 1    
   226  114  235 1    
   227  115  116 1    
   228  115  117 1    
   229  115  236 1    
   230  116  237 1    
   231  116  238 1    
   232  116  239 1    
   233  117  118 2    
   234  117  119 am   BACKBONE|DICT|INTERRES
   235  119  120 1    
   236  119  240 1    
   237  120  121 1    
   238  120  124 1    
   239  120  241 1    
   240  121  122 am   BACKBONE|DICT|INTERRES
   241  121  123 2    
   242  122  242 1    
   243  122  243 1    
   244  124  125 1    
   245  124  244 1    
   246  124  245 1    
   247  125  126 1    
   248  126  246 1    
   249  126  247 1    
@<TRIPOS>SUBSTRUCTURE
     1 UNK         1 GROUP             0       ****    0 ROOT    
