@<TRIPOS>MOLECULE
3R540
247   249    1
SMALL
USER_CHARGES


@<TRIPOS>ATOM
      1 CA         -1.6731  -11.6631  -46.8176 C.3       0 UNK        -0.1800 
      2 C          -0.3862  -12.0892  -47.5101 C.2       0 UNK         0.5000 
      3 O          -0.4355  -12.7112  -48.5699 O.2       0 UNK        -0.5000 
      4 N           0.7626  -11.7625  -46.9138 N.am      1 UNK        -0.5000 
      5 CA          2.0990  -12.0953  -47.3983 C.3       1 UNK         0.1400 
      6 C6          2.4796  -13.5674  -47.0805 C.3       23 UNK        -0.0398 
      7 S7          3.7450  -14.2396  -48.2084 S.3       23 UNK        -0.2404 
      8 C8          3.3802  -16.0252  -48.1127 C.3       23 UNK        -0.0205 
      9 C9          2.4141  -16.5468  -49.1737 C.ar      23 UNK        -0.0193 
     10 C10         1.3432  -15.7835  -49.6489 C.ar      23 UNK        -0.1150 
     11 C11         0.4680  -16.2839  -50.6159 C.ar      23 UNK        -0.0193 
     12 C12         0.6762  -17.5786  -51.1157 C.ar      23 UNK        -0.1150 
     13 C13         1.7386  -18.3592  -50.6460 C.ar      23 UNK        -0.0193 
     14 C14         2.5946  -17.8381  -49.6727 C.ar      23 UNK        -0.1150 
     15 C15         2.0014  -19.7528  -51.2074 C.3       23 UNK        -0.0205 
     16 S16         0.7651  -20.9941  -50.7053 S.3       23 UNK        -0.2404 
     17 C17         0.5952  -20.6973  -48.9107 C.3       23 UNK        -0.0398 
     18 CA          0.2161  -21.9476  -48.0774 C.3       11 UNK         0.1400 
     19 N           0.2269  -21.6473  -46.6406 N.am      11 UNK        -0.5000 
     20 C           0.0600  -22.5456  -45.6589 C.2       10 UNK         0.5000 
     21 O          -0.0382  -23.7560  -45.8505 O.2       10 UNK        -0.5000 
     22 CA         -0.0709  -22.0019  -44.2239 C.3       10 UNK         0.1400 
     23 CB          1.3110  -21.7348  -43.6104 C.3       10 UNK        -0.1800 
     24 N          -0.8970  -20.7950  -44.1502 N.am      10 UNK        -0.5000 
     25 C          -2.2041  -20.7554  -44.4499 C.2       9 UNK         0.5000 
     26 O          -2.8606  -21.7486  -44.7568 O.2       9 UNK        -0.5000 
     27 CA         -2.8854  -19.3743  -44.4592 C.3       9 UNK         0.1400 
     28 CB         -3.3053  -18.9564  -43.0427 C.3       9 UNK        -0.1800 
     29 N          -2.0422  -18.3375  -45.0535 N.am      9 UNK        -0.5000 
     30 C          -1.6310  -18.3350  -46.3297 C.2       8 UNK         0.5000 
     31 O          -1.9801  -19.1751  -47.1568 O.2       8 UNK        -0.5000 
     32 CA         -0.6062  -17.2557  -46.7250 C.3       8 UNK         0.1400 
     33 CB         -1.2985  -15.9220  -47.0396 C.3       8 UNK        -0.1800 
     34 N           0.4055  -17.0651  -45.6817 N.am      8 UNK        -0.5000 
     35 C           1.3270  -17.9863  -45.3630 C.2       7 UNK         0.5000 
     36 O           1.4755  -19.0391  -45.9831 O.2       7 UNK        -0.5000 
     37 CA          2.1895  -17.7163  -44.1163 C.3       7 UNK         0.1400 
     38 CB          3.4622  -16.9371  -44.4686 C.3       7 UNK        -0.1800 
     39 N           1.4491  -16.9993  -43.0790 N.am      7 UNK        -0.5000 
     40 C           0.5341  -17.5767  -42.2869 C.2       6 UNK         0.5000 
     41 O           0.2501  -18.7724  -42.3430 O.2       6 UNK        -0.5000 
     42 CA         -0.2209  -16.6686  -41.2957 C.3       6 UNK         0.1400 
     43 CB          0.5502  -16.5605  -39.9721 C.3       6 UNK        -0.1800 
     44 N          -0.4666  -15.3248  -41.8186 N.am      6 UNK        -0.5000 
     45 C          -1.1889  -15.0479  -42.9128 C.2       5 UNK         0.5000 
     46 O          -1.8043  -15.8998  -43.5520 O.2       5 UNK        -0.5000 
     47 CA         -1.1750  -13.5910  -43.4168 C.3       5 UNK         0.1400 
     48 CB         -2.4556  -12.8591  -42.9914 C.3       5 UNK        -0.1800 
     49 N          -0.0072  -12.8118  -42.9876 N.am      5 UNK        -0.5000 
     50 C           1.2664  -13.1097  -43.2794 C.2       4 UNK         0.5000 
     51 O           1.5912  -14.1119  -43.9191 O.2       4 UNK        -0.5000 
     52 CA          2.3246  -12.1219  -42.7540 C.3       4 UNK         0.1400 
     53 CB          2.4144  -12.1486  -41.2139 C.3       4 UNK        -0.1800 
     54 N           3.6389  -12.2967  -43.3833 N.am      4 UNK        -0.5000 
     55 C           4.5497  -13.2662  -43.1977 C.2       3 UNK         0.5000 
     56 O           4.4301  -14.1705  -42.3704 O.2       3 UNK        -0.5000 
     57 CA          5.8163  -13.2193  -44.0875 C.3       3 UNK         0.1400 
     58 CB          6.2416  -14.6205  -44.5605 C.3       3 UNK        -0.1800 
     59 N           5.6457  -12.3747  -45.2711 N.am      3 UNK        -0.5000 
     60 C           5.8986  -11.0612  -45.3544 C.2       2 UNK         0.5000 
     61 O           6.4026  -10.3999  -44.4472 O.2       2 UNK        -0.5000 
     62 CA          5.4527  -10.3646  -46.6590 C.3       2 UNK         0.1400 
     63 CB          6.6140  -10.3017  -47.6621 C.3       2 UNK        -0.1800 
     64 N           4.3077  -11.0344  -47.2884 N.am      2 UNK        -0.5000 
     65 C           3.0875  -11.1169  -46.7415 C.2       1 UNK         0.5000 
     66 O           2.7620  -10.5173  -45.7122 O.2       1 UNK        -0.5000 
     67 C          -1.1308  -22.5733  -48.5082 C.2       11 UNK         0.5000 
     68 O          -1.1377  -23.6326  -49.1400 O.2       11 UNK        -0.5000 
     69 N          -2.2425  -21.9487  -48.0949 N.am      12 UNK        -0.5000 
     70 CA         -3.6018  -22.4231  -48.3477 C.3       12 UNK         0.1400 
     71 CB         -4.6118  -21.3760  -47.8591 C.3       12 UNK        -0.1800 
     72 C          -3.8800  -23.7939  -47.7067 C.2       12 UNK         0.5000 
     73 O          -4.4388  -24.6675  -48.3687 O.2       12 UNK        -0.5000 
     74 N          -3.4530  -23.9722  -46.4491 N.am      13 UNK        -0.5000 
     75 CA         -3.5706  -25.2197  -45.6937 C.3       13 UNK         0.1400 
     76 CB         -3.2068  -24.9648  -44.2236 C.3       13 UNK        -0.1800 
     77 C          -2.7201  -26.3673  -46.2680 C.2       13 UNK         0.5000 
     78 O          -3.1496  -27.5186  -46.2047 O.2       13 UNK        -0.5000 
     79 N          -1.5430  -26.0447  -46.8222 N.am      14 UNK        -0.5000 
     80 CA         -0.6634  -26.9963  -47.5018 C.3       14 UNK         0.1400 
     81 CB          0.7226  -26.3680  -47.7134 C.3       14 UNK        -0.1800 
     82 C          -1.2535  -27.4870  -48.8358 C.2       14 UNK         0.5000 
     83 O          -1.1413  -28.6739  -49.1456 O.2       14 UNK        -0.5000 
     84 N          -1.8843  -26.5753  -49.5897 N.am      15 UNK        -0.5000 
     85 CA         -2.6093  -26.8880  -50.8221 C.3       15 UNK         0.1400 
     86 CB         -2.8914  -25.5887  -51.5892 C.3       15 UNK        -0.1800 
     87 C          -3.9133  -27.6627  -50.5538 C.2       15 UNK         0.5000 
     88 O          -4.2033  -28.6262  -51.2634 O.2       15 UNK        -0.5000 
     89 N          -4.6535  -27.2242  -49.5256 N.am      16 UNK        -0.5000 
     90 CA         -5.9211  -27.7582  -49.0246 C.3       16 UNK         0.1400 
     91 CB         -5.6670  -29.0945  -48.2948 C.3       16 UNK        -0.1800 
     92 C          -7.0286  -27.8757  -50.1016 C.2       16 UNK         0.5000 
     93 O          -7.5401  -28.9746  -50.3194 O.2       16 UNK        -0.5000 
     94 N          -7.4273  -26.8029  -50.7976 N.am      17 UNK        -0.5000 
     95 CA         -6.9891  -25.4085  -50.7680 C.3       17 UNK         0.1400 
     96 CB         -7.6322  -24.6634  -49.5843 C.3       17 UNK        -0.1800 
     97 C          -7.4116  -24.7855  -52.1091 C.2       17 UNK         0.5000 
     98 O          -8.2677  -25.3499  -52.7988 O.2       17 UNK        -0.5000 
     99 N          -6.8171  -23.6433  -52.4660 N.am      18 UNK        -0.5000 
    100 CA        -7.0800  -22.9414  -53.7188 C.3       18 UNK         0.1400 
    101 CB        -6.2017  -23.5359  -54.8357 C.3       18 UNK        -0.1800 
    102 C         -6.7842  -21.4486  -53.5497 C.2       18 UNK         0.5000 
    103 O         -5.9633  -21.0769  -52.7063 O.2       18 UNK        -0.5000 
    104 N         -7.4031  -20.6237  -54.4042 N.am      19 UNK        -0.5000 
    105 CA        -7.1486  -19.1829  -54.5032 C.3       19 UNK         0.1400 
    106 CB        -8.2110  -18.5392  -55.4062 C.3       19 UNK        -0.1800 
    107 C         -5.7321  -18.8650  -55.0202 C.2       19 UNK         0.5000 
    108 O         -5.1510  -17.8575  -54.6198 O.2       19 UNK        -0.5000 
    109 N         -5.1745  -19.7635  -55.8457 N.am      20 UNK        -0.5000 
    110 CA        -3.7847  -19.7323  -56.3127 C.3       20 UNK         0.1400 
    111 CB        -3.6111  -20.7792  -57.4236 C.3       20 UNK        -0.1800 
    112 C         -2.7593  -19.9697  -55.1836 C.2       20 UNK         0.5000 
    113 O         -1.6172  -19.5258  -55.2985 O.2       20 UNK        -0.5000 
    114 N         -3.1965  -20.6409  -54.1101 N.am      21 UNK        -0.5000 
    115 CA        -2.4526  -20.8447  -52.8680 C.3       21 UNK         0.1400 
    116 CB        -2.6762  -22.2913  -52.4012 C.3       21 UNK        -0.1800 
    117 C         -2.8731  -19.8334  -51.7816 C.2       21 UNK         0.5000 
    118 O         -2.4878  -19.9956  -50.6265 O.2       21 UNK        -0.5000 
    119 N         -3.6568  -18.8143  -52.1601 N.am      22 UNK        -0.5000 
    120 CA        -4.1459  -17.7289  -51.2971 C.3       22 UNK         0.1400 
    121 C         -5.1910  -18.1737  -50.2306 C.2       22 UNK         0.5000 
    122 N         -5.8930  -19.2856  -50.4219 N.am      22 UNK        -0.7600 
    123 O         -5.4071  -17.4840  -49.2377 O.2       22 UNK        -0.5000 
    124 C124       -2.9964  -16.8530  -50.7229 C.3       23 UNK        -0.0398 
    125 S125       -1.9866  -16.1274  -52.0598 S.3       23 UNK        -0.2404 
    126 C126       -0.6397  -15.3516  -51.1108 C.3       23 UNK        -0.0205 
    127 H127       -2.2320  -10.9769  -47.4536 H         1 UNK         0.0600 
    128 H128       -1.4765  -11.1656  -45.8675 H         1 UNK         0.0600 
    129 H129       -2.2984  -12.5342  -46.6216 H         1 UNK         0.0600 
    130 H130        0.7709  -11.1936  -46.0759 H         1 UNK         0.3000 
    131 H131        2.1200  -11.9261  -48.4773 H         1 UNK         0.0600 
    132 H132        2.8439  -13.6751  -46.0592 H         1 UNK         0.0800 
    133 H133        1.5984  -14.2056  -47.1349 H         1 UNK         0.0800 
    134 H134        2.9728  -16.2643  -47.1338 H         1 UNK         0.0800 
    135 H135        4.3304  -16.5563  -48.1868 H         1 UNK         0.0800 
    136 H136        1.1868  -14.7812  -49.2801 H         1 UNK         0.1150 
    137 H137        0.0260  -17.9865  -51.8759 H         1 UNK         0.1150 
    138 H138        3.4155  -18.4397  -49.3079 H         1 UNK         0.1150 
    139 H139        2.0207  -19.7002  -52.2967 H         1 UNK         0.0800 
    140 H140        2.9884  -20.1070  -50.9060 H         1 UNK         0.0800 
    141 H141       -0.1405  -19.9045  -48.7786 H         1 UNK         0.0800 
    142 H142        1.5390  -20.2988  -48.5371 H         1 UNK         0.0800 
    143 H143        0.9876  -22.7018  -48.2458 H         1 UNK         0.0600 
    144 H144        0.3530  -20.6734  -46.3858 H         1 UNK         0.3000 
    145 H145       -0.5594  -22.7709  -43.6223 H         1 UNK         0.0600 
    146 H146        1.2265  -21.3934  -42.5786 H         1 UNK         0.0600 
    147 H147        1.9142  -22.6434  -43.6036 H         1 UNK         0.0600 
    148 H148        1.8637  -20.9814  -44.1701 H         1 UNK         0.0600 
    149 H149       -0.4426  -19.9483  -43.8256 H         1 UNK         0.3000 
    150 H150       -3.7877  -19.4544  -45.0690 H         1 UNK         0.0600 
    151 H151       -3.9812  -19.6919  -42.6049 H         1 UNK         0.0600 
    152 H152       -3.8266  -17.9989  -43.0520 H         1 UNK         0.0600 
    153 H153       -2.4476  -18.8636  -42.3774 H         1 UNK         0.0600 
    154 H154       -1.7690  -17.5673  -44.4493 H         1 UNK         0.3000 
    155 H155       -0.1003  -17.5930  -47.6325 H         1 UNK         0.0600 
    156 H156       -1.8312  -15.5218  -46.1777 H         1 UNK         0.0600 
    157 H157       -0.5777  -15.1750  -47.3666 H         1 UNK         0.0600 
    158 H158       -2.0242  -16.0431  -47.8443 H         1 UNK         0.0600 
    159 H159        0.3314  -16.2366  -45.1094 H         1 UNK         0.3000 
    160 H160        2.4993  -18.6831  -43.7146 H         1 UNK         0.0600 
    161 H161        4.0412  -17.4551  -45.2340 H         1 UNK         0.0600 
    162 H162        3.2341  -15.9387  -44.8398 H         1 UNK         0.0600 
    163 H163        4.1056  -16.8249  -43.5958 H         1 UNK         0.0600 
    164 H164        1.5999  -15.9977  -43.0259 H         1 UNK         0.3000 
    165 H165       -1.1890  -17.1306  -41.0926 H         1 UNK         0.0600 
    166 H166       -0.0110  -15.9875  -39.2338 H         1 UNK         0.0600 
    167 H167        0.7330  -17.5477  -39.5454 H         1 UNK         0.0600 
    168 H168        1.5185  -16.0770  -40.1086 H         1 UNK         0.0600 
    169 H169        0.0082  -14.5639  -41.3568 H         1 UNK         0.3000 
    170 H170       -1.1543  -13.6341  -44.5075 H         1 UNK         0.0600 
    171 H171       -3.3432  -13.4001  -43.3224 H         1 UNK         0.0600 
    172 H172       -2.5186  -12.7562  -41.9074 H         1 UNK         0.0600 
    173 H173       -2.5045  -11.8616  -43.4284 H         1 UNK         0.0600 
    174 H174       -0.2025  -11.9794  -42.4499 H         1 UNK         0.3000 
    175 H175        1.9959  -11.1245  -43.0493 H         1 UNK         0.0600 
    176 H176        2.6063  -13.1513  -40.8310 H         1 UNK         0.0600 
    177 H177        3.2078  -11.4938  -40.8534 H         1 UNK         0.0600 
    178 H178        1.4843  -11.8050  -40.7604 H         1 UNK         0.0600 
    179 H179        3.8322  -11.6217  -44.1112 H         1 UNK         0.3000 
    180 H180        6.6202  -12.8168  -43.4681 H         1 UNK         0.0600 
    181 H181        5.4967  -15.0635  -45.2214 H         1 UNK         0.0600 
    182 H182        6.3879  -15.3003  -43.7204 H         1 UNK         0.0600 
    183 H183        7.1844  -14.5787  -45.1061 H         1 UNK         0.0600 
    184 H184        5.2395  -12.8259  -46.0776 H         1 UNK         0.3000 
    185 H185        5.1573   -9.3437  -46.4078 H         1 UNK         0.0600 
    186 H186        6.3291   -9.7556  -48.5616 H         1 UNK         0.0600 
    187 H187        7.4748   -9.7889  -47.2308 H         1 UNK         0.0600 
    188 H188        6.9417  -11.2978  -47.9627 H         1 UNK         0.0600 
    189 H189        4.5016  -11.5570  -48.1317 H         1 UNK         0.3000 
    190 H190       -2.1538  -21.0498  -47.6287 H         1 UNK         0.3000 
    191 H191       -3.7161  -22.5263  -49.4285 H         1 UNK         0.0600 
    192 H192       -4.5874  -21.2614  -46.7756 H         1 UNK         0.0600 
    193 H193       -5.6281  -21.6546  -48.1395 H         1 UNK         0.0600 
    194 H194       -4.4041  -20.4006  -48.2982 H         1 UNK         0.0600 
    195 H195       -3.0482  -23.1802  -45.9552 H         1 UNK         0.3000 
    196 H196       -4.6156  -25.5340  -45.7348 H         1 UNK         0.0600 
    197 H197       -3.3100  -25.8745  -43.6309 H         1 UNK         0.0600 
    198 H198       -3.8592  -24.2122  -43.7805 H         1 UNK         0.0600 
    199 H199       -2.1779  -24.6192  -44.1200 H         1 UNK         0.0600 
    200 H200       -1.2180  -25.0846  -46.7637 H         1 UNK         0.3000 
    201 H201       -0.5411  -27.8663  -46.8533 H         1 UNK         0.0600 
    202 H202        1.1823  -26.1007  -46.7619 H         1 UNK         0.0600 
    203 H203        0.6696  -25.4662  -48.3236 H         1 UNK         0.0600 
    204 H204        1.3952  -27.0650  -48.2145 H         1 UNK         0.0600 
    205 H205       -1.8833  -25.6071  -49.2862 H         1 UNK         0.3000 
    206 H206       -1.9708  -27.5162  -51.4468 H         1 UNK         0.0600 
    207 H207       -1.9594  -25.1055  -51.8818 H         1 UNK         0.0600 
    208 H208       -3.4599  -25.7817  -52.4999 H         1 UNK         0.0600 
    209 H209       -3.4596  -24.8789  -50.9876 H         1 UNK         0.0600 
    210 H210       -4.3469  -26.3747  -49.0561 H         1 UNK         0.3000 
    211 H211       -6.2798  -27.0520  -48.2768 H         1 UNK         0.0600 
    212 H212       -5.3007  -29.8645  -48.9746 H         1 UNK         0.0600 
    213 H213       -6.5812  -29.4699  -47.8337 H         1 UNK         0.0600 
    214 H214       -4.9316  -28.9777  -47.5001 H         1 UNK         0.0600 
    215 H215       -8.1155  -26.9450  -51.5274 H         1 UNK         0.3000 
    216 H216       -5.9048  -25.3418  -50.7061 H         1 UNK         0.0600 
    217 H217       -7.3481  -23.6104  -49.5858 H         1 UNK         0.0600 
    218 H218       -7.3169  -25.0716  -48.6256 H         1 UNK         0.0600 
    219 H219       -8.7210  -24.7099  -49.6255 H         1 UNK         0.0600 
    220 H220       -6.1702  -23.1744  -51.8453 H         1 UNK         0.3000 
    221 H221       -8.1339  -23.0472  -53.9857 H         1 UNK         0.0600 
    222 H222       -5.1399  -23.4490  -54.6004 H         1 UNK         0.0600 
    223 H223       -6.4220  -24.5920  -54.9919 H         1 UNK         0.0600 
    224 H224       -6.3717  -23.0293  -55.7863 H         1 UNK         0.0600 
    225 H225       -8.0648  -21.0074  -55.0640 H         1 UNK         0.3000 
    226 H226       -7.2398  -18.7520  -53.5036 H         1 UNK         0.0600 
    227 H227       -9.2140  -18.6983  -55.0099 H         1 UNK         0.0600 
    228 H228       -8.0593  -17.4614  -55.4796 H         1 UNK         0.0600 
    229 H229       -8.1805  -18.9449  -56.4182 H         1 UNK         0.0600 
    230 H230       -5.7302  -20.5537  -56.1371 H         1 UNK         0.3000 
    231 H231       -3.5891  -18.7444  -56.7348 H         1 UNK         0.0600 
    232 H232       -2.5931  -20.7679  -57.8153 H         1 UNK         0.0600 
    233 H233       -4.2817  -20.5823  -58.2602 H         1 UNK         0.0600 
    234 H234       -3.8120  -21.7882  -57.0609 H         1 UNK         0.0600 
    235 H235       -4.1643  -20.9306  -54.0830 H         1 UNK         0.3000 
    236 H236       -1.3839  -20.7054  -53.0422 H         1 UNK         0.0600 
    237 H237       -2.3971  -23.0018  -53.1789 H         1 UNK         0.0600 
    238 H238       -2.0676  -22.5153  -51.5247 H         1 UNK         0.0600 
    239 H239       -3.7167  -22.4753  -52.1339 H         1 UNK         0.0600 
    240 H240       -3.9348  -18.7449  -53.1299 H         1 UNK         0.3000 
    241 H241       -4.7226  -17.0842  -51.9609 H         1 UNK         0.0600 
    242 H242       -5.7488  -19.8657  -51.2432 H         1 UNK         0.3800 
    243 H243       -6.5805  -19.5530  -49.7378 H         1 UNK         0.3800 
    244 H244       -3.3983  -16.0311  -50.1286 H         1 UNK         0.0800 
    245 H245       -2.3577  -17.4331  -50.0548 H         1 UNK         0.0800 
    246 H246       -0.1786  -14.5920  -51.7431 H         1 UNK         0.0800 
    247 H247       -1.0757  -14.8185  -50.2642 H         1 UNK         0.0800 
@<TRIPOS>BOND
     1    1    2 1    
     2    1  127 1    
     3    1  128 1    
     4    1  129 1    
     5    2    3 2    
     6    2    4 am   BACKBONE|DICT|INTERRES
     7    4    5 1    
     8    4  130 1    
     9    5    6 1    
    10    5   65 1    
    11    5  131 1    
    12    6    7 1    
    13    6  132 1    
    14    6  133 1    
    15    7    8 1    
    16    8    9 1    
    17    8  134 1    
    18    8  135 1    
    19    9   10 ar   
    20    9   14 ar   
    21   10   11 ar   
    22   10  136 1    
    23   11   12 ar   
    24   11  126 1    
    25   12   13 ar   
    26   12  137 1    
    27   13   14 ar   
    28   13   15 1    
    29   14  138 1    
    30   15   16 1    
    31   15  139 1    
    32   15  140 1    
    33   16   17 1    
    34   17   18 1    
    35   17  141 1    
    36   17  142 1    
    37   18   19 1    
    38   18   67 1    
    39   18  143 1    
    40   19   20 am   BACKBONE|DICT|INTERRES
    41   19  144 1    
    42   20   21 2    
    43   20   22 1    
    44   22   23 1    
    45   22   24 1    
    46   22  145 1    
    47   23  146 1    
    48   23  147 1    
    49   23  148 1    
    50   24   25 am   BACKBONE|DICT|INTERRES
    51   24  149 1    
    52   25   26 2    
    53   25   27 1    
    54   27   28 1    
    55   27   29 1    
    56   27  150 1    
    57   28  151 1    
    58   28  152 1    
    59   28  153 1    
    60   29   30 am   BACKBONE|DICT|INTERRES
    61   29  154 1    
    62   30   31 2    
    63   30   32 1    
    64   32   33 1    
    65   32   34 1    
    66   32  155 1    
    67   33  156 1    
    68   33  157 1    
    69   33  158 1    
    70   34   35 am   BACKBONE|DICT|INTERRES
    71   34  159 1    
    72   35   36 2    
    73   35   37 1    
    74   37   38 1    
    75   37   39 1    
    76   37  160 1    
    77   38  161 1    
    78   38  162 1    
    79   38  163 1    
    80   39   40 am   BACKBONE|DICT|INTERRES
    81   39  164 1    
    82   40   41 2    
    83   40   42 1    
    84   42   43 1    
    85   42   44 1    
    86   42  165 1    
    87   43  166 1    
    88   43  167 1    
    89   43  168 1    
    90   44   45 am   BACKBONE|DICT|INTERRES
    91   44  169 1    
    92   45   46 2    
    93   45   47 1    
    94   47   48 1    
    95   47   49 1    
    96   47  170 1    
    97   48  171 1    
    98   48  172 1    
    99   48  173 1    
   100   49   50 am   BACKBONE|DICT|INTERRES
   101   49  174 1    
   102   50   51 2    
   103   50   52 1    
   104   52   53 1    
   105   52   54 1    
   106   52  175 1    
   107   53  176 1    
   108   53  177 1    
   109   53  178 1    
   110   54   55 am   BACKBONE|DICT|INTERRES
   111   54  179 1    
   112   55   56 2    
   113   55   57 1    
   114   57   58 1    
   115   57   59 1    
   116   57  180 1    
   117   58  181 1    
   118   58  182 1    
   119   58  183 1    
   120   59   60 am   BACKBONE|DICT|INTERRES
   121   59  184 1    
   122   60   61 2    
   123   60   62 1    
   124   62   63 1    
   125   62   64 1    
   126   62  185 1    
   127   63  186 1    
   128   63  187 1    
   129   63  188 1    
   130   64   65 am   BACKBONE|DICT|INTERRES
   131   64  189 1    
   132   65   66 2    
   133   67   68 2    
   134   67   69 am   BACKBONE|DICT|INTERRES
   135   69   70 1    
   136   69  190 1    
   137   70   71 1    
   138   70   72 1    
   139   70  191 1    
   140   71  192 1    
   141   71  193 1    
   142   71  194 1    
   143   72   73 2    
   144   72   74 am   BACKBONE|DICT|INTERRES
   145   74   75 1    
   146   74  195 1    
   147   75   76 1    
   148   75   77 1    
   149   75  196 1    
   150   76  197 1    
   151   76  198 1    
   152   76  199 1    
   153   77   78 2    
   154   77   79 am   BACKBONE|DICT|INTERRES
   155   79   80 1    
   156   79  200 1    
   157   80   81 1    
   158   80   82 1    
   159   80  201 1    
   160   81  202 1    
   161   81  203 1    
   162   81  204 1    
   163   82   83 2    
   164   82   84 am   BACKBONE|DICT|INTERRES
   165   84   85 1    
   166   84  205 1    
   167   85   86 1    
   168   85   87 1    
   169   85  206 1    
   170   86  207 1    
   171   86  208 1    
   172   86  209 1    
   173   87   88 2    
   174   87   89 am   BACKBONE|DICT|INTERRES
   175   89   90 1    
   176   89  210 1    
   177   90   91 1    
   178   90   92 1    
   179   90  211 1    
   180   91  212 1    
   181   91  213 1    
   182   91  214 1    
   183   92   93 2    
   184   92   94 am   BACKBONE|DICT|INTERRES
   185   94   95 1    
   186   94  215 1    
   187   95   96 1    
   188   95   97 1    
   189   95  216 1    
   190   96  217 1    
   191   96  218 1    
   192   96  219 1    
   193   97   98 2    
   194   97   99 am   BACKBONE|DICT|INTERRES
   195   99  100 1    
   196   99  220 1    
   197  100  101 1    
   198  100  102 1    
   199  100  221 1    
   200  101  222 1    
   201  101  223 1    
   202  101  224 1    
   203  102  103 2    
   204  102  104 am   BACKBONE|DICT|INTERRES
   205  104  105 1    
   206  104  225 1    
   207  105  106 1    
   208  105  107 1    
   209  105  226 1    
   210  106  227 1    
   211  106  228 1    
   212  106  229 1    
   213  107  108 2    
   214  107  109 am   BACKBONE|DICT|INTERRES
   215  109  110 1    
   216  109  230 1    
   217  110  111 1    
   218  110  112 1    
   219  110  231 1    
   220  111  232 1    
   221  111  233 1    
   222  111  234 1    
   223  112  113 2    
   224  112  114 am   BACKBONE|DICT|INTERRES
   225  114  115 1    
   226  114  235 1    
   227  115  116 1    
   228  115  117 1    
   229  115  236 1    
   230  116  237 1    
   231  116  238 1    
   232  116  239 1    
   233  117  118 2    
   234  117  119 am   BACKBONE|DICT|INTERRES
   235  119  120 1    
   236  119  240 1    
   237  120  121 1    
   238  120  124 1    
   239  120  241 1    
   240  121  122 am   BACKBONE|DICT|INTERRES
   241  121  123 2    
   242  122  242 1    
   243  122  243 1    
   244  124  125 1    
   245  124  244 1    
   246  124  245 1    
   247  125  126 1    
   248  126  246 1    
   249  126  247 1    
@<TRIPOS>SUBSTRUCTURE
     1 UNK         1 GROUP             0       ****    0 ROOT    
