@<TRIPOS>MOLECULE
3R540
247   249    1
SMALL
USER_CHARGES


@<TRIPOS>ATOM
      1 CA          2.8534  -11.0407  -51.2926 C.3       0 UNK        -0.1800 
      2 C           3.0881  -12.4871  -50.8818 C.2       0 UNK         0.5000 
      3 O           3.8739  -12.7444  -49.9707 O.2       0 UNK        -0.5000 
      4 N           2.4045  -13.4285  -51.5449 N.am      1 UNK        -0.5000 
      5 CA          2.4723  -14.8733  -51.2845 C.3       1 UNK         0.1400 
      6 C6          1.8401  -15.6963  -52.4347 C.3       23 UNK        -0.0398 
      7 S7          0.1213  -15.2107  -52.8312 S.3       23 UNK        -0.2404 
      8 C8         -0.6695  -16.8266  -53.0929 C.3       23 UNK        -0.0205 
      9 C9         -0.8856  -17.6081  -51.8037 C.ar      23 UNK        -0.0193 
     10 C10        -1.7385  -17.1147  -50.8105 C.ar      23 UNK        -0.1150 
     11 C11        -2.0069  -17.8717  -49.6656 C.ar      23 UNK        -0.0193 
     12 C12        -1.4109  -19.1261  -49.5165 C.ar      23 UNK        -0.1150 
     13 C13        -0.5351  -19.6186  -50.4869 C.ar      23 UNK        -0.0193 
     14 C14        -0.2760  -18.8543  -51.6284 C.ar      23 UNK        -0.1150 
     15 C15         0.0872  -20.9977  -50.3303 C.3       23 UNK        -0.0205 
     16 S16         1.6769  -20.9642  -49.4302 S.3       23 UNK        -0.2404 
     17 C17         1.1848  -20.7339  -47.6818 C.3       23 UNK        -0.0398 
     18 CA          1.0018  -22.0625  -46.9037 C.3       11 UNK         0.1400 
     19 N           0.9625  -21.8579  -45.4532 N.am      11 UNK        -0.5000 
     20 C           0.9133  -22.8386  -44.5387 C.2       10 UNK         0.5000 
     21 O           0.9460  -24.0374  -44.8146 O.2       10 UNK        -0.5000 
     22 CA          0.7445  -22.4148  -43.0696 C.3       10 UNK         0.1400 
     23 CB          2.0750  -21.9207  -42.4831 C.3       10 UNK        -0.1800 
     24 N          -0.2914  -21.3968  -42.8909 N.am      10 UNK        -0.5000 
     25 C          -1.5882  -21.5749  -43.1847 C.2       9 UNK         0.5000 
     26 O          -2.0552  -22.6286  -43.6159 O.2       9 UNK        -0.5000 
     27 CA         -2.5157  -20.3605  -43.0089 C.3       9 UNK         0.1400 
     28 CB         -2.8745  -20.1522  -41.5302 C.3       9 UNK        -0.1800 
     29 N          -1.9415  -19.1316  -43.5522 N.am      9 UNK        -0.5000 
     30 C          -1.6316  -18.9397  -44.8430 C.2       8 UNK         0.5000 
     31 O          -1.8178  -19.7689  -45.7341 O.2       8 UNK        -0.5000 
     32 CA         -0.9428  -17.6101  -45.1801 C.3       8 UNK         0.1400 
     33 CB         -1.9386  -16.4413  -45.0924 C.3       8 UNK        -0.1800 
     34 N           0.1834  -17.3419  -44.2928 N.am      8 UNK        -0.5000 
     35 C           1.2698  -18.1087  -44.1409 C.2       7 UNK         0.5000 
     36 O           1.4772  -19.1431  -44.7741 O.2       7 UNK        -0.5000 
     37 CA          2.2622  -17.6776  -43.0472 C.3       7 UNK         0.1400 
     38 CB          3.2154  -16.5852  -43.5540 C.3       7 UNK        -0.1800 
     39 N           1.5845  -17.2127  -41.8361 N.am      7 UNK        -0.5000 
     40 C           0.8628  -17.9937  -41.0203 C.2       6 UNK         0.5000 
     41 O           0.6998  -19.2011  -41.1945 O.2       6 UNK        -0.5000 
     42 CA          0.1875  -17.3000  -39.8238 C.3       6 UNK         0.1400 
     43 CB          1.1873  -17.1036  -38.6743 C.3       6 UNK        -0.1800 
     44 N          -0.3987  -16.0086  -40.1852 N.am      6 UNK        -0.5000 
     45 C          -1.4841  -15.8683  -40.9583 C.2       5 UNK         0.5000 
     46 O          -2.1179  -16.8155  -41.4261 O.2       5 UNK        -0.5000 
     47 CA         -1.9043  -14.4235  -41.3001 C.3       5 UNK         0.1400 
     48 CB         -2.7395  -13.8197  -40.1610 C.3       5 UNK        -0.1800 
     49 N          -0.7838  -13.5249  -41.6135 N.am      5 UNK        -0.5000 
     50 C           0.1053  -13.7433  -42.5909 C.2       4 UNK         0.5000 
     51 O           0.1195  -14.7699  -43.2672 O.2       4 UNK        -0.5000 
     52 CA          1.1714  -12.6694  -42.8435 C.3       4 UNK         0.1400 
     53 CB          2.2838  -12.7471  -41.7817 C.3       4 UNK        -0.1800 
     54 N           1.7337  -12.8946  -44.1730 N.am      4 UNK        -0.5000 
     55 C           2.4266  -12.0258  -44.9120 C.2       3 UNK         0.5000 
     56 O           2.6722  -10.8740  -44.5507 O.2       3 UNK        -0.5000 
     57 CA          2.9350  -12.5090  -46.2878 C.3       3 UNK         0.1400 
     58 CB          4.1655  -13.4240  -46.1366 C.3       3 UNK        -0.1800 
     59 N           1.9179  -13.1208  -47.1558 N.am      3 UNK        -0.5000 
     60 C           1.2403  -14.2667  -46.9895 C.2       2 UNK         0.5000 
     61 O           1.3672  -15.0075  -46.0190 O.2       2 UNK        -0.5000 
     62 CA          0.2751  -14.6615  -48.1225 C.3       2 UNK         0.1400 
     63 CB         -1.0123  -13.8230  -48.0710 C.3       2 UNK        -0.1800 
     64 N           0.8900  -14.5073  -49.4388 N.am      2 UNK        -0.5000 
     65 C           1.8877  -15.2693  -49.9108 C.2       1 UNK         0.5000 
     66 O           2.3613  -16.2329  -49.3080 O.2       1 UNK        -0.5000 
     67 C          -0.2387  -22.8341  -47.3885 C.2       11 UNK         0.5000 
     68 O          -0.0876  -23.8583  -48.0544 O.2       11 UNK        -0.5000 
     69 N          -1.4338  -22.3453  -47.0249 N.am      12 UNK        -0.5000 
     70 CA         -2.7163  -22.9330  -47.4097 C.3       12 UNK         0.1400 
     71 CB         -3.8624  -22.0321  -46.9286 C.3       12 UNK        -0.1800 
     72 C          -2.8977  -24.3761  -46.9072 C.2       12 UNK         0.5000 
     73 O          -3.4221  -25.2073  -47.6468 O.2       12 UNK        -0.5000 
     74 N          -2.4313  -24.6595  -45.6834 N.am      13 UNK        -0.5000 
     75 CA         -2.4144  -25.9987  -45.0986 C.3       13 UNK         0.1400 
     76 CB         -2.1060  -25.9016  -43.5967 C.3       13 UNK        -0.1800 
     77 C          -1.4179  -26.9406  -45.7991 C.2       13 UNK         0.5000 
     78 O          -1.7725  -28.0835  -46.0891 O.2       13 UNK        -0.5000 
     79 N          -0.1961  -26.4518  -46.0560 N.am      14 UNK        -0.5000 
     80 CA          0.8886  -27.2190  -46.6701 C.3       14 UNK         0.1400 
     81 CB          2.2157  -26.4626  -46.5042 C.3       14 UNK        -0.1800 
     82 C           0.6359  -27.5464  -48.1513 C.2       14 UNK         0.5000 
     83 O           0.8322  -28.6911  -48.5620 O.2       14 UNK        -0.5000 
     84 N           0.2111  -26.5404  -48.9259 N.am      15 UNK        -0.5000 
     85 CA         -0.0544  -26.6656  -50.3597 C.3       15 UNK         0.1400 
     86 CB          0.0895  -25.2834  -51.0152 C.3       15 UNK        -0.1800 
     87 C          -1.4367  -27.2701  -50.6684 C.2       15 UNK         0.5000 
     88 O          -1.6448  -27.7396  -51.7877 O.2       15 UNK        -0.5000 
     89 N          -2.3548  -27.2272  -49.6896 N.am      16 UNK        -0.5000 
     90 CA         -3.7650  -27.6369  -49.7624 C.3       16 UNK         0.1400 
     91 CB         -3.8901  -29.1500  -50.0380 C.3       16 UNK        -0.1800 
     92 C          -4.6046  -26.7784  -50.7372 C.2       16 UNK         0.5000 
     93 O          -5.6692  -27.2137  -51.1799 O.2       16 UNK        -0.5000 
     94 N          -4.1135  -25.5743  -51.0494 N.am      17 UNK        -0.5000 
     95 CA         -4.6470  -24.6065  -52.0001 C.3       17 UNK         0.1400 
     96 CB         -4.5519  -25.1589  -53.4382 C.3       17 UNK        -0.1800 
     97 C          -3.8333  -23.3091  -51.8615 C.2       17 UNK         0.5000 
     98 O          -2.8316  -23.2847  -51.1417 O.2       17 UNK        -0.5000 
     99 N          -4.2606  -22.2611  -52.5695 N.am      18 UNK        -0.5000 
    100 CA        -3.5644  -20.9850  -52.6713 C.3       18 UNK         0.1400 
    101 CB        -4.1235  -20.0100  -51.6279 C.3       18 UNK        -0.1800 
    102 C         -3.7624  -20.4531  -54.0940 C.2       18 UNK         0.5000 
    103 O         -4.8943  -20.4537  -54.5832 O.2       18 UNK        -0.5000 
    104 N         -2.6728  -20.0019  -54.7289 N.am      19 UNK        -0.5000 
    105 CA        -2.6283  -19.5904  -56.1383 C.3       19 UNK         0.1400 
    106 CB        -1.1671  -19.3250  -56.5324 C.3       19 UNK        -0.1800 
    107 C         -3.5040  -18.3689  -56.4813 C.2       19 UNK         0.5000 
    108 O         -3.9681  -18.2555  -57.6163 O.2       19 UNK        -0.5000 
    109 N         -3.7171  -17.4930  -55.4931 N.am      20 UNK        -0.5000 
    110 CA        -4.5583  -16.2973  -55.5834 C.3       20 UNK         0.1400 
    111 CB        -3.6950  -15.0667  -55.2492 C.3       20 UNK        -0.1800 
    112 C         -5.7784  -16.3942  -54.6458 C.2       20 UNK         0.5000 
    113 O         -6.3951  -15.3685  -54.3512 O.2       20 UNK        -0.5000 
    114 N         -6.0722  -17.6038  -54.1355 N.am      21 UNK        -0.5000 
    115 CA        -7.1194  -17.9242  -53.1511 C.3       21 UNK         0.1400 
    116 CB        -8.5167  -17.7566  -53.7826 C.3       21 UNK        -0.1800 
    117 C         -6.9814  -17.1539  -51.8147 C.2       21 UNK         0.5000 
    118 O         -7.9653  -17.0003  -51.0893 O.2       21 UNK        -0.5000 
    119 N         -5.7654  -16.6630  -51.5360 N.am      22 UNK        -0.5000 
    120 CA        -5.4149  -15.7337  -50.4489 C.3       22 UNK         0.1400 
    121 C         -6.0740  -14.3238  -50.5708 C.2       22 UNK         0.5000 
    122 N         -6.5432  -13.9096  -51.7432 N.am      22 UNK        -0.7600 
    123 O         -6.1347  -13.5751  -49.5992 O.2       22 UNK        -0.5000 
    124 C124       -5.5540  -16.3507  -49.0291 C.3       23 UNK        -0.0398 
    125 S125       -4.6495  -17.9246  -48.8318 S.3       23 UNK        -0.2404 
    126 C126       -2.9396  -17.3528  -48.5838 C.3       23 UNK        -0.0205 
    127 H127        3.7877  -10.5898  -51.6270 H         1 UNK         0.0600 
    128 H128        2.4804  -10.4657  -50.4451 H         1 UNK         0.0600 
    129 H129        2.1284  -10.9616  -52.1031 H         1 UNK         0.0600 
    130 H130        1.7698  -13.1562  -52.2828 H         1 UNK         0.3000 
    131 H131        3.5316  -15.1376  -51.2494 H         1 UNK         0.0600 
    132 H132        1.8860  -16.7628  -52.2069 H         1 UNK         0.0800 
    133 H133        2.4352  -15.5671  -53.3396 H         1 UNK         0.0800 
    134 H134       -1.6368  -16.6625  -53.5653 H         1 UNK         0.0800 
    135 H135       -0.0764  -17.4006  -53.8062 H         1 UNK         0.0800 
    136 H136       -2.1984  -16.1465  -50.9393 H         1 UNK         0.1150 
    137 H137       -1.6443  -19.7234  -48.6465 H         1 UNK         0.1150 
    138 H138        0.3857  -19.2424  -52.3900 H         1 UNK         0.1150 
    139 H139       -0.6214  -21.6723  -49.8514 H         1 UNK         0.0800 
    140 H140        0.2661  -21.4275  -51.3170 H         1 UNK         0.0800 
    141 H141        0.3042  -20.0989  -47.6030 H         1 UNK         0.0800 
    142 H142        1.9886  -20.1607  -47.2184 H         1 UNK         0.0800 
    143 H143        1.8737  -22.6894  -47.1027 H         1 UNK         0.0600 
    144 H144        0.9650  -20.8912  -45.1344 H         1 UNK         0.3000 
    145 H145        0.4366  -23.2980  -42.5061 H         1 UNK         0.0600 
    146 H146        1.9801  -21.7050  -41.4189 H         1 UNK         0.0600 
    147 H147        2.8545  -22.6755  -42.5936 H         1 UNK         0.0600 
    148 H148        2.4230  -21.0143  -42.9782 H         1 UNK         0.0600 
    149 H149        0.0083  -20.5078  -42.5017 H         1 UNK         0.3000 
    150 H150       -3.4375  -20.5656  -43.5571 H         1 UNK         0.0600 
    151 H151       -3.3160  -21.0540  -41.1042 H         1 UNK         0.0600 
    152 H152       -3.5996  -19.3469  -41.4112 H         1 UNK         0.0600 
    153 H153       -1.9973  -19.9008  -40.9332 H         1 UNK         0.0600 
    154 H154       -1.7595  -18.3850  -42.8911 H         1 UNK         0.3000 
    155 H155       -0.5590  -17.6718  -46.2004 H         1 UNK         0.0600 
    156 H156       -2.2741  -16.2760  -44.0691 H         1 UNK         0.0600 
    157 H157       -2.8295  -16.6155  -45.6941 H         1 UNK         0.0600 
    158 H158       -1.4810  -15.5159  -45.4378 H         1 UNK         0.0600 
    159 H159        0.1463  -16.4587  -43.7857 H         1 UNK         0.3000 
    160 H160        2.8621  -18.5511  -42.7842 H         1 UNK         0.0600 
    161 H161        2.6881  -15.6540  -43.7578 H         1 UNK         0.0600 
    162 H162        3.7063  -16.8919  -44.4785 H         1 UNK         0.0600 
    163 H163        3.9963  -16.3732  -42.8238 H         1 UNK         0.0600 
    164 H164        1.6128  -16.2212  -41.6542 H         1 UNK         0.3000 
    165 H165       -0.6129  -17.9533  -39.4694 H         1 UNK         0.0600 
    166 H166        0.6985  -16.6839  -37.7948 H         1 UNK         0.0600 
    167 H167        1.6296  -18.0551  -38.3760 H         1 UNK         0.0600 
    168 H168        2.0028  -16.4364  -38.9560 H         1 UNK         0.0600 
    169 H169        0.0659  -15.1788  -39.8474 H         1 UNK         0.3000 
    170 H170       -2.5359  -14.4749  -42.1893 H         1 UNK         0.0600 
    171 H171       -3.5893  -14.4593  -39.9182 H         1 UNK         0.0600 
    172 H172       -2.1511  -13.6958  -39.2511 H         1 UNK         0.0600 
    173 H173       -3.1388  -12.8440  -40.4386 H         1 UNK         0.0600 
    174 H174       -0.7302  -12.6680  -41.0818 H         1 UNK         0.3000 
    175 H175        0.6924  -11.6889  -42.8150 H         1 UNK         0.0600 
    176 H176        1.8821  -12.6047  -40.7779 H         1 UNK         0.0600 
    177 H177        2.7890  -13.7136  -41.8011 H         1 UNK         0.0600 
    178 H178        3.0369  -11.9749  -41.9383 H         1 UNK         0.0600 
    179 H179        1.5207  -13.8092  -44.5724 H         1 UNK         0.3000 
    180 H180        3.2667  -11.6177  -46.8229 H         1 UNK         0.0600 
    181 H181        3.9273  -14.3490  -45.6115 H         1 UNK         0.0600 
    182 H182        4.9547  -12.9247  -45.5733 H         1 UNK         0.0600 
    183 H183        4.5778  -13.6891  -47.1104 H         1 UNK         0.0600 
    184 H184        1.7326  -12.6053  -48.0034 H         1 UNK         0.3000 
    185 H185        0.0070  -15.7121  -47.9887 H         1 UNK         0.0600 
    186 H186       -1.7208  -14.1424  -48.8352 H         1 UNK         0.0600 
    187 H187       -1.5092  -13.9189  -47.1060 H         1 UNK         0.0600 
    188 H188       -0.8111  -12.7627  -48.2279 H         1 UNK         0.0600 
    189 H189        0.5591  -13.7483  -50.0157 H         1 UNK         0.3000 
    190 H190       -1.4780  -21.4964  -46.4659 H         1 UNK         0.3000 
    191 H191       -2.7459  -22.9611  -48.5001 H         1 UNK         0.0600 
    192 H192       -4.8309  -22.4452  -47.2129 H         1 UNK         0.0600 
    193 H193       -3.7918  -21.0370  -47.3692 H         1 UNK         0.0600 
    194 H194       -3.8556  -21.9194  -45.8438 H         1 UNK         0.0600 
    195 H195       -2.0625  -23.9064  -45.1098 H         1 UNK         0.3000 
    196 H196       -3.4123  -26.4280  -45.2097 H         1 UNK         0.0600 
    197 H197       -2.0897  -26.8896  -43.1351 H         1 UNK         0.0600 
    198 H198       -2.8623  -25.3125  -43.0777 H         1 UNK         0.0600 
    199 H199       -1.1370  -25.4356  -43.4134 H         1 UNK         0.0600 
    200 H200        0.0305  -25.5053  -45.7642 H         1 UNK         0.3000 
    201 H201        0.9750  -28.1659  -46.1329 H         1 UNK         0.0600 
    202 H202        2.4580  -26.3204  -45.4510 H         1 UNK         0.0600 
    203 H203        2.1798  -25.4789  -46.9745 H         1 UNK         0.0600 
    204 H204        3.0411  -27.0142  -46.9558 H         1 UNK         0.0600 
    205 H205        0.0867  -25.6138  -48.5190 H         1 UNK         0.3000 
    206 H206        0.6957  -27.3243  -50.8027 H         1 UNK         0.0600 
    207 H207       -0.6170  -24.5670  -50.5971 H         1 UNK         0.0600 
    208 H208       -0.0918  -25.3345  -52.0895 H         1 UNK         0.0600 
    209 H209        1.0924  -24.8811  -50.8716 H         1 UNK         0.0600 
    210 H210       -2.0871  -26.7893  -48.8178 H         1 UNK         0.3000 
    211 H211       -4.1823  -27.4584  -48.7711 H         1 UNK         0.0600 
    212 H212       -3.5802  -29.4068  -51.0510 H         1 UNK         0.0600 
    213 H213       -4.9214  -29.4842  -49.9196 H         1 UNK         0.0600 
    214 H214       -3.2817  -29.7283  -49.3426 H         1 UNK         0.0600 
    215 H215       -3.2609  -25.2625  -50.5990 H         1 UNK         0.3000 
    216 H216       -5.6872  -24.3948  -51.7462 H         1 UNK         0.0600 
    217 H217       -3.5218  -25.3993  -53.7046 H         1 UNK         0.0600 
    218 H218       -4.9208  -24.4379  -54.1683 H         1 UNK         0.0600 
    219 H219       -5.1465  -26.0636  -53.5624 H         1 UNK         0.0600 
    220 H220       -5.0677  -22.3506  -53.1730 H         1 UNK         0.3000 
    221 H221       -2.4949  -21.1211  -52.4949 H         1 UNK         0.0600 
    222 H222       -3.8769  -20.3404  -50.6189 H         1 UNK         0.0600 
    223 H223       -5.2077  -19.9253  -51.6903 H         1 UNK         0.0600 
    224 H224       -3.7055  -19.0122  -51.7569 H         1 UNK         0.0600 
    225 H225       -1.7844  -20.0338  -54.2505 H         1 UNK         0.3000 
    226 H226       -2.9947  -20.4274  -56.7364 H         1 UNK         0.0600 
    227 H227       -0.5487  -20.2098  -56.3796 H         1 UNK         0.0600 
    228 H228       -1.0894  -19.0556  -57.5866 H         1 UNK         0.0600 
    229 H229       -0.7354  -18.5079  -55.9536 H         1 UNK         0.0600 
    230 H230       -3.2969  -17.6846  -54.5966 H         1 UNK         0.3000 
    231 H231       -4.9486  -16.1751  -56.5955 H         1 UNK         0.0600 
    232 H232       -2.8090  -15.0220  -55.8827 H         1 UNK         0.0600 
    233 H233       -3.3645  -15.0735  -54.2100 H         1 UNK         0.0600 
    234 H234       -4.2511  -14.1421  -55.4087 H         1 UNK         0.0600 
    235 H235       -5.5365  -18.4002  -54.4615 H         1 UNK         0.3000 
    236 H236       -6.9972  -18.9800  -52.9081 H         1 UNK         0.0600 
    237 H237       -9.2958  -18.1320  -53.1183 H         1 UNK         0.0600 
    238 H238       -8.7431  -16.7110  -53.9933 H         1 UNK         0.0600 
    239 H239       -8.5955  -18.3120  -54.7172 H         1 UNK         0.0600 
    240 H240       -5.0289  -16.8514  -52.1967 H         1 UNK         0.3000 
    241 H241       -4.3561  -15.5253  -50.5917 H         1 UNK         0.0600 
    242 H242       -6.9568  -12.9933  -51.8104 H         1 UNK         0.3800 
    243 H243       -6.4963  -14.4961  -52.5705 H         1 UNK         0.3800 
    244 H244       -5.2002  -15.6555  -48.2661 H         1 UNK         0.0800 
    245 H245       -6.6044  -16.5335  -48.8001 H         1 UNK         0.0800 
    246 H246       -2.8912  -16.2655  -48.5270 H         1 UNK         0.0800 
    247 H247       -2.5998  -17.7289  -47.6214 H         1 UNK         0.0800 
@<TRIPOS>BOND
     1    1    2 1    
     2    1  127 1    
     3    1  128 1    
     4    1  129 1    
     5    2    3 2    
     6    2    4 am   BACKBONE|DICT|INTERRES
     7    4    5 1    
     8    4  130 1    
     9    5    6 1    
    10    5   65 1    
    11    5  131 1    
    12    6    7 1    
    13    6  132 1    
    14    6  133 1    
    15    7    8 1    
    16    8    9 1    
    17    8  134 1    
    18    8  135 1    
    19    9   10 ar   
    20    9   14 ar   
    21   10   11 ar   
    22   10  136 1    
    23   11   12 ar   
    24   11  126 1    
    25   12   13 ar   
    26   12  137 1    
    27   13   14 ar   
    28   13   15 1    
    29   14  138 1    
    30   15   16 1    
    31   15  139 1    
    32   15  140 1    
    33   16   17 1    
    34   17   18 1    
    35   17  141 1    
    36   17  142 1    
    37   18   19 1    
    38   18   67 1    
    39   18  143 1    
    40   19   20 am   BACKBONE|DICT|INTERRES
    41   19  144 1    
    42   20   21 2    
    43   20   22 1    
    44   22   23 1    
    45   22   24 1    
    46   22  145 1    
    47   23  146 1    
    48   23  147 1    
    49   23  148 1    
    50   24   25 am   BACKBONE|DICT|INTERRES
    51   24  149 1    
    52   25   26 2    
    53   25   27 1    
    54   27   28 1    
    55   27   29 1    
    56   27  150 1    
    57   28  151 1    
    58   28  152 1    
    59   28  153 1    
    60   29   30 am   BACKBONE|DICT|INTERRES
    61   29  154 1    
    62   30   31 2    
    63   30   32 1    
    64   32   33 1    
    65   32   34 1    
    66   32  155 1    
    67   33  156 1    
    68   33  157 1    
    69   33  158 1    
    70   34   35 am   BACKBONE|DICT|INTERRES
    71   34  159 1    
    72   35   36 2    
    73   35   37 1    
    74   37   38 1    
    75   37   39 1    
    76   37  160 1    
    77   38  161 1    
    78   38  162 1    
    79   38  163 1    
    80   39   40 am   BACKBONE|DICT|INTERRES
    81   39  164 1    
    82   40   41 2    
    83   40   42 1    
    84   42   43 1    
    85   42   44 1    
    86   42  165 1    
    87   43  166 1    
    88   43  167 1    
    89   43  168 1    
    90   44   45 am   BACKBONE|DICT|INTERRES
    91   44  169 1    
    92   45   46 2    
    93   45   47 1    
    94   47   48 1    
    95   47   49 1    
    96   47  170 1    
    97   48  171 1    
    98   48  172 1    
    99   48  173 1    
   100   49   50 am   BACKBONE|DICT|INTERRES
   101   49  174 1    
   102   50   51 2    
   103   50   52 1    
   104   52   53 1    
   105   52   54 1    
   106   52  175 1    
   107   53  176 1    
   108   53  177 1    
   109   53  178 1    
   110   54   55 am   BACKBONE|DICT|INTERRES
   111   54  179 1    
   112   55   56 2    
   113   55   57 1    
   114   57   58 1    
   115   57   59 1    
   116   57  180 1    
   117   58  181 1    
   118   58  182 1    
   119   58  183 1    
   120   59   60 am   BACKBONE|DICT|INTERRES
   121   59  184 1    
   122   60   61 2    
   123   60   62 1    
   124   62   63 1    
   125   62   64 1    
   126   62  185 1    
   127   63  186 1    
   128   63  187 1    
   129   63  188 1    
   130   64   65 am   BACKBONE|DICT|INTERRES
   131   64  189 1    
   132   65   66 2    
   133   67   68 2    
   134   67   69 am   BACKBONE|DICT|INTERRES
   135   69   70 1    
   136   69  190 1    
   137   70   71 1    
   138   70   72 1    
   139   70  191 1    
   140   71  192 1    
   141   71  193 1    
   142   71  194 1    
   143   72   73 2    
   144   72   74 am   BACKBONE|DICT|INTERRES
   145   74   75 1    
   146   74  195 1    
   147   75   76 1    
   148   75   77 1    
   149   75  196 1    
   150   76  197 1    
   151   76  198 1    
   152   76  199 1    
   153   77   78 2    
   154   77   79 am   BACKBONE|DICT|INTERRES
   155   79   80 1    
   156   79  200 1    
   157   80   81 1    
   158   80   82 1    
   159   80  201 1    
   160   81  202 1    
   161   81  203 1    
   162   81  204 1    
   163   82   83 2    
   164   82   84 am   BACKBONE|DICT|INTERRES
   165   84   85 1    
   166   84  205 1    
   167   85   86 1    
   168   85   87 1    
   169   85  206 1    
   170   86  207 1    
   171   86  208 1    
   172   86  209 1    
   173   87   88 2    
   174   87   89 am   BACKBONE|DICT|INTERRES
   175   89   90 1    
   176   89  210 1    
   177   90   91 1    
   178   90   92 1    
   179   90  211 1    
   180   91  212 1    
   181   91  213 1    
   182   91  214 1    
   183   92   93 2    
   184   92   94 am   BACKBONE|DICT|INTERRES
   185   94   95 1    
   186   94  215 1    
   187   95   96 1    
   188   95   97 1    
   189   95  216 1    
   190   96  217 1    
   191   96  218 1    
   192   96  219 1    
   193   97   98 2    
   194   97   99 am   BACKBONE|DICT|INTERRES
   195   99  100 1    
   196   99  220 1    
   197  100  101 1    
   198  100  102 1    
   199  100  221 1    
   200  101  222 1    
   201  101  223 1    
   202  101  224 1    
   203  102  103 2    
   204  102  104 am   BACKBONE|DICT|INTERRES
   205  104  105 1    
   206  104  225 1    
   207  105  106 1    
   208  105  107 1    
   209  105  226 1    
   210  106  227 1    
   211  106  228 1    
   212  106  229 1    
   213  107  108 2    
   214  107  109 am   BACKBONE|DICT|INTERRES
   215  109  110 1    
   216  109  230 1    
   217  110  111 1    
   218  110  112 1    
   219  110  231 1    
   220  111  232 1    
   221  111  233 1    
   222  111  234 1    
   223  112  113 2    
   224  112  114 am   BACKBONE|DICT|INTERRES
   225  114  115 1    
   226  114  235 1    
   227  115  116 1    
   228  115  117 1    
   229  115  236 1    
   230  116  237 1    
   231  116  238 1    
   232  116  239 1    
   233  117  118 2    
   234  117  119 am   BACKBONE|DICT|INTERRES
   235  119  120 1    
   236  119  240 1    
   237  120  121 1    
   238  120  124 1    
   239  120  241 1    
   240  121  122 am   BACKBONE|DICT|INTERRES
   241  121  123 2    
   242  122  242 1    
   243  122  243 1    
   244  124  125 1    
   245  124  244 1    
   246  124  245 1    
   247  125  126 1    
   248  126  246 1    
   249  126  247 1    
@<TRIPOS>SUBSTRUCTURE
     1 UNK         1 GROUP             0       ****    0 ROOT    
