@<TRIPOS>MOLECULE
3R540
247   249    1
SMALL
USER_CHARGES


@<TRIPOS>ATOM
      1 CA          3.9373  -15.1242  -44.4232 C.3       0 UNK        -0.1800 
      2 C           2.7413  -14.3514  -44.9584 C.2       0 UNK         0.5000 
      3 O           2.3659  -13.3259  -44.3896 O.2       0 UNK        -0.5000 
      4 N           2.1424  -14.8235  -46.0608 N.am      1 UNK        -0.5000 
      5 CA          0.9304  -14.2579  -46.6708 C.3       1 UNK         0.1400 
      6 C6          0.3476  -15.1953  -47.7566 C.3       23 UNK        -0.0398 
      7 S7         -1.4427  -14.9379  -48.0082 S.3       23 UNK        -0.2404 
      8 C8         -2.0349  -16.6352  -48.3024 C.3       23 UNK        -0.0205 
      9 C9         -1.3926  -17.2835  -49.5223 C.ar      23 UNK        -0.0193 
     10 C10        -1.4668  -16.6720  -50.7781 C.ar      23 UNK        -0.1150 
     11 C11        -0.8853  -17.2732  -51.8980 C.ar      23 UNK        -0.0193 
     12 C12        -0.2291  -18.4984  -51.7545 C.ar      23 UNK        -0.1150 
     13 C13        -0.1468  -19.1233  -50.5064 C.ar      23 UNK        -0.0193 
     14 C14        -0.7368  -18.5109  -49.3957 C.ar      23 UNK        -0.1150 
     15 C15         0.5178  -20.4896  -50.3993 C.3       23 UNK        -0.0205 
     16 S16         1.4796  -20.7574  -48.8757 S.3       23 UNK        -0.2404 
     17 C17         1.5075  -22.5883  -48.8477 C.3       23 UNK        -0.0398 
     18 CA          0.5917  -23.2233  -47.7745 C.3       11 UNK         0.1400 
     19 N           1.0175  -22.8338  -46.4280 N.am      11 UNK        -0.5000 
     20 C           0.5639  -23.3326  -45.2742 C.2       10 UNK         0.5000 
     21 O          -0.2936  -24.2134  -45.2190 O.2       10 UNK        -0.5000 
     22 CA          1.0931  -22.7127  -43.9670 C.3       10 UNK         0.1400 
     23 CB          2.1564  -23.6156  -43.3164 C.3       10 UNK        -0.1800 
     24 N           1.5682  -21.3258  -44.0806 N.am      10 UNK        -0.5000 
     25 C           2.6434  -20.8399  -44.7208 C.2       9 UNK         0.5000 
     26 O           3.3868  -21.5143  -45.4328 O.2       9 UNK        -0.5000 
     27 CA          2.9283  -19.3378  -44.5344 C.3       9 UNK         0.1400 
     28 CB          2.1584  -18.5158  -45.5793 C.3       9 UNK        -0.1800 
     29 N           2.5825  -18.8686  -43.1908 N.am      9 UNK        -0.5000 
     30 C           3.1857  -19.2734  -42.0620 C.2       8 UNK         0.5000 
     31 O           4.1786  -20.0014  -42.0363 O.2       8 UNK        -0.5000 
     32 CA          2.5504  -18.8165  -40.7381 C.3       8 UNK         0.1400 
     33 CB          3.1242  -17.4609  -40.2985 C.3       8 UNK        -0.1800 
     34 N           1.0920  -18.7314  -40.8447 N.am      8 UNK        -0.5000 
     35 C           0.2695  -19.7901  -40.7888 C.2       7 UNK         0.5000 
     36 O           0.6519  -20.9405  -40.5756 O.2       7 UNK        -0.5000 
     37 CA         -1.2310  -19.5306  -41.0298 C.3       7 UNK         0.1400 
     38 CB         -1.9473  -19.2439  -39.7017 C.3       7 UNK        -0.1800 
     39 N          -1.4814  -18.4264  -41.9570 N.am      7 UNK        -0.5000 
     40 C          -1.2190  -18.4607  -43.2708 C.2       6 UNK         0.5000 
     41 O          -0.7812  -19.4544  -43.8517 O.2       6 UNK        -0.5000 
     42 CA         -1.4284  -17.1458  -44.0515 C.3       6 UNK         0.1400 
     43 CB         -2.8593  -17.0580  -44.6002 C.3       6 UNK        -0.1800 
     44 N          -1.1538  -15.9403  -43.2630 N.am      6 UNK        -0.5000 
     45 C           0.0165  -15.6458  -42.6834 C.2       5 UNK         0.5000 
     46 O           1.0033  -16.3807  -42.7464 O.2       5 UNK        -0.5000 
     47 CA          0.0773  -14.3106  -41.9214 C.3       5 UNK         0.1400 
     48 CB          1.4013  -14.1092  -41.1638 C.3       5 UNK        -0.1800 
     49 N          -0.1115  -13.2003  -42.8503 N.am      5 UNK        -0.5000 
     50 C          -1.2897  -12.6476  -43.1666 C.2       4 UNK         0.5000 
     51 O          -2.3597  -13.0536  -42.7100 O.2       4 UNK        -0.5000 
     52 CA         -1.2906  -11.4863  -44.1853 C.3       4 UNK         0.1400 
     53 CB         -2.3027  -10.3815  -43.8181 C.3       4 UNK        -0.1800 
     54 N           0.0364  -10.9218  -44.4618 N.am      4 UNK        -0.5000 
     55 C           0.8419  -10.2366  -43.6330 C.2       3 UNK         0.5000 
     56 O           0.5331   -9.9328  -42.4802 O.2       3 UNK        -0.5000 
     57 CA          2.2371   -9.8476  -44.1702 C.3       3 UNK         0.1400 
     58 CB          3.3360  -10.1411  -43.1334 C.3       3 UNK        -0.1800 
     59 N           2.5583  -10.5762  -45.3983 N.am      3 UNK        -0.5000 
     60 C           2.5758  -10.0637  -46.6364 C.2       2 UNK         0.5000 
     61 O           2.4071   -8.8697  -46.8850 O.2       2 UNK        -0.5000 
     62 CA          2.7879  -11.0567  -47.8016 C.3       2 UNK         0.1400 
     63 CB          4.2608  -11.0643  -48.2376 C.3       2 UNK        -0.1800 
     64 N           2.3789  -12.4302  -47.4876 N.am      2 UNK        -0.5000 
     65 C           1.1278  -12.8127  -47.1896 C.2       1 UNK         0.5000 
     66 O           0.1663  -12.0456  -47.2303 O.2       1 UNK        -0.5000 
     67 C          -0.9127  -22.9641  -48.0416 C.2       11 UNK         0.5000 
     68 O          -1.5153  -23.6369  -48.8833 O.2       11 UNK        -0.5000 
     69 N          -1.4921  -22.0124  -47.2949 N.am      12 UNK        -0.5000 
     70 CA         -2.9212  -21.7172  -47.2653 C.3       12 UNK         0.1400 
     71 CB         -3.1408  -20.3462  -46.6150 C.3       12 UNK        -0.1800 
     72 C          -3.7406  -22.7962  -46.5348 C.2       12 UNK         0.5000 
     73 O          -4.8755  -23.0641  -46.9243 O.2       12 UNK        -0.5000 
     74 N          -3.1568  -23.4105  -45.4983 N.am      13 UNK        -0.5000 
     75 CA         -3.7678  -24.5205  -44.7679 C.3       13 UNK         0.1400 
     76 CB         -3.1689  -24.5970  -43.3544 C.3       13 UNK        -0.1800 
     77 C          -3.5827  -25.8509  -45.5175 C.2       13 UNK         0.5000 
     78 O          -4.4779  -26.6957  -45.4850 O.2       13 UNK        -0.5000 
     79 N          -2.4269  -26.0067  -46.1786 N.am      14 UNK        -0.5000 
     80 CA         -2.0368  -27.2079  -46.9129 C.3       14 UNK         0.1400 
     81 CB         -0.5564  -27.1033  -47.3093 C.3       14 UNK        -0.1800 
     82 C          -2.9041  -27.4873  -48.1536 C.2       14 UNK         0.5000 
     83 O          -3.2854  -28.6393  -48.3666 O.2       14 UNK        -0.5000 
     84 N          -3.1870  -26.4504  -48.9557 N.am      15 UNK        -0.5000 
     85 CA         -3.8788  -26.5909  -50.2391 C.3       15 UNK         0.1400 
     86 CB         -2.9030  -27.1249  -51.3104 C.3       15 UNK        -0.1800 
     87 C          -4.5606  -25.2795  -50.6585 C.2       15 UNK         0.5000 
     88 O          -4.3763  -24.8303  -51.7915 O.2       15 UNK        -0.5000 
     89 N          -5.3155  -24.6652  -49.7362 N.am      16 UNK        -0.5000 
     90 CA         -6.1284  -23.4405  -49.8754 C.3       16 UNK         0.1400 
     91 CB         -7.2102  -23.6080  -50.9603 C.3       16 UNK        -0.1800 
     92 C          -5.3256  -22.1412  -50.1014 C.2       16 UNK         0.5000 
     93 O          -5.6473  -21.1171  -49.4996 O.2       16 UNK        -0.5000 
     94 N          -4.2890  -22.2253  -50.9373 N.am      17 UNK        -0.5000 
     95 CA         -3.2950  -21.2206  -51.2958 C.3       17 UNK         0.1400 
     96 CB         -3.9499  -19.9307  -51.8315 C.3       17 UNK        -0.1800 
     97 C          -2.3640  -21.8758  -52.3287 C.2       17 UNK         0.5000 
     98 O          -2.2900  -21.4137  -53.4664 O.2       17 UNK        -0.5000 
     99 N          -1.7306  -22.9974  -51.9418 N.am      18 UNK        -0.5000 
    100 CA        -0.8290  -23.8255  -52.7650 C.3       18 UNK         0.1400 
    101 CB         0.5120  -23.0959  -52.9909 C.3       18 UNK        -0.1800 
    102 C         -1.4480  -24.3116  -54.0985 C.2       18 UNK         0.5000 
    103 O         -0.7347  -24.4532  -55.0930 O.2       18 UNK        -0.5000 
    104 N         -2.7739  -24.5130  -54.1044 N.am      19 UNK        -0.5000 
    105 CA        -3.6380  -24.8085  -55.2526 C.3       19 UNK         0.1400 
    106 CB        -3.2891  -26.1805  -55.8655 C.3       19 UNK        -0.1800 
    107 C         -3.7085  -23.6873  -56.3187 C.2       19 UNK         0.5000 
    108 O         -4.2866  -23.9118  -57.3834 O.2       19 UNK        -0.5000 
    109 N         -3.1588  -22.4981  -56.0270 N.am      20 UNK        -0.5000 
    110 CA        -3.1864  -21.3275  -56.9081 C.3       20 UNK         0.1400 
    111 CB        -1.9517  -20.4550  -56.6313 C.3       20 UNK        -0.1800 
    112 C         -4.4779  -20.5031  -56.7487 C.2       20 UNK         0.5000 
    113 O         -4.8036  -19.7251  -57.6460 O.2       20 UNK        -0.5000 
    114 N         -5.1879  -20.7005  -55.6256 N.am      21 UNK        -0.5000 
    115 CA        -6.4652  -20.0795  -55.2572 C.3       21 UNK         0.1400 
    116 CB        -7.5950  -20.5696  -56.1869 C.3       21 UNK        -0.1800 
    117 C         -6.3759  -18.5412  -55.1638 C.2       21 UNK         0.5000 
    118 O         -7.1734  -17.8287  -55.7766 O.2       21 UNK        -0.5000 
    119 N         -5.3893  -18.0645  -54.3940 N.am      22 UNK        -0.5000 
    120 CA        -5.1043  -16.6391  -54.1477 C.3       22 UNK         0.1400 
    121 C         -6.2232  -15.8505  -53.4020 C.2       22 UNK         0.5000 
    122 N         -7.1620  -16.5001  -52.7244 N.am      22 UNK        -0.7600 
    123 O         -6.2370  -14.6232  -53.4404 O.2       22 UNK        -0.5000 
    124 C124       -3.7550  -16.4462  -53.4094 C.3       23 UNK        -0.0398 
    125 S125       -2.3386  -17.2086  -54.2702 S.3       23 UNK        -0.2404 
    126 C126       -0.9514  -16.5972  -53.2608 C.3       23 UNK        -0.0205 
    127 H127        3.6706  -15.6219  -43.4907 H         1 UNK         0.0600 
    128 H128        4.2795  -15.8815  -45.1285 H         1 UNK         0.0600 
    129 H129        4.7657  -14.4445  -44.2247 H         1 UNK         0.0600 
    130 H130        2.5167  -15.6478  -46.5075 H         1 UNK         0.3000 
    131 H131        0.1994  -14.1964  -45.8610 H         1 UNK         0.0600 
    132 H132        0.8683  -15.0816  -48.7092 H         1 UNK         0.0800 
    133 H133        0.4929  -16.2349  -47.4589 H         1 UNK         0.0800 
    134 H134       -3.1162  -16.6137  -48.4433 H         1 UNK         0.0800 
    135 H135       -1.8523  -17.2283  -47.4060 H         1 UNK         0.0800 
    136 H136       -1.9761  -15.7241  -50.8810 H         1 UNK         0.1150 
    137 H137        0.2061  -18.9718  -52.6238 H         1 UNK         0.1150 
    138 H138       -0.6908  -18.9954  -48.4313 H         1 UNK         0.1150 
    139 H139       -0.2656  -21.2407  -50.4530 H         1 UNK         0.0800 
    140 H140        1.1783  -20.6547  -51.2513 H         1 UNK         0.0800 
    141 H141        2.5385  -22.8958  -48.6670 H         1 UNK         0.0800 
    142 H142        1.2621  -22.9892  -49.8301 H         1 UNK         0.0800 
    143 H143        0.7301  -24.3031  -47.8377 H         1 UNK         0.0600 
    144 H144        1.7648  -22.1500  -46.3739 H         1 UNK         0.3000 
    145 H145        0.2414  -22.6700  -43.2862 H         1 UNK         0.0600 
    146 H146        2.4835  -23.2087  -42.3593 H         1 UNK         0.0600 
    147 H147        1.7562  -24.6124  -43.1268 H         1 UNK         0.0600 
    148 H148        3.0356  -23.7334  -43.9503 H         1 UNK         0.0600 
    149 H149        0.9744  -20.6436  -43.6226 H         1 UNK         0.3000 
    150 H150        3.9973  -19.1716  -44.6824 H         1 UNK         0.0600 
    151 H151        2.5295  -18.7203  -46.5842 H         1 UNK         0.0600 
    152 H152        2.2696  -17.4500  -45.3967 H         1 UNK         0.0600 
    153 H153        1.0929  -18.7437  -45.5754 H         1 UNK         0.0600 
    154 H154        1.8227  -18.2010  -43.1151 H         1 UNK         0.3000 
    155 H155        2.8028  -19.5516  -39.9707 H         1 UNK         0.0600 
    156 H156        2.9977  -16.6977  -41.0659 H         1 UNK         0.0600 
    157 H157        4.1933  -17.5420  -40.0989 H         1 UNK         0.0600 
    158 H158        2.6487  -17.1054  -39.3845 H         1 UNK         0.0600 
    159 H159        0.7133  -17.8276  -41.0912 H         1 UNK         0.3000 
    160 H160       -1.6588  -20.4393  -41.4591 H         1 UNK         0.0600 
    161 H161       -3.0217  -19.1323  -39.8491 H         1 UNK         0.0600 
    162 H162       -1.5755  -18.3329  -39.2312 H         1 UNK         0.0600 
    163 H163       -1.8009  -20.0618  -38.9949 H         1 UNK         0.0600 
    164 H164       -1.8436  -17.5714  -41.5617 H         1 UNK         0.3000 
    165 H165       -0.7366  -17.1517  -44.8961 H         1 UNK         0.0600 
    166 H166       -3.0991  -17.9221  -45.2177 H         1 UNK         0.0600 
    167 H167       -3.5963  -17.0148  -43.7975 H         1 UNK         0.0600 
    168 H168       -2.9888  -16.1717  -45.2220 H         1 UNK         0.0600 
    169 H169       -1.9089  -15.2724  -43.1713 H         1 UNK         0.3000 
    170 H170       -0.7247  -14.3158  -41.1805 H         1 UNK         0.0600 
    171 H171        1.5294  -14.8742  -40.3981 H         1 UNK         0.0600 
    172 H172        1.4221  -13.1425  -40.6603 H         1 UNK         0.0600 
    173 H173        2.2654  -14.1564  -41.8266 H         1 UNK         0.0600 
    174 H174        0.7252  -12.8854  -43.3307 H         1 UNK         0.3000 
    175 H175       -1.6235  -11.9266  -45.1261 H         1 UNK         0.0600 
    176 H176       -2.2926   -9.5769  -44.5535 H         1 UNK         0.0600 
    177 H177       -3.3187  -10.7766  -43.7871 H         1 UNK         0.0600 
    178 H178       -2.0948   -9.9469  -42.8403 H         1 UNK         0.0600 
    179 H179        0.3783  -11.1078  -45.3976 H         1 UNK         0.3000 
    180 H180        2.2211   -8.7721  -44.3561 H         1 UNK         0.0600 
    181 H181        3.3579  -11.1967  -42.8592 H         1 UNK         0.0600 
    182 H182        3.1802   -9.5668  -42.2194 H         1 UNK         0.0600 
    183 H183        4.3207   -9.8745  -43.5175 H         1 UNK         0.0600 
    184 H184        2.6790  -11.5773  -45.2793 H         1 UNK         0.3000 
    185 H185        2.1822  -10.7105  -48.6416 H         1 UNK         0.0600 
    186 H186        4.9140  -11.4239  -47.4415 H         1 UNK         0.0600 
    187 H187        4.4114  -11.7004  -49.1101 H         1 UNK         0.0600 
    188 H188        4.5938  -10.0612  -48.5074 H         1 UNK         0.0600 
    189 H189        3.1173  -13.1144  -47.4114 H         1 UNK         0.3000 
    190 H190       -0.9101  -21.5005  -46.6480 H         1 UNK         0.3000 
    191 H191       -3.2734  -21.6654  -48.2919 H         1 UNK         0.0600 
    192 H192       -2.6231  -19.5620  -47.1647 H         1 UNK         0.0600 
    193 H193       -2.7851  -20.3305  -45.5843 H         1 UNK         0.0600 
    194 H194       -4.2001  -20.0862  -46.6034 H         1 UNK         0.0600 
    195 H195       -2.1970  -23.1928  -45.2680 H         1 UNK         0.3000 
    196 H196       -4.8397  -24.3369  -44.6663 H         1 UNK         0.0600 
    197 H197       -3.6484  -25.3854  -42.7729 H         1 UNK         0.0600 
    198 H198       -3.3133  -23.6613  -42.8141 H         1 UNK         0.0600 
    199 H199       -2.1003  -24.8113  -43.3739 H         1 UNK         0.0600 
    200 H200       -1.7198  -25.2867  -46.0749 H         1 UNK         0.3000 
    201 H201       -2.1438  -28.0562  -46.2335 H         1 UNK         0.0600 
    202 H202        0.0753  -26.9031  -46.4434 H         1 UNK         0.0600 
    203 H203       -0.3927  -26.3105  -48.0387 H         1 UNK         0.0600 
    204 H204       -0.2086  -28.0344  -47.7584 H         1 UNK         0.0600 
    205 H205       -2.8314  -25.5291  -48.7275 H         1 UNK         0.3000 
    206 H206       -4.6876  -27.3163  -50.1288 H         1 UNK         0.0600 
    207 H207       -2.5224  -28.1116  -51.0470 H         1 UNK         0.0600 
    208 H208       -3.3917  -27.2222  -52.2809 H         1 UNK         0.0600 
    209 H209       -2.0479  -26.4617  -51.4350 H         1 UNK         0.0600 
    210 H210       -5.3503  -25.0826  -48.8161 H         1 UNK         0.3000 
    211 H211       -6.6467  -23.3226  -48.9227 H         1 UNK         0.0600 
    212 H212       -6.7807  -23.7067  -51.9576 H         1 UNK         0.0600 
    213 H213       -7.8764  -22.7446  -50.9794 H         1 UNK         0.0600 
    214 H214       -7.8250  -24.4879  -50.7710 H         1 UNK         0.0600 
    215 H215       -4.1618  -23.1338  -51.3803 H         1 UNK         0.3000 
    216 H216       -2.6986  -20.9735  -50.4174 H         1 UNK         0.0600 
    217 H217       -3.1946  -19.2502  -52.2235 H         1 UNK         0.0600 
    218 H218       -4.4802  -19.3897  -51.0486 H         1 UNK         0.0600 
    219 H219       -4.6563  -20.1497  -52.6307 H         1 UNK         0.0600 
    220 H220       -1.8577  -23.3154  -50.9867 H         1 UNK         0.3000 
    221 H221       -0.6181  -24.7241  -52.1851 H         1 UNK         0.0600 
    222 H222        0.3798  -22.1692  -53.5503 H         1 UNK         0.0600 
    223 H223        0.9948  -22.8548  -52.0484 H         1 UNK         0.0600 
    224 H224        1.2141  -23.7175  -53.5478 H         1 UNK         0.0600 
    225 H225       -3.2696  -24.4332  -53.2200 H         1 UNK         0.3000 
    226 H226       -4.6458  -24.8850  -54.8421 H         1 UNK         0.0600 
    227 H227       -3.2611  -26.9573  -55.1012 H         1 UNK         0.0600 
    228 H228       -4.0340  -26.4809  -56.6032 H         1 UNK         0.0600 
    229 H229       -2.3218  -26.1675  -56.3679 H         1 UNK         0.0600 
    230 H230       -2.7126  -22.3623  -55.1243 H         1 UNK         0.3000 
    231 H231       -3.1325  -21.6613  -57.9464 H         1 UNK         0.0600 
    232 H232       -1.0308  -21.0312  -56.7221 H         1 UNK         0.0600 
    233 H233       -1.9779  -20.0193  -55.6326 H         1 UNK         0.0600 
    234 H234       -1.8920  -19.6297  -57.3417 H         1 UNK         0.0600 
    235 H235       -4.8051  -21.3536  -54.9577 H         1 UNK         0.3000 
    236 H236       -6.6995  -20.4320  -54.2517 H         1 UNK         0.0600 
    237 H237       -8.5644  -20.1988  -55.8518 H         1 UNK         0.0600 
    238 H238       -7.4534  -20.2312  -57.2137 H         1 UNK         0.0600 
    239 H239       -7.6510  -21.6582  -56.1982 H         1 UNK         0.0600 
    240 H240       -4.7463  -18.7165  -53.9712 H         1 UNK         0.3000 
    241 H241       -5.0116  -16.1687  -55.1284 H         1 UNK         0.0600 
    242 H242       -7.8814  -15.9771  -52.2503 H         1 UNK         0.3800 
    243 H243       -7.1658  -17.5060  -52.6840 H         1 UNK         0.3800 
    244 H244       -3.5384  -15.3830  -53.2888 H         1 UNK         0.0800 
    245 H245       -3.8170  -16.8627  -52.4031 H         1 UNK         0.0800 
    246 H246       -1.0269  -15.5146  -53.1479 H         1 UNK         0.0800 
    247 H247       -0.0212  -16.7790  -53.8009 H         1 UNK         0.0800 
@<TRIPOS>BOND
     1    1    2 1    
     2    1  127 1    
     3    1  128 1    
     4    1  129 1    
     5    2    3 2    
     6    2    4 am   BACKBONE|DICT|INTERRES
     7    4    5 1    
     8    4  130 1    
     9    5    6 1    
    10    5   65 1    
    11    5  131 1    
    12    6    7 1    
    13    6  132 1    
    14    6  133 1    
    15    7    8 1    
    16    8    9 1    
    17    8  134 1    
    18    8  135 1    
    19    9   10 ar   
    20    9   14 ar   
    21   10   11 ar   
    22   10  136 1    
    23   11   12 ar   
    24   11  126 1    
    25   12   13 ar   
    26   12  137 1    
    27   13   14 ar   
    28   13   15 1    
    29   14  138 1    
    30   15   16 1    
    31   15  139 1    
    32   15  140 1    
    33   16   17 1    
    34   17   18 1    
    35   17  141 1    
    36   17  142 1    
    37   18   19 1    
    38   18   67 1    
    39   18  143 1    
    40   19   20 am   BACKBONE|DICT|INTERRES
    41   19  144 1    
    42   20   21 2    
    43   20   22 1    
    44   22   23 1    
    45   22   24 1    
    46   22  145 1    
    47   23  146 1    
    48   23  147 1    
    49   23  148 1    
    50   24   25 am   BACKBONE|DICT|INTERRES
    51   24  149 1    
    52   25   26 2    
    53   25   27 1    
    54   27   28 1    
    55   27   29 1    
    56   27  150 1    
    57   28  151 1    
    58   28  152 1    
    59   28  153 1    
    60   29   30 am   BACKBONE|DICT|INTERRES
    61   29  154 1    
    62   30   31 2    
    63   30   32 1    
    64   32   33 1    
    65   32   34 1    
    66   32  155 1    
    67   33  156 1    
    68   33  157 1    
    69   33  158 1    
    70   34   35 am   BACKBONE|DICT|INTERRES
    71   34  159 1    
    72   35   36 2    
    73   35   37 1    
    74   37   38 1    
    75   37   39 1    
    76   37  160 1    
    77   38  161 1    
    78   38  162 1    
    79   38  163 1    
    80   39   40 am   BACKBONE|DICT|INTERRES
    81   39  164 1    
    82   40   41 2    
    83   40   42 1    
    84   42   43 1    
    85   42   44 1    
    86   42  165 1    
    87   43  166 1    
    88   43  167 1    
    89   43  168 1    
    90   44   45 am   BACKBONE|DICT|INTERRES
    91   44  169 1    
    92   45   46 2    
    93   45   47 1    
    94   47   48 1    
    95   47   49 1    
    96   47  170 1    
    97   48  171 1    
    98   48  172 1    
    99   48  173 1    
   100   49   50 am   BACKBONE|DICT|INTERRES
   101   49  174 1    
   102   50   51 2    
   103   50   52 1    
   104   52   53 1    
   105   52   54 1    
   106   52  175 1    
   107   53  176 1    
   108   53  177 1    
   109   53  178 1    
   110   54   55 am   BACKBONE|DICT|INTERRES
   111   54  179 1    
   112   55   56 2    
   113   55   57 1    
   114   57   58 1    
   115   57   59 1    
   116   57  180 1    
   117   58  181 1    
   118   58  182 1    
   119   58  183 1    
   120   59   60 am   BACKBONE|DICT|INTERRES
   121   59  184 1    
   122   60   61 2    
   123   60   62 1    
   124   62   63 1    
   125   62   64 1    
   126   62  185 1    
   127   63  186 1    
   128   63  187 1    
   129   63  188 1    
   130   64   65 am   BACKBONE|DICT|INTERRES
   131   64  189 1    
   132   65   66 2    
   133   67   68 2    
   134   67   69 am   BACKBONE|DICT|INTERRES
   135   69   70 1    
   136   69  190 1    
   137   70   71 1    
   138   70   72 1    
   139   70  191 1    
   140   71  192 1    
   141   71  193 1    
   142   71  194 1    
   143   72   73 2    
   144   72   74 am   BACKBONE|DICT|INTERRES
   145   74   75 1    
   146   74  195 1    
   147   75   76 1    
   148   75   77 1    
   149   75  196 1    
   150   76  197 1    
   151   76  198 1    
   152   76  199 1    
   153   77   78 2    
   154   77   79 am   BACKBONE|DICT|INTERRES
   155   79   80 1    
   156   79  200 1    
   157   80   81 1    
   158   80   82 1    
   159   80  201 1    
   160   81  202 1    
   161   81  203 1    
   162   81  204 1    
   163   82   83 2    
   164   82   84 am   BACKBONE|DICT|INTERRES
   165   84   85 1    
   166   84  205 1    
   167   85   86 1    
   168   85   87 1    
   169   85  206 1    
   170   86  207 1    
   171   86  208 1    
   172   86  209 1    
   173   87   88 2    
   174   87   89 am   BACKBONE|DICT|INTERRES
   175   89   90 1    
   176   89  210 1    
   177   90   91 1    
   178   90   92 1    
   179   90  211 1    
   180   91  212 1    
   181   91  213 1    
   182   91  214 1    
   183   92   93 2    
   184   92   94 am   BACKBONE|DICT|INTERRES
   185   94   95 1    
   186   94  215 1    
   187   95   96 1    
   188   95   97 1    
   189   95  216 1    
   190   96  217 1    
   191   96  218 1    
   192   96  219 1    
   193   97   98 2    
   194   97   99 am   BACKBONE|DICT|INTERRES
   195   99  100 1    
   196   99  220 1    
   197  100  101 1    
   198  100  102 1    
   199  100  221 1    
   200  101  222 1    
   201  101  223 1    
   202  101  224 1    
   203  102  103 2    
   204  102  104 am   BACKBONE|DICT|INTERRES
   205  104  105 1    
   206  104  225 1    
   207  105  106 1    
   208  105  107 1    
   209  105  226 1    
   210  106  227 1    
   211  106  228 1    
   212  106  229 1    
   213  107  108 2    
   214  107  109 am   BACKBONE|DICT|INTERRES
   215  109  110 1    
   216  109  230 1    
   217  110  111 1    
   218  110  112 1    
   219  110  231 1    
   220  111  232 1    
   221  111  233 1    
   222  111  234 1    
   223  112  113 2    
   224  112  114 am   BACKBONE|DICT|INTERRES
   225  114  115 1    
   226  114  235 1    
   227  115  116 1    
   228  115  117 1    
   229  115  236 1    
   230  116  237 1    
   231  116  238 1    
   232  116  239 1    
   233  117  118 2    
   234  117  119 am   BACKBONE|DICT|INTERRES
   235  119  120 1    
   236  119  240 1    
   237  120  121 1    
   238  120  124 1    
   239  120  241 1    
   240  121  122 am   BACKBONE|DICT|INTERRES
   241  121  123 2    
   242  122  242 1    
   243  122  243 1    
   244  124  125 1    
   245  124  244 1    
   246  124  245 1    
   247  125  126 1    
   248  126  246 1    
   249  126  247 1    
@<TRIPOS>SUBSTRUCTURE
     1 UNK         1 GROUP             0       ****    0 ROOT    
