@<TRIPOS>MOLECULE
3R540
247   249    1
SMALL
USER_CHARGES


@<TRIPOS>ATOM
      1 CA          4.6012  -16.2935  -49.1293 C.3       0 UNK        -0.1800 
      2 C           3.1474  -16.4028  -48.6927 C.2       0 UNK         0.5000 
      3 O           2.6696  -17.5087  -48.4523 O.2       0 UNK        -0.5000 
      4 N           2.4534  -15.2644  -48.6053 N.am      1 UNK        -0.5000 
      5 CA          1.0901  -15.1254  -48.0827 C.3       1 UNK         0.1400 
      6 C6          0.0555  -14.7958  -49.1954 C.3       23 UNK        -0.0398 
      7 S7         -0.2490  -16.2049  -50.3150 S.3       23 UNK        -0.2404 
      8 C8          0.6487  -15.7134  -51.8239 C.3       23 UNK        -0.0205 
      9 C9          1.1256  -16.9472  -52.5733 C.ar      23 UNK        -0.0193 
     10 C10         0.4952  -17.3955  -53.7372 C.ar      23 UNK        -0.1150 
     11 C11         0.9194  -18.5764  -54.3605 C.ar      23 UNK        -0.0193 
     12 C12         1.9628  -19.3218  -53.7968 C.ar      23 UNK        -0.1150 
     13 C13         2.5874  -18.8845  -52.6261 C.ar      23 UNK        -0.0193 
     14 C14         2.1930  -17.6762  -52.0555 C.ar      23 UNK        -0.1150 
     15 C15         3.6561  -19.7178  -51.9310 C.3       23 UNK        -0.0205 
     16 S16         2.9588  -21.0461  -50.8829 S.3       23 UNK        -0.2404 
     17 C17         1.5061  -20.2697  -50.0879 C.3       23 UNK        -0.0398 
     18 CA          1.2260  -20.7917  -48.6607 C.3       11 UNK         0.1400 
     19 N           2.1983  -20.3114  -47.6695 N.am      11 UNK        -0.5000 
     20 C           2.3122  -20.8212  -46.4345 C.2       10 UNK         0.5000 
     21 O           1.6283  -21.7635  -46.0339 O.2       10 UNK        -0.5000 
     22 CA          3.3203  -20.1819  -45.4565 C.3       10 UNK         0.1400 
     23 CB          4.4294  -19.3436  -46.1268 C.3       10 UNK        -0.1800 
     24 N           2.6406  -19.4155  -44.4072 N.am      10 UNK        -0.5000 
     25 C           1.8182  -18.3705  -44.5821 C.2       9 UNK         0.5000 
     26 O           1.5410  -17.8843  -45.6769 O.2       9 UNK        -0.5000 
     27 CA          1.1701  -17.7634  -43.3281 C.3       9 UNK         0.1400 
     28 CB         -0.2319  -18.3527  -43.1312 C.3       9 UNK        -0.1800 
     29 N           1.9217  -17.9328  -42.0863 N.am      9 UNK        -0.5000 
     30 C           3.1305  -17.4217  -41.8189 C.2       8 UNK         0.5000 
     31 O           3.8172  -16.8228  -42.6457 O.2       8 UNK        -0.5000 
     32 CA          3.6549  -17.5843  -40.3809 C.3       8 UNK         0.1400 
     33 CB          3.3931  -16.3024  -39.5739 C.3       8 UNK        -0.1800 
     34 N           3.0251  -18.7072  -39.6820 N.am      8 UNK        -0.5000 
     35 C           3.6415  -19.8490  -39.3499 C.2       7 UNK         0.5000 
     36 O           4.8225  -20.0886  -39.6050 O.2       7 UNK        -0.5000 
     37 CA          2.8091  -20.9063  -38.5947 C.3       7 UNK         0.1400 
     38 CB          3.0114  -20.7611  -37.0786 C.3       7 UNK        -0.1800 
     39 N           1.3754  -20.8525  -38.8870 N.am      7 UNK        -0.5000 
     40 C           0.8247  -21.1750  -40.0646 C.2       6 UNK         0.5000 
     41 O           1.4694  -21.5780  -41.0325 O.2       6 UNK        -0.5000 
     42 CA         -0.7016  -20.9952  -40.1965 C.3       6 UNK         0.1400 
     43 CB         -1.4233  -22.3048  -39.8454 C.3       6 UNK        -0.1800 
     44 N          -1.2981  -19.8976  -39.4223 N.am      6 UNK        -0.5000 
     45 C          -0.8942  -18.6201  -39.4106 C.2       5 UNK         0.5000 
     46 O           0.1634  -18.2248  -39.9031 O.2       5 UNK        -0.5000 
     47 CA         -1.8279  -17.5988  -38.7453 C.3       5 UNK         0.1400 
     48 CB         -1.1163  -16.8893  -37.5826 C.3       5 UNK        -0.1800 
     49 N          -2.2560  -16.6010  -39.7257 N.am      5 UNK        -0.5000 
     50 C          -3.1679  -16.8092  -40.6881 C.2       4 UNK         0.5000 
     51 O          -3.7843  -17.8670  -40.8194 O.2       4 UNK        -0.5000 
     52 CA         -3.4511  -15.6466  -41.6620 C.3       4 UNK         0.1400 
     53 CB         -4.7096  -14.8809  -41.2239 C.3       4 UNK        -0.1800 
     54 N          -2.3287  -14.7081  -41.7398 N.am      4 UNK        -0.5000 
     55 C          -1.3680  -14.7538  -42.6703 C.2       3 UNK         0.5000 
     56 O          -1.3884  -15.4989  -43.6522 O.2       3 UNK        -0.5000 
     57 CA         -0.1652  -13.8300  -42.4396 C.3       3 UNK         0.1400 
     58 CB          0.6181  -14.2663  -41.1838 C.3       3 UNK        -0.1800 
     59 N           0.7143  -13.8693  -43.6056 N.am      3 UNK        -0.5000 
     60 C           1.6371  -12.9482  -43.8996 C.2       2 UNK         0.5000 
     61 O           1.8010  -11.9211  -43.2390 O.2       2 UNK        -0.5000 
     62 CA          2.5559  -13.2057  -45.1085 C.3       2 UNK         0.1400 
     63 CB          3.9648  -13.5941  -44.6327 C.3       2 UNK        -0.1800 
     64 N           2.0880  -14.2337  -46.0405 N.am      2 UNK        -0.5000 
     65 C           1.1550  -14.0449  -46.9834 C.2       1 UNK         0.5000 
     66 O           0.4487  -13.0377  -47.0469 O.2       1 UNK        -0.5000 
     67 C          -0.2222  -20.4491  -48.2555 C.2       11 UNK         0.5000 
     68 O          -1.1221  -21.2370  -48.5458 O.2       11 UNK        -0.5000 
     69 N          -0.4300  -19.3197  -47.5593 N.am      12 UNK        -0.5000 
     70 CA         -1.7481  -18.8755  -47.0908 C.3       12 UNK         0.1400 
     71 CB         -1.7077  -17.3796  -46.7378 C.3       12 UNK        -0.1800 
     72 C          -2.3352  -19.7273  -45.9455 C.2       12 UNK         0.5000 
     73 O          -3.4972  -19.5326  -45.5878 O.2       12 UNK        -0.5000 
     74 N          -1.5498  -20.6732  -45.4069 N.am      13 UNK        -0.5000 
     75 CA         -2.0209  -21.7084  -44.4866 C.3       13 UNK         0.1400 
     76 CB         -0.8103  -22.4100  -43.8515 C.3       13 UNK        -0.1800 
     77 C          -2.9261  -22.7471  -45.1823 C.2       13 UNK         0.5000 
     78 O          -3.7308  -23.3892  -44.5063 O.2       13 UNK        -0.5000 
     79 N          -2.7788  -22.8978  -46.5060 N.am      14 UNK        -0.5000 
     80 CA         -3.5838  -23.7756  -47.3470 C.3       14 UNK         0.1400 
     81 CB         -2.6529  -24.4927  -48.3384 C.3       14 UNK        -0.1800 
     82 C          -4.6342  -22.9558  -48.1115 C.2       14 UNK         0.5000 
     83 O          -4.4121  -21.7803  -48.4125 O.2       14 UNK        -0.5000 
     84 N          -5.7424  -23.6157  -48.4720 N.am      15 UNK        -0.5000 
     85 CA         -6.8234  -23.0456  -49.2830 C.3       15 UNK         0.1400 
     86 CB         -8.0408  -23.9802  -49.2258 C.3       15 UNK        -0.1800 
     87 C          -6.4195  -22.7816  -50.7471 C.2       15 UNK         0.5000 
     88 O          -7.0723  -21.9824  -51.4181 O.2       15 UNK        -0.5000 
     89 N          -5.3426  -23.4325  -51.2126 N.am      16 UNK        -0.5000 
     90 CA         -4.7856  -23.3070  -52.5603 C.3       16 UNK         0.1400 
     91 CB         -3.5883  -24.2575  -52.7069 C.3       16 UNK        -0.1800 
     92 C          -4.3762  -21.8728  -52.9391 C.2       16 UNK         0.5000 
     93 O          -4.4953  -21.5085  -54.1082 O.2       16 UNK        -0.5000 
     94 N          -3.9339  -21.0814  -51.9523 N.am      17 UNK        -0.5000 
     95 CA         -3.5932  -19.6687  -52.1224 C.3       17 UNK         0.1400 
     96 CB         -2.8291  -19.1798  -50.8861 C.3       17 UNK        -0.1800 
     97 C          -4.8257  -18.7842  -52.3857 C.2       17 UNK         0.5000 
     98 O          -4.7402  -17.8438  -53.1752 O.2       17 UNK        -0.5000 
     99 N          -5.9524  -19.1114  -51.7380 N.am      18 UNK        -0.5000 
    100 CA        -7.2330  -18.4246  -51.9111 C.3       18 UNK         0.1400 
    101 CB        -8.1228  -18.6857  -50.6857 C.3       18 UNK        -0.1800 
    102 C         -7.9409  -18.8594  -53.2059 C.2       18 UNK         0.5000 
    103 O         -8.5269  -18.0222  -53.8928 O.2       18 UNK        -0.5000 
    104 N         -7.8544  -20.1581  -53.5237 N.am      19 UNK        -0.5000 
    105 CA        -8.4143  -20.7682  -54.7310 C.3       19 UNK         0.1400 
    106 CB        -8.4673  -22.2906  -54.5269 C.3       19 UNK        -0.1800 
    107 C         -7.6310  -20.4344  -56.0170 C.2       19 UNK         0.5000 
    108 O         -8.1617  -20.6396  -57.1090 O.2       19 UNK        -0.5000 
    109 N         -6.3829  -19.9649  -55.8646 N.am      20 UNK        -0.5000 
    110 CA        -5.3799  -19.7276  -56.9106 C.3       20 UNK         0.1400 
    111 CB        -5.8376  -18.6336  -57.8971 C.3       20 UNK        -0.1800 
    112 C         -4.9295  -21.0309  -57.6084 C.2       20 UNK         0.5000 
    113 O         -4.5378  -21.0133  -58.7763 O.2       20 UNK        -0.5000 
    114 N         -4.9721  -22.1389  -56.8581 N.am      21 UNK        -0.5000 
    115 CA        -4.4981  -23.4652  -57.2547 C.3       21 UNK         0.1400 
    116 CB        -5.3550  -24.5220  -56.5398 C.3       21 UNK        -0.1800 
    117 C         -3.0035  -23.6643  -56.9299 C.2       21 UNK         0.5000 
    118 O         -2.4208  -24.6672  -57.3426 O.2       21 UNK        -0.5000 
    119 N         -2.4164  -22.7121  -56.1943 N.am      22 UNK        -0.5000 
    120 CA        -1.0035  -22.6451  -55.7946 C.3       22 UNK         0.1400 
    121 C          0.0329  -22.5318  -56.9540 C.2       22 UNK         0.5000 
    122 N         -0.3639  -22.2027  -58.1774 N.am      22 UNK        -0.7600 
    123 O          1.2212  -22.7500  -56.7355 O.2       22 UNK        -0.5000 
    124 C124       -0.7903  -21.5307  -54.7369 C.3       23 UNK        -0.0398 
    125 S125       -1.3390  -19.8786  -55.3067 S.3       23 UNK        -0.2404 
    126 C126        0.2430  -19.0443  -55.6397 C.3       23 UNK        -0.0205 
    127 H127        4.8777  -15.2665  -49.3685 H         1 UNK         0.0600 
    128 H128        5.2559  -16.6463  -48.3325 H         1 UNK         0.0600 
    129 H129        4.7786  -16.9075  -50.0117 H         1 UNK         0.0600 
    130 H130        2.9170  -14.3911  -48.8137 H         1 UNK         0.3000 
    131 H131        0.7823  -16.0465  -47.5852 H         1 UNK         0.0600 
    132 H132       -0.9080  -14.5401  -48.7513 H         1 UNK         0.0800 
    133 H133        0.3637  -13.9204  -49.7691 H         1 UNK         0.0800 
    134 H134        0.0017  -15.0982  -52.4507 H         1 UNK         0.0800 
    135 H135        1.5123  -15.1001  -51.5625 H         1 UNK         0.0800 
    136 H136       -0.3326  -16.8369  -54.1511 H         1 UNK         0.1150 
    137 H137        2.2769  -20.2490  -54.2551 H         1 UNK         0.1150 
    138 H138        2.6733  -17.3358  -51.1549 H         1 UNK         0.1150 
    139 H139        4.2867  -19.0798  -51.3100 H         1 UNK         0.0800 
    140 H140        4.3171  -20.1631  -52.6758 H         1 UNK         0.0800 
    141 H141        0.6579  -20.4571  -50.7499 H         1 UNK         0.0800 
    142 H142        1.6207  -19.1901  -50.0473 H         1 UNK         0.0800 
    143 H143        1.2900  -21.8818  -48.6871 H         1 UNK         0.0600 
    144 H144        2.6936  -19.4557  -47.9035 H         1 UNK         0.3000 
    145 H145        3.8119  -21.0169  -44.9553 H         1 UNK         0.0600 
    146 H146        5.2196  -19.1127  -45.4126 H         1 UNK         0.0600 
    147 H147        4.8914  -19.8830  -46.9546 H         1 UNK         0.0600 
    148 H148        4.0586  -18.3958  -46.5105 H         1 UNK         0.0600 
    149 H149        2.7674  -19.7531  -43.4637 H         1 UNK         0.3000 
    150 H150        1.0736  -16.6923  -43.5064 H         1 UNK         0.0600 
    151 H151       -0.1908  -19.4201  -42.9263 H         1 UNK         0.0600 
    152 H152       -0.8460  -18.2108  -44.0168 H         1 UNK         0.0600 
    153 H153       -0.7574  -17.8660  -42.3121 H         1 UNK         0.0600 
    154 H154        1.3971  -18.3265  -41.3119 H         1 UNK         0.3000 
    155 H155        4.7354  -17.7267  -40.4472 H         1 UNK         0.0600 
    156 H156        2.3263  -16.1320  -39.4244 H         1 UNK         0.0600 
    157 H157        3.8005  -15.4262  -40.0802 H         1 UNK         0.0600 
    158 H158        3.8614  -16.3568  -38.5911 H         1 UNK         0.0600 
    159 H159        2.0374  -18.6058  -39.4707 H         1 UNK         0.3000 
    160 H160        3.1783  -21.8893  -38.8949 H         1 UNK         0.0600 
    161 H161        2.6401  -19.8026  -36.7134 H         1 UNK         0.0600 
    162 H162        4.0686  -20.8246  -36.8173 H         1 UNK         0.0600 
    163 H163        2.4957  -21.5519  -36.5336 H         1 UNK         0.0600 
    164 H164        0.7709  -20.5197  -38.1504 H         1 UNK         0.3000 
    165 H165       -0.9066  -20.7808  -41.2451 H         1 UNK         0.0600 
    166 H166       -2.4873  -22.2437  -40.0750 H         1 UNK         0.0600 
    167 H167       -1.3199  -22.5486  -38.7874 H         1 UNK         0.0600 
    168 H168       -1.0187  -23.1418  -40.4163 H         1 UNK         0.0600 
    169 H169       -2.1766  -20.1155  -38.9744 H         1 UNK         0.3000 
    170 H170       -2.7080  -18.1106  -38.3503 H         1 UNK         0.0600 
    171 H171       -0.7862  -17.6074  -36.8309 H         1 UNK         0.0600 
    172 H172       -0.2360  -16.3400  -37.9200 H         1 UNK         0.0600 
    173 H173       -1.7816  -16.1826  -37.0862 H         1 UNK         0.0600 
    174 H174       -1.7621  -15.7234  -39.7088 H         1 UNK         0.3000 
    175 H175       -3.6459  -16.0810  -42.6450 H         1 UNK         0.0600 
    176 H176       -4.5858  -14.4289  -40.2390 H         1 UNK         0.0600 
    177 H177       -4.9520  -14.0865  -41.9301 H         1 UNK         0.0600 
    178 H178       -5.5736  -15.5451  -41.1745 H         1 UNK         0.0600 
    179 H179       -2.2586  -14.0289  -40.9958 H         1 UNK         0.3000 
    180 H180       -0.5406  -12.8131  -42.3076 H         1 UNK         0.0600 
    181 H181        0.9326  -15.3074  -41.2559 H         1 UNK         0.0600 
    182 H182        0.0132  -14.1697  -40.2821 H         1 UNK         0.0600 
    183 H183        1.5104  -13.6591  -41.0323 H         1 UNK         0.0600 
    184 H184        0.5631  -14.6521  -44.2283 H         1 UNK         0.3000 
    185 H185        2.6364  -12.2622  -45.6529 H         1 UNK         0.0600 
    186 H186        4.6538  -13.6891  -45.4721 H         1 UNK         0.0600 
    187 H187        4.3761  -12.8392  -43.9612 H         1 UNK         0.0600 
    188 H188        3.9582  -14.5423  -44.0945 H         1 UNK         0.0600 
    189 H189        2.6114  -15.0981  -46.0566 H         1 UNK         0.3000 
    190 H190        0.3663  -18.7456  -47.2998 H         1 UNK         0.3000 
    191 H191       -2.4470  -18.9852  -47.9204 H         1 UNK         0.0600 
    192 H192       -1.5434  -16.7787  -47.6302 H         1 UNK         0.0600 
    193 H193       -0.9210  -17.1417  -46.0250 H         1 UNK         0.0600 
    194 H194       -2.6509  -17.0472  -46.3026 H         1 UNK         0.0600 
    195 H195       -0.6070  -20.7764  -45.7571 H         1 UNK         0.3000 
    196 H196       -2.5974  -21.2276  -43.6934 H         1 UNK         0.0600 
    197 H197       -0.2650  -23.0081  -44.5824 H         1 UNK         0.0600 
    198 H198       -0.1080  -21.6983  -43.4199 H         1 UNK         0.0600 
    199 H199       -1.1263  -23.0823  -43.0531 H         1 UNK         0.0600 
    200 H200       -2.1583  -22.2717  -47.0078 H         1 UNK         0.3000 
    201 H201       -4.0918  -24.5274  -46.7393 H         1 UNK         0.0600 
    202 H202       -2.1486  -23.7880  -49.0013 H         1 UNK         0.0600 
    203 H203       -3.2073  -25.1932  -48.9639 H         1 UNK         0.0600 
    204 H204       -1.8862  -25.0639  -47.8146 H         1 UNK         0.0600 
    205 H205       -5.8529  -24.5805  -48.1938 H         1 UNK         0.3000 
    206 H206       -7.1082  -22.0856  -48.8471 H         1 UNK         0.0600 
    207 H207       -8.3872  -24.1152  -48.2010 H         1 UNK         0.0600 
    208 H208       -8.8750  -23.5706  -49.7974 H         1 UNK         0.0600 
    209 H209       -7.8131  -24.9644  -49.6373 H         1 UNK         0.0600 
    210 H210       -4.8739  -24.0721  -50.5895 H         1 UNK         0.3000 
    211 H211       -5.5608  -23.6209  -53.2602 H         1 UNK         0.0600 
    212 H212       -3.1634  -24.2019  -53.7099 H         1 UNK         0.0600 
    213 H213       -3.8837  -25.2933  -52.5392 H         1 UNK         0.0600 
    214 H214       -2.7934  -24.0155  -52.0001 H         1 UNK         0.0600 
    215 H215       -3.8747  -21.4552  -51.0149 H         1 UNK         0.3000 
    216 H216       -2.9324  -19.5745  -52.9834 H         1 UNK         0.0600 
    217 H217       -3.4171  -19.3164  -49.9786 H         1 UNK         0.0600 
    218 H218       -2.5848  -18.1202  -50.9680 H         1 UNK         0.0600 
    219 H219       -1.8903  -19.7198  -50.7669 H         1 UNK         0.0600 
    220 H220       -5.9550  -19.9333  -51.1506 H         1 UNK         0.3000 
    221 H221       -7.0505  -17.3495  -51.9719 H         1 UNK         0.0600 
    222 H222       -7.6433  -18.3393  -49.7700 H         1 UNK         0.0600 
    223 H223       -8.3489  -19.7456  -50.5651 H         1 UNK         0.0600 
    224 H224       -9.0725  -18.1569  -50.7753 H         1 UNK         0.0600 
    225 H225       -7.4147  -20.7891  -52.8586 H         1 UNK         0.3000 
    226 H226       -9.4349  -20.4026  -54.8612 H         1 UNK         0.0600 
    227 H227       -7.4696  -22.7130  -54.4064 H         1 UNK         0.0600 
    228 H228       -9.0501  -22.5514  -53.6432 H         1 UNK         0.0600 
    229 H229       -8.9317  -22.7855  -55.3808 H         1 UNK         0.0600 
    230 H230       -6.0398  -19.8773  -54.9174 H         1 UNK         0.3000 
    231 H231       -4.4976  -19.3492  -56.3920 H         1 UNK         0.0600 
    232 H232       -6.6652  -18.9684  -58.5227 H         1 UNK         0.0600 
    233 H233       -5.0236  -18.3449  -58.5628 H         1 UNK         0.0600 
    234 H234       -6.1570  -17.7355  -57.3683 H         1 UNK         0.0600 
    235 H235       -5.2197  -22.0240  -55.8810 H         1 UNK         0.3000 
    236 H236       -4.6246  -23.5904  -58.3320 H         1 UNK         0.0600 
    237 H237       -6.4135  -24.3902  -56.7653 H         1 UNK         0.0600 
    238 H238       -5.0784  -25.5285  -56.8561 H         1 UNK         0.0600 
    239 H239       -5.2338  -24.4743  -55.4581 H         1 UNK         0.0600 
    240 H240       -2.9870  -21.9373  -55.8841 H         1 UNK         0.3000 
    241 H241       -0.7832  -23.5960  -55.3062 H         1 UNK         0.0600 
    242 H242        0.3151  -22.1372  -58.9193 H         1 UNK         0.3800 
    243 H243       -1.3350  -22.0145  -58.3675 H         1 UNK         0.3800 
    244 H244        0.2496  -21.4979  -54.4118 H         1 UNK         0.0800 
    245 H245       -1.3615  -21.7717  -53.8396 H         1 UNK         0.0800 
    246 H246        0.9001  -19.7049  -56.2072 H         1 UNK         0.0800 
    247 H247        0.0543  -18.1827  -56.2817 H         1 UNK         0.0800 
@<TRIPOS>BOND
     1    1    2 1    
     2    1  127 1    
     3    1  128 1    
     4    1  129 1    
     5    2    3 2    
     6    2    4 am   BACKBONE|DICT|INTERRES
     7    4    5 1    
     8    4  130 1    
     9    5    6 1    
    10    5   65 1    
    11    5  131 1    
    12    6    7 1    
    13    6  132 1    
    14    6  133 1    
    15    7    8 1    
    16    8    9 1    
    17    8  134 1    
    18    8  135 1    
    19    9   10 ar   
    20    9   14 ar   
    21   10   11 ar   
    22   10  136 1    
    23   11   12 ar   
    24   11  126 1    
    25   12   13 ar   
    26   12  137 1    
    27   13   14 ar   
    28   13   15 1    
    29   14  138 1    
    30   15   16 1    
    31   15  139 1    
    32   15  140 1    
    33   16   17 1    
    34   17   18 1    
    35   17  141 1    
    36   17  142 1    
    37   18   19 1    
    38   18   67 1    
    39   18  143 1    
    40   19   20 am   BACKBONE|DICT|INTERRES
    41   19  144 1    
    42   20   21 2    
    43   20   22 1    
    44   22   23 1    
    45   22   24 1    
    46   22  145 1    
    47   23  146 1    
    48   23  147 1    
    49   23  148 1    
    50   24   25 am   BACKBONE|DICT|INTERRES
    51   24  149 1    
    52   25   26 2    
    53   25   27 1    
    54   27   28 1    
    55   27   29 1    
    56   27  150 1    
    57   28  151 1    
    58   28  152 1    
    59   28  153 1    
    60   29   30 am   BACKBONE|DICT|INTERRES
    61   29  154 1    
    62   30   31 2    
    63   30   32 1    
    64   32   33 1    
    65   32   34 1    
    66   32  155 1    
    67   33  156 1    
    68   33  157 1    
    69   33  158 1    
    70   34   35 am   BACKBONE|DICT|INTERRES
    71   34  159 1    
    72   35   36 2    
    73   35   37 1    
    74   37   38 1    
    75   37   39 1    
    76   37  160 1    
    77   38  161 1    
    78   38  162 1    
    79   38  163 1    
    80   39   40 am   BACKBONE|DICT|INTERRES
    81   39  164 1    
    82   40   41 2    
    83   40   42 1    
    84   42   43 1    
    85   42   44 1    
    86   42  165 1    
    87   43  166 1    
    88   43  167 1    
    89   43  168 1    
    90   44   45 am   BACKBONE|DICT|INTERRES
    91   44  169 1    
    92   45   46 2    
    93   45   47 1    
    94   47   48 1    
    95   47   49 1    
    96   47  170 1    
    97   48  171 1    
    98   48  172 1    
    99   48  173 1    
   100   49   50 am   BACKBONE|DICT|INTERRES
   101   49  174 1    
   102   50   51 2    
   103   50   52 1    
   104   52   53 1    
   105   52   54 1    
   106   52  175 1    
   107   53  176 1    
   108   53  177 1    
   109   53  178 1    
   110   54   55 am   BACKBONE|DICT|INTERRES
   111   54  179 1    
   112   55   56 2    
   113   55   57 1    
   114   57   58 1    
   115   57   59 1    
   116   57  180 1    
   117   58  181 1    
   118   58  182 1    
   119   58  183 1    
   120   59   60 am   BACKBONE|DICT|INTERRES
   121   59  184 1    
   122   60   61 2    
   123   60   62 1    
   124   62   63 1    
   125   62   64 1    
   126   62  185 1    
   127   63  186 1    
   128   63  187 1    
   129   63  188 1    
   130   64   65 am   BACKBONE|DICT|INTERRES
   131   64  189 1    
   132   65   66 2    
   133   67   68 2    
   134   67   69 am   BACKBONE|DICT|INTERRES
   135   69   70 1    
   136   69  190 1    
   137   70   71 1    
   138   70   72 1    
   139   70  191 1    
   140   71  192 1    
   141   71  193 1    
   142   71  194 1    
   143   72   73 2    
   144   72   74 am   BACKBONE|DICT|INTERRES
   145   74   75 1    
   146   74  195 1    
   147   75   76 1    
   148   75   77 1    
   149   75  196 1    
   150   76  197 1    
   151   76  198 1    
   152   76  199 1    
   153   77   78 2    
   154   77   79 am   BACKBONE|DICT|INTERRES
   155   79   80 1    
   156   79  200 1    
   157   80   81 1    
   158   80   82 1    
   159   80  201 1    
   160   81  202 1    
   161   81  203 1    
   162   81  204 1    
   163   82   83 2    
   164   82   84 am   BACKBONE|DICT|INTERRES
   165   84   85 1    
   166   84  205 1    
   167   85   86 1    
   168   85   87 1    
   169   85  206 1    
   170   86  207 1    
   171   86  208 1    
   172   86  209 1    
   173   87   88 2    
   174   87   89 am   BACKBONE|DICT|INTERRES
   175   89   90 1    
   176   89  210 1    
   177   90   91 1    
   178   90   92 1    
   179   90  211 1    
   180   91  212 1    
   181   91  213 1    
   182   91  214 1    
   183   92   93 2    
   184   92   94 am   BACKBONE|DICT|INTERRES
   185   94   95 1    
   186   94  215 1    
   187   95   96 1    
   188   95   97 1    
   189   95  216 1    
   190   96  217 1    
   191   96  218 1    
   192   96  219 1    
   193   97   98 2    
   194   97   99 am   BACKBONE|DICT|INTERRES
   195   99  100 1    
   196   99  220 1    
   197  100  101 1    
   198  100  102 1    
   199  100  221 1    
   200  101  222 1    
   201  101  223 1    
   202  101  224 1    
   203  102  103 2    
   204  102  104 am   BACKBONE|DICT|INTERRES
   205  104  105 1    
   206  104  225 1    
   207  105  106 1    
   208  105  107 1    
   209  105  226 1    
   210  106  227 1    
   211  106  228 1    
   212  106  229 1    
   213  107  108 2    
   214  107  109 am   BACKBONE|DICT|INTERRES
   215  109  110 1    
   216  109  230 1    
   217  110  111 1    
   218  110  112 1    
   219  110  231 1    
   220  111  232 1    
   221  111  233 1    
   222  111  234 1    
   223  112  113 2    
   224  112  114 am   BACKBONE|DICT|INTERRES
   225  114  115 1    
   226  114  235 1    
   227  115  116 1    
   228  115  117 1    
   229  115  236 1    
   230  116  237 1    
   231  116  238 1    
   232  116  239 1    
   233  117  118 2    
   234  117  119 am   BACKBONE|DICT|INTERRES
   235  119  120 1    
   236  119  240 1    
   237  120  121 1    
   238  120  124 1    
   239  120  241 1    
   240  121  122 am   BACKBONE|DICT|INTERRES
   241  121  123 2    
   242  122  242 1    
   243  122  243 1    
   244  124  125 1    
   245  124  244 1    
   246  124  245 1    
   247  125  126 1    
   248  126  246 1    
   249  126  247 1    
@<TRIPOS>SUBSTRUCTURE
     1 UNK         1 GROUP             0       ****    0 ROOT    
