@<TRIPOS>MOLECULE
3R540
247   249    1
SMALL
USER_CHARGES


@<TRIPOS>ATOM
      1 CA          1.5684  -12.3684  -44.6260 C.3       0 UNK        -0.1800 
      2 C           0.5844  -13.4088  -45.1373 C.2       0 UNK         0.5000 
      3 O          -0.1981  -13.9558  -44.3593 O.2       0 UNK        -0.5000 
      4 N           0.5951  -13.6657  -46.4524 N.am      1 UNK        -0.5000 
      5 CA         -0.2365  -14.6701  -47.1338 C.3       1 UNK         0.1400 
      6 C6          0.2330  -14.9052  -48.5927 C.3       23 UNK        -0.0398 
      7 S7         -0.0126  -16.6306  -49.1343 S.3       23 UNK        -0.2404 
      8 C8          1.4624  -16.8833  -50.1659 C.3       23 UNK        -0.0205 
      9 C9          1.4711  -18.2740  -50.7776 C.ar      23 UNK        -0.0193 
     10 C10         0.9307  -18.4889  -52.0501 C.ar      23 UNK        -0.1150 
     11 C11         0.9299  -19.7688  -52.6136 C.ar      23 UNK        -0.0193 
     12 C12         1.4874  -20.8318  -51.8968 C.ar      23 UNK        -0.1150 
     13 C13         2.0197  -20.6321  -50.6198 C.ar      23 UNK        -0.0193 
     14 C14         2.0118  -19.3493  -50.0657 C.ar      23 UNK        -0.1150 
     15 C15         2.5938  -21.8074  -49.8428 C.3       23 UNK        -0.0205 
     16 S16         1.3024  -23.0071  -49.3863 S.3       23 UNK        -0.2404 
     17 C17         0.4216  -22.1280  -48.0509 C.3       23 UNK        -0.0398 
     18 CA          0.3782  -22.9628  -46.7518 C.3       11 UNK         0.1400 
     19 N           1.7250  -23.2461  -46.2491 N.am      11 UNK        -0.5000 
     20 C           2.0267  -24.1340  -45.2944 C.2       10 UNK         0.5000 
     21 O           1.1829  -24.8155  -44.7109 O.2       10 UNK        -0.5000 
     22 CA          3.5192  -24.3258  -44.9461 C.3       10 UNK         0.1400 
     23 CB          3.9425  -25.7841  -45.1883 C.3       10 UNK        -0.1800 
     24 N           4.4227  -23.4593  -45.7149 N.am      10 UNK        -0.5000 
     25 C           4.7947  -22.2003  -45.4418 C.2       9 UNK         0.5000 
     26 O           5.5938  -21.6037  -46.1649 O.2       9 UNK        -0.5000 
     27 CA          4.2496  -21.4937  -44.1788 C.3       9 UNK         0.1400 
     28 CB          5.1736  -21.7581  -42.9778 C.3       9 UNK        -0.1800 
     29 N           4.1103  -20.0461  -44.3426 N.am      9 UNK        -0.5000 
     30 C           3.3419  -19.4372  -45.2549 C.2       8 UNK         0.5000 
     31 O           2.6630  -20.0312  -46.0941 O.2       8 UNK        -0.5000 
     32 CA          3.3119  -17.9037  -45.1733 C.3       8 UNK         0.1400 
     33 CB          2.3862  -17.2586  -46.2256 C.3       8 UNK        -0.1800 
     34 N           2.9412  -17.4938  -43.8156 N.am      8 UNK        -0.5000 
     35 C           3.2366  -16.3050  -43.2719 C.2       7 UNK         0.5000 
     36 O           3.8356  -15.4164  -43.8784 O.2       7 UNK        -0.5000 
     37 CA          2.8064  -16.0437  -41.8143 C.3       7 UNK         0.1400 
     38 CB          1.6648  -15.0176  -41.7564 C.3       7 UNK        -0.1800 
     39 N           2.3887  -17.2462  -41.0913 N.am      7 UNK        -0.5000 
     40 C           3.2228  -18.0593  -40.4266 C.2       6 UNK         0.5000 
     41 O           4.4474  -17.9323  -40.4370 O.2       6 UNK        -0.5000 
     42 CA          2.5895  -19.1980  -39.5994 C.3       6 UNK         0.1400 
     43 CB          2.4278  -18.7690  -38.1333 C.3       6 UNK        -0.1800 
     44 N           1.2882  -19.6249  -40.1150 N.am      6 UNK        -0.5000 
     45 C           1.1287  -20.3080  -41.2538 C.2       5 UNK         0.5000 
     46 O           2.0686  -20.7149  -41.9322 O.2       5 UNK        -0.5000 
     47 CA         -0.3053  -20.5258  -41.7632 C.3       5 UNK         0.1400 
     48 CB         -1.3931  -20.4774  -40.6670 C.3       5 UNK        -0.1800 
     49 N          -0.5935  -19.5901  -42.8530 N.am      5 UNK        -0.5000 
     50 C          -0.6498  -18.2531  -42.7770 C.2       4 UNK         0.5000 
     51 O          -0.4789  -17.6291  -41.7268 O.2       4 UNK        -0.5000 
     52 CA         -0.8773  -17.4618  -44.0833 C.3       4 UNK         0.1400 
     53 CB         -1.4068  -18.2968  -45.2672 C.3       4 UNK        -0.1800 
     54 N          -1.7095  -16.2798  -43.8624 N.am      4 UNK        -0.5000 
     55 C          -2.9689  -16.2428  -43.4006 C.2       3 UNK         0.5000 
     56 O          -3.6640  -17.2383  -43.1914 O.2       3 UNK        -0.5000 
     57 CA         -3.5479  -14.8436  -43.1324 C.3       3 UNK         0.1400 
     58 CB         -2.9766  -14.2671  -41.8268 C.3       3 UNK        -0.1800 
     59 N          -3.2284  -13.9403  -44.2364 N.am      3 UNK        -0.5000 
     60 C          -4.1009  -13.5292  -45.1663 C.2       2 UNK         0.5000 
     61 O          -5.3116  -13.7462  -45.1173 O.2       2 UNK        -0.5000 
     62 CA         -3.5216  -12.7698  -46.3798 C.3       2 UNK         0.1400 
     63 CB         -3.5807  -11.2531  -46.1457 C.3       2 UNK        -0.1800 
     64 N          -2.1424  -13.1521  -46.6954 N.am      2 UNK        -0.5000 
     65 C          -1.7552  -14.3836  -47.0590 C.2       1 UNK         0.5000 
     66 O          -2.5535  -15.2890  -47.2910 O.2       1 UNK        -0.5000 
     67 C          -0.5003  -22.2685  -45.6911 C.2       11 UNK         0.5000 
     68 O           0.0137  -21.5189  -44.8606 O.2       11 UNK        -0.5000 
     69 N          -1.8136  -22.5108  -45.7540 N.am      12 UNK        -0.5000 
     70 CA         -2.8202  -21.9445  -44.8590 C.3       12 UNK         0.1400 
     71 CB         -3.3168  -23.0443  -43.9067 C.3       12 UNK        -0.1800 
     72 C          -3.9785  -21.3561  -45.6782 C.2       12 UNK         0.5000 
     73 O          -4.1533  -21.7269  -46.8418 O.2       12 UNK        -0.5000 
     74 N          -4.7442  -20.4665  -45.0298 N.am      13 UNK        -0.5000 
     75 CA         -5.8515  -19.6568  -45.5532 C.3       13 UNK         0.1400 
     76 CB         -6.9465  -20.5325  -46.1956 C.3       13 UNK        -0.1800 
     77 C          -5.3881  -18.5338  -46.5026 C.2       13 UNK         0.5000 
     78 O          -4.2631  -18.5553  -47.0055 O.2       13 UNK        -0.5000 
     79 N          -6.2806  -17.5579  -46.7182 N.am      14 UNK        -0.5000 
     80 CA         -6.0430  -16.3349  -47.4865 C.3       14 UNK         0.1400 
     81 CB         -7.3226  -15.4853  -47.4955 C.3       14 UNK        -0.1800 
     82 C          -5.5573  -16.6057  -48.9210 C.2       14 UNK         0.5000 
     83 O          -6.2661  -17.2483  -49.7004 O.2       14 UNK        -0.5000 
     84 N          -4.3395  -16.1347  -49.2139 N.am      15 UNK        -0.5000 
     85 CA         -3.5886  -16.3038  -50.4576 C.3       15 UNK         0.1400 
     86 CB         -4.2665  -15.5355  -51.6109 C.3       15 UNK        -0.1800 
     87 C          -3.3158  -17.7837  -50.7923 C.2       15 UNK         0.5000 
     88 O          -3.3023  -18.1420  -51.9679 O.2       15 UNK        -0.5000 
     89 N          -3.1450  -18.6204  -49.7569 N.am      16 UNK        -0.5000 
     90 CA         -3.0218  -20.0797  -49.8204 C.3       16 UNK         0.1400 
     91 CB         -1.7367  -20.4975  -50.5527 C.3       16 UNK        -0.1800 
     92 C          -4.2893  -20.7284  -50.4090 C.2       16 UNK         0.5000 
     93 O          -4.2109  -21.5133  -51.3582 O.2       16 UNK        -0.5000 
     94 N          -5.4379  -20.3304  -49.8428 N.am      17 UNK        -0.5000 
     95 CA         -6.8008  -20.6923  -50.2371 C.3       17 UNK         0.1400 
     96 CB         -7.0665  -22.1909  -49.9802 C.3       17 UNK        -0.1800 
     97 C          -7.1098  -20.2571  -51.6831 C.2       17 UNK         0.5000 
     98 O          -7.5135  -21.0796  -52.5055 O.2       17 UNK        -0.5000 
     99 N          -6.8853  -18.9647  -51.9641 N.am      18 UNK        -0.5000 
    100 CA        -7.0521  -18.3088  -53.2669 C.3       18 UNK         0.1400 
    101 CB        -8.5441  -18.2367  -53.6543 C.3       18 UNK        -0.1800 
    102 C         -6.1659  -18.9342  -54.3670 C.2       18 UNK         0.5000 
    103 O         -6.6478  -19.2468  -55.4573 O.2       18 UNK        -0.5000 
    104 N         -4.8780  -19.1054  -54.0404 N.am      19 UNK        -0.5000 
    105 CA        -3.7928  -19.6376  -54.8666 C.3       19 UNK         0.1400 
    106 CB        -3.5300  -18.7321  -56.0873 C.3       19 UNK        -0.1800 
    107 C         -3.9443  -21.1225  -55.2483 C.2       19 UNK         0.5000 
    108 O         -3.2868  -21.5696  -56.1893 O.2       19 UNK        -0.5000 
    109 N         -4.7518  -21.8868  -54.4988 N.am      20 UNK        -0.5000 
    110 CA        -4.9857  -23.3182  -54.7211 C.3       20 UNK         0.1400 
    111 CB        -6.0840  -23.8130  -53.7704 C.3       20 UNK        -0.1800 
    112 C         -3.7187  -24.1831  -54.5741 C.2       20 UNK         0.5000 
    113 O         -3.6027  -25.2087  -55.2455 O.2       20 UNK        -0.5000 
    114 N         -2.7827  -23.7393  -53.7247 N.am      21 UNK        -0.5000 
    115 CA        -1.4699  -24.3593  -53.5418 C.3       21 UNK         0.1400 
    116 CB        -0.8736  -23.8628  -52.2184 C.3       21 UNK        -0.1800 
    117 C         -0.4897  -24.0859  -54.7028 C.2       21 UNK         0.5000 
    118 O          0.4729  -24.8388  -54.8577 O.2       21 UNK        -0.5000 
    119 N         -0.7338  -23.0223  -55.4794 N.am      22 UNK        -0.5000 
    120 CA         0.0972  -22.5989  -56.6184 C.3       22 UNK         0.1400 
    121 C         -0.5216  -23.0029  -57.9839 C.2       22 UNK         0.5000 
    122 N         -1.8386  -22.9814  -58.1437 N.am      22 UNK        -0.7600 
    123 O          0.2047  -23.3505  -58.9109 O.2       22 UNK        -0.5000 
    124 C124        0.3836  -21.0752  -56.5816 C.3       23 UNK        -0.0398 
    125 S125        1.4808  -20.6064  -55.2000 S.3       23 UNK        -0.2404 
    126 C126        0.2785  -20.0211  -53.9663 C.3       23 UNK        -0.0205 
    127 H127        1.8758  -11.6856  -45.4182 H         1 UNK         0.0600 
    128 H128        1.1164  -11.7796  -43.8278 H         1 UNK         0.0600 
    129 H129        2.4585  -12.8576  -44.2312 H         1 UNK         0.0600 
    130 H130        1.2468  -13.1643  -47.0395 H         1 UNK         0.3000 
    131 H131       -0.0849  -15.5964  -46.5767 H         1 UNK         0.0600 
    132 H132       -0.2617  -14.2300  -49.2934 H         1 UNK         0.0800 
    133 H133        1.2984  -14.6863  -48.6761 H         1 UNK         0.0800 
    134 H134        1.4885  -16.1274  -50.9524 H         1 UNK         0.0800 
    135 H135        2.3612  -16.7370  -49.5654 H         1 UNK         0.0800 
    136 H136        0.4931  -17.6621  -52.5916 H         1 UNK         0.1150 
    137 H137        1.4876  -21.8240  -52.3253 H         1 UNK         0.1150 
    138 H138        2.4154  -19.1883  -49.0755 H         1 UNK         0.1150 
    139 H139        3.3382  -22.3101  -50.4616 H         1 UNK         0.0800 
    140 H140        3.1163  -21.4709  -48.9454 H         1 UNK         0.0800 
    141 H141       -0.5900  -21.9244  -48.4006 H         1 UNK         0.0800 
    142 H142        0.8831  -21.1554  -47.8701 H         1 UNK         0.0800 
    143 H143       -0.0872  -23.9237  -46.9827 H         1 UNK         0.0600 
    144 H144        2.4685  -22.6951  -46.6518 H         1 UNK         0.3000 
    145 H145        3.6319  -24.1308  -43.8791 H         1 UNK         0.0600 
    146 H146        3.8322  -26.0665  -46.2361 H         1 UNK         0.0600 
    147 H147        4.9828  -25.9454  -44.9047 H         1 UNK         0.0600 
    148 H148        3.3386  -26.4742  -44.5974 H         1 UNK         0.0600 
    149 H149        4.8030  -23.8840  -46.5479 H         1 UNK         0.3000 
    150 H150        3.2522  -21.8700  -43.9536 H         1 UNK         0.0600 
    151 H151        5.2932  -22.8260  -42.7941 H         1 UNK         0.0600 
    152 H152        4.7717  -21.3173  -42.0651 H         1 UNK         0.0600 
    153 H153        6.1689  -21.3426  -43.1400 H         1 UNK         0.0600 
    154 H154        4.6407  -19.4749  -43.7020 H         1 UNK         0.3000 
    155 H155        4.3312  -17.5653  -45.3714 H         1 UNK         0.0600 
    156 H156        2.7467  -17.4721  -47.2316 H         1 UNK         0.0600 
    157 H157        2.3485  -16.1746  -46.1222 H         1 UNK         0.0600 
    158 H158        1.3692  -17.6428  -46.1649 H         1 UNK         0.0600 
    159 H159        2.5009  -18.1998  -43.2410 H         1 UNK         0.3000 
    160 H160        3.6655  -15.6055  -41.3018 H         1 UNK         0.0600 
    161 H161        0.7851  -15.3604  -42.2997 H         1 UNK         0.0600 
    162 H162        1.9701  -14.0671  -42.1932 H         1 UNK         0.0600 
    163 H163        1.3644  -14.8166  -40.7281 H         1 UNK         0.0600 
    164 H164        1.3895  -17.4269  -41.0592 H         1 UNK         0.3000 
    165 H165        3.2723  -20.0499  -39.6320 H         1 UNK         0.0600 
    166 H166        2.0436  -19.5866  -37.5230 H         1 UNK         0.0600 
    167 H167        3.3855  -18.4684  -37.7062 H         1 UNK         0.0600 
    168 H168        1.7444  -17.9247  -38.0339 H         1 UNK         0.0600 
    169 H169        0.4680  -19.2859  -39.6332 H         1 UNK         0.3000 
    170 H170       -0.3277  -21.5271  -42.1956 H         1 UNK         0.0600 
    171 H171       -1.4814  -19.4974  -40.1984 H         1 UNK         0.0600 
    172 H172       -2.3689  -20.7296  -41.0823 H         1 UNK         0.0600 
    173 H173       -1.1826  -21.2014  -39.8790 H         1 UNK         0.0600 
    174 H174       -0.5961  -20.0293  -43.7693 H         1 UNK         0.3000 
    175 H175        0.0998  -17.0702  -44.3616 H         1 UNK         0.0600 
    176 H176       -0.6887  -19.0567  -45.5737 H         1 UNK         0.0600 
    177 H177       -2.3438  -18.7940  -45.0220 H         1 UNK         0.0600 
    178 H178       -1.5903  -17.6695  -46.1397 H         1 UNK         0.0600 
    179 H179       -1.2139  -15.3970  -43.9604 H         1 UNK         0.3000 
    180 H180       -4.6288  -14.9445  -43.0146 H         1 UNK         0.0600 
    181 H181       -3.4204  -13.2980  -41.5985 H         1 UNK         0.0600 
    182 H182       -1.8948  -14.1351  -41.8804 H         1 UNK         0.0600 
    183 H183       -3.1850  -14.9282  -40.9846 H         1 UNK         0.0600 
    184 H184       -2.2460  -13.7313  -44.3720 H         1 UNK         0.3000 
    185 H185       -4.1431  -13.0092  -47.2453 H         1 UNK         0.0600 
    186 H186       -2.9574  -10.9515  -45.3030 H         1 UNK         0.0600 
    187 H187       -3.2457  -10.7043  -47.0260 H         1 UNK         0.0600 
    188 H188       -4.6007  -10.9308  -45.9318 H         1 UNK         0.0600 
    189 H189       -1.4283  -12.4595  -46.5242 H         1 UNK         0.3000 
    190 H190       -2.1898  -23.0658  -46.5111 H         1 UNK         0.3000 
    191 H191       -2.3940  -21.1364  -44.2643 H         1 UNK         0.0600 
    192 H192       -3.7742  -23.8711  -44.4515 H         1 UNK         0.0600 
    193 H193       -4.0609  -22.6570  -43.2097 H         1 UNK         0.0600 
    194 H194       -2.4963  -23.4477  -43.3127 H         1 UNK         0.0600 
    195 H195       -4.4842  -20.2350  -44.0815 H         1 UNK         0.3000 
    196 H196       -6.2871  -19.1684  -44.6800 H         1 UNK         0.0600 
    197 H197       -7.8393  -19.9474  -46.4178 H         1 UNK         0.0600 
    198 H198       -7.2476  -21.3408  -45.5293 H         1 UNK         0.0600 
    199 H199       -6.6132  -20.9766  -47.1320 H         1 UNK         0.0600 
    200 H200       -7.1904  -17.6325  -46.2879 H         1 UNK         0.3000 
    201 H201       -5.2708  -15.7738  -46.9579 H         1 UNK         0.0600 
    202 H202       -7.6205  -15.2103  -46.4834 H         1 UNK         0.0600 
    203 H203       -8.1548  -16.0146  -47.9615 H         1 UNK         0.0600 
    204 H204       -7.1702  -14.5582  -48.0496 H         1 UNK         0.0600 
    205 H205       -3.7954  -15.7226  -48.4553 H         1 UNK         0.3000 
    206 H206       -2.6139  -15.8458  -50.2906 H         1 UNK         0.0600 
    207 H207       -3.6598  -15.5692  -52.5166 H         1 UNK         0.0600 
    208 H208       -5.2435  -15.9502  -51.8549 H         1 UNK         0.0600 
    209 H209       -4.4045  -14.4853  -51.3542 H         1 UNK         0.0600 
    210 H210       -3.2327  -18.2418  -48.8193 H         1 UNK         0.3000 
    211 H211       -2.9380  -20.4255  -48.7902 H         1 UNK         0.0600 
    212 H212       -1.5916  -21.5745  -50.4872 H         1 UNK         0.0600 
    213 H213       -0.8647  -20.0212  -50.1070 H         1 UNK         0.0600 
    214 H214       -1.7627  -20.2360  -51.6100 H         1 UNK         0.0600 
    215 H215       -5.3673  -19.6425  -49.1059 H         1 UNK         0.3000 
    216 H216       -7.4713  -20.1224  -49.5921 H         1 UNK         0.0600 
    217 H217       -8.1074  -22.4427  -50.1860 H         1 UNK         0.0600 
    218 H218       -6.8665  -22.4587  -48.9434 H         1 UNK         0.0600 
    219 H219       -6.4464  -22.8282  -50.6096 H         1 UNK         0.0600 
    220 H220       -6.5668  -18.3644  -51.2058 H         1 UNK         0.3000 
    221 H221       -6.7017  -17.2843  -53.1419 H         1 UNK         0.0600 
    222 H222       -8.9656  -19.2252  -53.8388 H         1 UNK         0.0600 
    223 H223       -9.1321  -17.7626  -52.8685 H         1 UNK         0.0600 
    224 H224       -8.6827  -17.6485  -54.5621 H         1 UNK         0.0600 
    225 H225       -4.5662  -18.8006  -53.1201 H         1 UNK         0.3000 
    226 H226       -2.9027  -19.5939  -54.2381 H         1 UNK         0.0600 
    227 H227       -4.3486  -18.7734  -56.8061 H         1 UNK         0.0600 
    228 H228       -3.3988  -17.6931  -55.7850 H         1 UNK         0.0600 
    229 H229       -2.6218  -19.0312  -56.6114 H         1 UNK         0.0600 
    230 H230       -5.2330  -21.4636  -53.7154 H         1 UNK         0.3000 
    231 H231       -5.3437  -23.4385  -55.7455 H         1 UNK         0.0600 
    232 H232       -6.2715  -24.8789  -53.9060 H         1 UNK         0.0600 
    233 H233       -7.0250  -23.2943  -53.9525 H         1 UNK         0.0600 
    234 H234       -5.8077  -23.6566  -52.7277 H         1 UNK         0.0600 
    235 H235       -2.9842  -22.9112  -53.1799 H         1 UNK         0.3000 
    236 H236       -1.6040  -25.4407  -53.4698 H         1 UNK         0.0600 
    237 H237       -0.7026  -22.7875  -52.2424 H         1 UNK         0.0600 
    238 H238       -1.5308  -24.0817  -51.3767 H         1 UNK         0.0600 
    239 H239        0.0851  -24.3418  -52.0161 H         1 UNK         0.0600 
    240 H240       -1.5944  -22.5089  -55.3462 H         1 UNK         0.3000 
    241 H241        1.0633  -23.1050  -56.5676 H         1 UNK         0.0600 
    242 H242       -2.2349  -23.2528  -59.0292 H         1 UNK         0.3800 
    243 H243       -2.4429  -22.6025  -57.4178 H         1 UNK         0.3800 
    244 H244       -0.5453  -20.5049  -56.5332 H         1 UNK         0.0800 
    245 H245        0.8831  -20.7594  -57.4994 H         1 UNK         0.0800 
    246 H246       -0.5082  -20.7647  -53.8392 H         1 UNK         0.0800 
    247 H247       -0.2056  -19.1171  -54.3391 H         1 UNK         0.0800 
@<TRIPOS>BOND
     1    1    2 1    
     2    1  127 1    
     3    1  128 1    
     4    1  129 1    
     5    2    3 2    
     6    2    4 am   BACKBONE|DICT|INTERRES
     7    4    5 1    
     8    4  130 1    
     9    5    6 1    
    10    5   65 1    
    11    5  131 1    
    12    6    7 1    
    13    6  132 1    
    14    6  133 1    
    15    7    8 1    
    16    8    9 1    
    17    8  134 1    
    18    8  135 1    
    19    9   10 ar   
    20    9   14 ar   
    21   10   11 ar   
    22   10  136 1    
    23   11   12 ar   
    24   11  126 1    
    25   12   13 ar   
    26   12  137 1    
    27   13   14 ar   
    28   13   15 1    
    29   14  138 1    
    30   15   16 1    
    31   15  139 1    
    32   15  140 1    
    33   16   17 1    
    34   17   18 1    
    35   17  141 1    
    36   17  142 1    
    37   18   19 1    
    38   18   67 1    
    39   18  143 1    
    40   19   20 am   BACKBONE|DICT|INTERRES
    41   19  144 1    
    42   20   21 2    
    43   20   22 1    
    44   22   23 1    
    45   22   24 1    
    46   22  145 1    
    47   23  146 1    
    48   23  147 1    
    49   23  148 1    
    50   24   25 am   BACKBONE|DICT|INTERRES
    51   24  149 1    
    52   25   26 2    
    53   25   27 1    
    54   27   28 1    
    55   27   29 1    
    56   27  150 1    
    57   28  151 1    
    58   28  152 1    
    59   28  153 1    
    60   29   30 am   BACKBONE|DICT|INTERRES
    61   29  154 1    
    62   30   31 2    
    63   30   32 1    
    64   32   33 1    
    65   32   34 1    
    66   32  155 1    
    67   33  156 1    
    68   33  157 1    
    69   33  158 1    
    70   34   35 am   BACKBONE|DICT|INTERRES
    71   34  159 1    
    72   35   36 2    
    73   35   37 1    
    74   37   38 1    
    75   37   39 1    
    76   37  160 1    
    77   38  161 1    
    78   38  162 1    
    79   38  163 1    
    80   39   40 am   BACKBONE|DICT|INTERRES
    81   39  164 1    
    82   40   41 2    
    83   40   42 1    
    84   42   43 1    
    85   42   44 1    
    86   42  165 1    
    87   43  166 1    
    88   43  167 1    
    89   43  168 1    
    90   44   45 am   BACKBONE|DICT|INTERRES
    91   44  169 1    
    92   45   46 2    
    93   45   47 1    
    94   47   48 1    
    95   47   49 1    
    96   47  170 1    
    97   48  171 1    
    98   48  172 1    
    99   48  173 1    
   100   49   50 am   BACKBONE|DICT|INTERRES
   101   49  174 1    
   102   50   51 2    
   103   50   52 1    
   104   52   53 1    
   105   52   54 1    
   106   52  175 1    
   107   53  176 1    
   108   53  177 1    
   109   53  178 1    
   110   54   55 am   BACKBONE|DICT|INTERRES
   111   54  179 1    
   112   55   56 2    
   113   55   57 1    
   114   57   58 1    
   115   57   59 1    
   116   57  180 1    
   117   58  181 1    
   118   58  182 1    
   119   58  183 1    
   120   59   60 am   BACKBONE|DICT|INTERRES
   121   59  184 1    
   122   60   61 2    
   123   60   62 1    
   124   62   63 1    
   125   62   64 1    
   126   62  185 1    
   127   63  186 1    
   128   63  187 1    
   129   63  188 1    
   130   64   65 am   BACKBONE|DICT|INTERRES
   131   64  189 1    
   132   65   66 2    
   133   67   68 2    
   134   67   69 am   BACKBONE|DICT|INTERRES
   135   69   70 1    
   136   69  190 1    
   137   70   71 1    
   138   70   72 1    
   139   70  191 1    
   140   71  192 1    
   141   71  193 1    
   142   71  194 1    
   143   72   73 2    
   144   72   74 am   BACKBONE|DICT|INTERRES
   145   74   75 1    
   146   74  195 1    
   147   75   76 1    
   148   75   77 1    
   149   75  196 1    
   150   76  197 1    
   151   76  198 1    
   152   76  199 1    
   153   77   78 2    
   154   77   79 am   BACKBONE|DICT|INTERRES
   155   79   80 1    
   156   79  200 1    
   157   80   81 1    
   158   80   82 1    
   159   80  201 1    
   160   81  202 1    
   161   81  203 1    
   162   81  204 1    
   163   82   83 2    
   164   82   84 am   BACKBONE|DICT|INTERRES
   165   84   85 1    
   166   84  205 1    
   167   85   86 1    
   168   85   87 1    
   169   85  206 1    
   170   86  207 1    
   171   86  208 1    
   172   86  209 1    
   173   87   88 2    
   174   87   89 am   BACKBONE|DICT|INTERRES
   175   89   90 1    
   176   89  210 1    
   177   90   91 1    
   178   90   92 1    
   179   90  211 1    
   180   91  212 1    
   181   91  213 1    
   182   91  214 1    
   183   92   93 2    
   184   92   94 am   BACKBONE|DICT|INTERRES
   185   94   95 1    
   186   94  215 1    
   187   95   96 1    
   188   95   97 1    
   189   95  216 1    
   190   96  217 1    
   191   96  218 1    
   192   96  219 1    
   193   97   98 2    
   194   97   99 am   BACKBONE|DICT|INTERRES
   195   99  100 1    
   196   99  220 1    
   197  100  101 1    
   198  100  102 1    
   199  100  221 1    
   200  101  222 1    
   201  101  223 1    
   202  101  224 1    
   203  102  103 2    
   204  102  104 am   BACKBONE|DICT|INTERRES
   205  104  105 1    
   206  104  225 1    
   207  105  106 1    
   208  105  107 1    
   209  105  226 1    
   210  106  227 1    
   211  106  228 1    
   212  106  229 1    
   213  107  108 2    
   214  107  109 am   BACKBONE|DICT|INTERRES
   215  109  110 1    
   216  109  230 1    
   217  110  111 1    
   218  110  112 1    
   219  110  231 1    
   220  111  232 1    
   221  111  233 1    
   222  111  234 1    
   223  112  113 2    
   224  112  114 am   BACKBONE|DICT|INTERRES
   225  114  115 1    
   226  114  235 1    
   227  115  116 1    
   228  115  117 1    
   229  115  236 1    
   230  116  237 1    
   231  116  238 1    
   232  116  239 1    
   233  117  118 2    
   234  117  119 am   BACKBONE|DICT|INTERRES
   235  119  120 1    
   236  119  240 1    
   237  120  121 1    
   238  120  124 1    
   239  120  241 1    
   240  121  122 am   BACKBONE|DICT|INTERRES
   241  121  123 2    
   242  122  242 1    
   243  122  243 1    
   244  124  125 1    
   245  124  244 1    
   246  124  245 1    
   247  125  126 1    
   248  126  246 1    
   249  126  247 1    
@<TRIPOS>SUBSTRUCTURE
     1 UNK         1 GROUP             0       ****    0 ROOT    
