@<TRIPOS>MOLECULE
3R540
247   249    1
SMALL
USER_CHARGES


@<TRIPOS>ATOM
      1 CA          3.2584  -10.0889  -48.6990 C.3       0 UNK        -0.1800 
      2 C           3.6848  -11.3171  -47.9076 C.2       0 UNK         0.5000 
      3 O           4.7564  -11.3125  -47.3040 O.2       0 UNK        -0.5000 
      4 N           2.8527  -12.3645  -47.9160 N.am      1 UNK        -0.5000 
      5 CA          3.0259  -13.5909  -47.1362 C.3       1 UNK         0.1400 
      6 C6          2.5543  -14.8503  -47.9221 C.3       23 UNK        -0.0398 
      7 S7          0.8689  -14.7463  -48.6369 S.3       23 UNK        -0.2404 
      8 C8          0.0254  -16.1656  -47.8672 C.3       23 UNK        -0.0205 
      9 C9          0.2414  -17.4504  -48.6504 C.ar      23 UNK        -0.0193 
     10 C10        -0.6157  -17.7684  -49.7069 C.ar      23 UNK        -0.1150 
     11 C11        -0.4612  -18.9620  -50.4231 C.ar      23 UNK        -0.0193 
     12 C12         0.5490  -19.8484  -50.0390 C.ar      23 UNK        -0.1150 
     13 C13         1.4149  -19.5499  -48.9822 C.ar      23 UNK        -0.0193 
     14 C14         1.2698  -18.3323  -48.3076 C.ar      23 UNK        -0.1150 
     15 C15         2.5072  -20.5551  -48.6182 C.3       23 UNK        -0.0205 
     16 S16         2.8843  -20.7309  -46.8358 S.3       23 UNK        -0.2404 
     17 C17         1.2549  -20.8203  -46.0184 C.3       23 UNK        -0.0398 
     18 CA          0.5727  -22.2100  -46.0303 C.3       11 UNK         0.1400 
     19 N          -0.3162  -22.3559  -44.8757 N.am      11 UNK        -0.5000 
     20 C          -0.8878  -23.4979  -44.4675 C.2       10 UNK         0.5000 
     21 O          -0.6685  -24.5937  -44.9823 O.2       10 UNK        -0.5000 
     22 CA         -1.8915  -23.3971  -43.2983 C.3       10 UNK         0.1400 
     23 CB         -1.1914  -23.7075  -41.9669 C.3       10 UNK        -0.1800 
     24 N          -2.5504  -22.0921  -43.1927 N.am      10 UNK        -0.5000 
     25 C          -3.3213  -21.5298  -44.1350 C.2       9 UNK         0.5000 
     26 O          -3.6214  -22.0873  -45.1904 O.2       9 UNK        -0.5000 
     27 CA         -3.7787  -20.0765  -43.8907 C.3       9 UNK         0.1400 
     28 CB         -5.1920  -20.0571  -43.2906 C.3       9 UNK        -0.1800 
     29 N          -2.8814  -19.2819  -43.0388 N.am      9 UNK        -0.5000 
     30 C          -1.5795  -19.0648  -43.2725 C.2       8 UNK         0.5000 
     31 O          -0.9690  -19.5608  -44.2241 O.2       8 UNK        -0.5000 
     32 CA         -0.8264  -18.1851  -42.2610 C.3       8 UNK         0.1400 
     33 CB         -0.8290  -18.8068  -40.8523 C.3       8 UNK        -0.1800 
     34 N           0.5492  -18.0395  -42.7228 N.am      8 UNK        -0.5000 
     35 C           1.3446  -16.9868  -42.5265 C.2       7 UNK         0.5000 
     36 O           1.0265  -15.9964  -41.8620 O.2       7 UNK        -0.5000 
     37 CA          2.7210  -17.0512  -43.2092 C.3       7 UNK         0.1400 
     38 CB          2.5935  -17.2382  -44.7319 C.3       7 UNK        -0.1800 
     39 N           3.4442  -15.8179  -42.9319 N.am      7 UNK        -0.5000 
     40 C           4.7717  -15.6593  -42.9165 C.2       6 UNK         0.5000 
     41 O           5.5671  -16.5690  -43.1551 O.2       6 UNK        -0.5000 
     42 CA          5.3070  -14.2504  -42.5893 C.3       6 UNK         0.1400 
     43 CB          6.1099  -13.6807  -43.7710 C.3       6 UNK        -0.1800 
     44 N           4.2343  -13.3097  -42.2590 N.am      6 UNK        -0.5000 
     45 C           3.7603  -13.0825  -41.0258 C.2       5 UNK         0.5000 
     46 O           4.1939  -13.6477  -40.0206 O.2       5 UNK        -0.5000 
     47 CA          2.5964  -12.0730  -40.9013 C.3       5 UNK         0.1400 
     48 CB          2.5385  -11.3871  -39.5205 C.3       5 UNK        -0.1800 
     49 N           2.5658  -11.0828  -41.9842 N.am      5 UNK        -0.5000 
     50 C           3.4974  -10.1612  -42.2803 C.2       4 UNK         0.5000 
     51 O           4.5019   -9.9620  -41.5962 O.2       4 UNK        -0.5000 
     52 CA          3.3000   -9.3466  -43.5755 C.3       4 UNK         0.1400 
     53 CB          4.5326   -9.4779  -44.4843 C.3       4 UNK        -0.1800 
     54 N           2.1238   -9.7887  -44.3276 N.am      4 UNK        -0.5000 
     55 C           0.9318   -9.1759  -44.3259 C.2       3 UNK         0.5000 
     56 O           0.7062   -8.1183  -43.7373 O.2       3 UNK        -0.5000 
     57 CA         -0.2128   -9.8731  -45.0913 C.3       3 UNK         0.1400 
     58 CB         -0.3248   -9.3069  -46.5152 C.3       3 UNK        -0.1800 
     59 N          -0.0632  -11.3286  -45.1726 N.am      3 UNK        -0.5000 
     60 C          -0.0619  -12.1697  -44.1280 C.2       2 UNK         0.5000 
     61 O          -0.2414  -11.8121  -42.9648 O.2       2 UNK        -0.5000 
     62 CA          0.2767  -13.6435  -44.4215 C.3       2 UNK         0.1400 
     63 CB         -0.9967  -14.4917  -44.5517 C.3       2 UNK        -0.1800 
     64 N           1.0990  -13.8156  -45.6214 N.am      2 UNK        -0.5000 
     65 C           2.3596  -13.3866  -45.7584 C.2       1 UNK         0.5000 
     66 O           2.9646  -12.7974  -44.8600 O.2       1 UNK        -0.5000 
     67 C          -0.2010  -22.4410  -47.3437 C.2       11 UNK         0.5000 
     68 O           0.2654  -23.1816  -48.2085 O.2       11 UNK        -0.5000 
     69 N          -1.3870  -21.8241  -47.4515 N.am      12 UNK        -0.5000 
     70 CA         -2.2830  -21.9624  -48.5972 C.3       12 UNK         0.1400 
     71 CB         -3.3315  -20.8407  -48.5730 C.3       12 UNK        -0.1800 
     72 C          -2.9515  -23.3449  -48.6362 C.2       12 UNK         0.5000 
     73 O          -3.0220  -23.9516  -49.7000 O.2       12 UNK        -0.5000 
     74 N          -3.3824  -23.8454  -47.4704 N.am      13 UNK        -0.5000 
     75 CA         -4.0378  -25.1463  -47.3005 C.3       13 UNK         0.1400 
     76 CB         -4.5975  -25.2344  -45.8727 C.3       13 UNK        -0.1800 
     77 C          -3.1489  -26.3719  -47.6091 C.2       13 UNK         0.5000 
     78 O          -3.6684  -27.4873  -47.6645 O.2       13 UNK        -0.5000 
     79 N          -1.8389  -26.1609  -47.7999 N.am      14 UNK        -0.5000 
     80 CA         -0.8479  -27.1880  -48.1220 C.3       14 UNK         0.1400 
     81 CB          0.5547  -26.5680  -48.0360 C.3       14 UNK        -0.1800 
     82 C          -1.0508  -27.8643  -49.4944 C.2       14 UNK         0.5000 
     83 O          -0.5630  -28.9801  -49.6825 O.2       14 UNK        -0.5000 
     84 N          -1.7569  -27.2044  -50.4215 N.am      15 UNK        -0.5000 
     85 CA         -2.1103  -27.7399  -51.7324 C.3       15 UNK         0.1400 
     86 CB         -1.0157  -27.3872  -52.7538 C.3       15 UNK        -0.1800 
     87 C          -3.4628  -27.1615  -52.1593 C.2       15 UNK         0.5000 
     88 O          -3.7461  -25.9996  -51.8667 O.2       15 UNK        -0.5000 
     89 N          -4.2618  -27.9593  -52.8791 N.am      16 UNK        -0.5000 
     90 CA         -5.5906  -27.5734  -53.3647 C.3       16 UNK         0.1400 
     91 CB         -6.2755  -28.7906  -54.0038 C.3       16 UNK        -0.1800 
     92 C          -5.5585  -26.3898  -54.3491 C.2       16 UNK         0.5000 
     93 O          -6.4327  -25.5262  -54.2893 O.2       16 UNK        -0.5000 
     94 N          -4.5292  -26.3513  -55.2071 N.am      17 UNK        -0.5000 
     95 CA         -4.2873  -25.2657  -56.1578 C.3       17 UNK         0.1400 
     96 CB         -3.1837  -25.6840  -57.1408 C.3       17 UNK        -0.1800 
     97 C          -3.9233  -23.9430  -55.4605 C.2       17 UNK         0.5000 
     98 O          -4.4129  -22.8895  -55.8658 O.2       17 UNK        -0.5000 
     99 N          -3.1014  -24.0260  -54.4044 N.am      18 UNK        -0.5000 
    100 CA        -2.7180  -22.8875  -53.5699 C.3       18 UNK         0.1400 
    101 CB        -1.5357  -23.2750  -52.6688 C.3       18 UNK        -0.1800 
    102 C         -3.9048  -22.3570  -52.7490 C.2       18 UNK         0.5000 
    103 O         -4.0957  -21.1437  -52.6790 O.2       18 UNK        -0.5000 
    104 N         -4.7122  -23.2711  -52.1949 N.am      19 UNK        -0.5000 
    105 CA        -5.9391  -22.9614  -51.4639 C.3       19 UNK         0.1400 
    106 CB        -6.5025  -24.2447  -50.8363 C.3       19 UNK        -0.1800 
    107 C         -6.9904  -22.2717  -52.3510 C.2       19 UNK         0.5000 
    108 O         -7.5832  -21.2795  -51.9274 O.2       19 UNK        -0.5000 
    109 N         -7.1717  -22.7790  -53.5786 N.am      20 UNK        -0.5000 
    110 CA        -8.0557  -22.2001  -54.5904 C.3       20 UNK         0.1400 
    111 CB        -8.1761  -23.1652  -55.7796 C.3       20 UNK        -0.1800 
    112 C         -7.5988  -20.8081  -55.0658 C.2       20 UNK         0.5000 
    113 O         -8.4435  -19.9385  -55.2836 O.2       20 UNK        -0.5000 
    114 N         -6.2803  -20.6209  -55.2140 N.am      21 UNK        -0.5000 
    115 CA        -5.6674  -19.3590  -55.6216 C.3       21 UNK         0.1400 
    116 CB        -4.2140  -19.6064  -56.0571 C.3       21 UNK        -0.1800 
    117 C         -5.7323  -18.2841  -54.5229 C.2       21 UNK         0.5000 
    118 O         -6.1809  -17.1690  -54.7945 O.2       21 UNK        -0.5000 
    119 N         -5.2619  -18.6272  -53.3180 N.am      22 UNK        -0.5000 
    120 CA        -5.0986  -17.6841  -52.1996 C.3       22 UNK         0.1400 
    121 C         -6.3513  -17.5368  -51.2917 C.2       22 UNK         0.5000 
    122 N         -7.3281  -18.4333  -51.3348 N.am      22 UNK        -0.7600 
    123 O         -6.4468  -16.5730  -50.5368 O.2       22 UNK        -0.5000 
    124 C124       -3.8377  -18.0000  -51.3560 C.3       23 UNK        -0.0398 
    125 S125       -2.3100  -17.9879  -52.3613 S.3       23 UNK        -0.2404 
    126 C126       -1.3514  -19.3484  -51.6071 C.3       23 UNK        -0.0205 
    127 H127        3.1706   -9.2291  -48.0347 H         1 UNK         0.0600 
    128 H128        2.2976  -10.2368  -49.1926 H         1 UNK         0.0600 
    129 H129        4.0013   -9.8574  -49.4623 H         1 UNK         0.0600 
    130 H130        2.0006  -12.3169  -48.4571 H         1 UNK         0.3000 
    131 H131        4.0889  -13.7377  -46.9333 H         1 UNK         0.0600 
    132 H132        3.2369  -15.0125  -48.7574 H         1 UNK         0.0800 
    133 H133        2.6532  -15.7434  -47.3063 H         1 UNK         0.0800 
    134 H134        0.3441  -16.2973  -46.8339 H         1 UNK         0.0800 
    135 H135       -1.0431  -15.9483  -47.8208 H         1 UNK         0.0800 
    136 H136       -1.3975  -17.0705  -49.9640 H         1 UNK         0.1150 
    137 H137        0.6660  -20.7807  -50.5742 H         1 UNK         0.1150 
    138 H138        1.9405  -18.0847  -47.4983 H         1 UNK         0.1150 
    139 H139        2.2513  -21.5428  -49.0037 H         1 UNK         0.0800 
    140 H140        3.4230  -20.2626  -49.1328 H         1 UNK         0.0800 
    141 H141        0.5871  -20.0408  -46.3845 H         1 UNK         0.0800 
    142 H142        1.4598  -20.5436  -44.9838 H         1 UNK         0.0800 
    143 H143        1.3423  -22.9807  -45.9491 H         1 UNK         0.0600 
    144 H144       -0.5851  -21.4908  -44.4187 H         1 UNK         0.3000 
    145 H145       -2.6655  -24.1483  -43.4585 H         1 UNK         0.0600 
    146 H146       -1.9027  -23.7237  -41.1409 H         1 UNK         0.0600 
    147 H147       -0.7093  -24.6856  -41.9976 H         1 UNK         0.0600 
    148 H148       -0.4225  -22.9694  -41.7350 H         1 UNK         0.0600 
    149 H149       -2.3584  -21.5571  -42.3591 H         1 UNK         0.3000 
    150 H150       -3.8165  -19.5874  -44.8663 H         1 UNK         0.0600 
    151 H151       -5.2117  -20.5000  -42.2940 H         1 UNK         0.0600 
    152 H152       -5.8895  -20.6189  -43.9136 H         1 UNK         0.0600 
    153 H153       -5.5753  -19.0393  -43.2146 H         1 UNK         0.0600 
    154 H154       -3.3069  -18.8502  -42.2312 H         1 UNK         0.3000 
    155 H155       -1.3138  -17.2081  -42.2374 H         1 UNK         0.0600 
    156 H156       -0.3842  -19.8028  -40.8524 H         1 UNK         0.0600 
    157 H157       -1.8411  -18.8963  -40.4567 H         1 UNK         0.0600 
    158 H158       -0.2655  -18.1913  -40.1507 H         1 UNK         0.0600 
    159 H159        0.8416  -18.7786  -43.3482 H         1 UNK         0.3000 
    160 H160        3.2663  -17.8943  -42.7801 H         1 UNK         0.0600 
    161 H161        1.9844  -16.4501  -45.1695 H         1 UNK         0.0600 
    162 H162        2.1261  -18.1898  -44.9803 H         1 UNK         0.0600 
    163 H163        3.5676  -17.2241  -45.2210 H         1 UNK         0.0600 
    164 H164        2.8584  -15.0461  -42.6434 H         1 UNK         0.3000 
    165 H165        5.9841  -14.3475  -41.7383 H         1 UNK         0.0600 
    166 H166        6.9689  -14.3120  -44.0012 H         1 UNK         0.0600 
    167 H167        5.5058  -13.6088  -44.6755 H         1 UNK         0.0600 
    168 H168        6.4911  -12.6847  -43.5445 H         1 UNK         0.0600 
    169 H169        3.8012  -12.8424  -43.0499 H         1 UNK         0.3000 
    170 H170        1.6840  -12.6611  -41.0098 H         1 UNK         0.0600 
    171 H171        2.3945  -12.1198  -38.7257 H         1 UNK         0.0600 
    172 H172        3.4560  -10.8420  -39.2979 H         1 UNK         0.0600 
    173 H173        1.7075  -10.6838  -39.4647 H         1 UNK         0.0600 
    174 H174        1.7538  -11.1396  -42.5861 H         1 UNK         0.3000 
    175 H175        3.1976   -8.2977  -43.2904 H         1 UNK         0.0600 
    176 H176        4.3932   -8.9415  -45.4231 H         1 UNK         0.0600 
    177 H177        5.4212   -9.0660  -44.0046 H         1 UNK         0.0600 
    178 H178        4.7435  -10.5215  -44.7214 H         1 UNK         0.0600 
    179 H179        2.2223  -10.6706  -44.8145 H         1 UNK         0.3000 
    180 H180       -1.1428   -9.6601  -44.5602 H         1 UNK         0.0600 
    181 H181        0.5716   -9.5116  -47.1017 H         1 UNK         0.0600 
    182 H182       -0.4642   -8.2251  -46.4957 H         1 UNK         0.0600 
    183 H183       -1.1777   -9.7330  -47.0440 H         1 UNK         0.0600 
    184 H184        0.0904  -11.7140  -46.0921 H         1 UNK         0.3000 
    185 H185        0.8489  -14.0122  -43.5695 H         1 UNK         0.0600 
    186 H186       -1.6247  -14.3901  -43.6656 H         1 UNK         0.0600 
    187 H187       -1.5932  -14.1948  -45.4151 H         1 UNK         0.0600 
    188 H188       -0.7563  -15.5501  -44.6543 H         1 UNK         0.0600 
    189 H189        0.6521  -14.2357  -46.4257 H         1 UNK         0.3000 
    190 H190       -1.7239  -21.2730  -46.6754 H         1 UNK         0.3000 
    191 H191       -1.6929  -21.8543  -49.5093 H         1 UNK         0.0600 
    192 H192       -2.8586  -19.8592  -48.6137 H         1 UNK         0.0600 
    193 H193       -3.9987  -20.9175  -49.4320 H         1 UNK         0.0600 
    194 H194       -3.9477  -20.8800  -47.6742 H         1 UNK         0.0600 
    195 H195       -3.3177  -23.2617  -46.6401 H         1 UNK         0.3000 
    196 H196       -4.8791  -25.1823  -47.9945 H         1 UNK         0.0600 
    197 H197       -5.1803  -26.1460  -45.7350 H         1 UNK         0.0600 
    198 H198       -5.2543  -24.3932  -45.6498 H         1 UNK         0.0600 
    199 H199       -3.7971  -25.2437  -45.1342 H         1 UNK         0.0600 
    200 H200       -1.4962  -25.2131  -47.7297 H         1 UNK         0.3000 
    201 H201       -0.9229  -27.9668  -47.3604 H         1 UNK         0.0600 
    202 H202        1.3265  -27.3239  -48.1859 H         1 UNK         0.0600 
    203 H203        0.6983  -25.7985  -48.7955 H         1 UNK         0.0600 
    204 H204        0.7291  -26.1136  -47.0603 H         1 UNK         0.0600 
    205 H205       -2.1701  -26.3049  -50.1990 H         1 UNK         0.3000 
    206 H206       -2.2101  -28.8257  -51.6712 H         1 UNK         0.0600 
    207 H207       -0.0602  -27.8318  -52.4754 H         1 UNK         0.0600 
    208 H208       -1.2695  -27.7599  -53.7468 H         1 UNK         0.0600 
    209 H209       -0.8706  -26.3094  -52.8327 H         1 UNK         0.0600 
    210 H210       -3.9592  -28.8990  -53.0922 H         1 UNK         0.3000 
    211 H211       -6.1833  -27.2651  -52.5010 H         1 UNK         0.0600 
    212 H212       -5.7119  -29.1694  -54.8572 H         1 UNK         0.0600 
    213 H213       -7.2750  -28.5343  -54.3579 H         1 UNK         0.0600 
    214 H214       -6.3856  -29.6034  -53.2857 H         1 UNK         0.0600 
    215 H215       -3.8574  -27.1040  -55.1882 H         1 UNK         0.3000 
    216 H216       -5.2055  -25.1006  -56.7257 H         1 UNK         0.0600 
    217 H217       -2.9933  -24.8961  -57.8708 H         1 UNK         0.0600 
    218 H218       -3.4686  -26.5778  -57.6960 H         1 UNK         0.0600 
    219 H219       -2.2431  -25.8917  -56.6289 H         1 UNK         0.0600 
    220 H220       -2.7907  -24.9364  -54.1017 H         1 UNK         0.3000 
    221 H221       -2.3866  -22.0804  -54.2268 H         1 UNK         0.0600 
    222 H222       -1.7767  -24.1227  -52.0280 H         1 UNK         0.0600 
    223 H223       -0.6610  -23.5431  -53.2612 H         1 UNK         0.0600 
    224 H224       -1.2482  -22.4476  -52.0199 H         1 UNK         0.0600 
    225 H225       -4.4324  -24.2482  -52.2215 H         1 UNK         0.3000 
    226 H226       -5.6784  -22.2748  -50.6564 H         1 UNK         0.0600 
    227 H227       -7.3814  -24.0288  -50.2281 H         1 UNK         0.0600 
    228 H228       -6.7961  -24.9698  -51.5952 H         1 UNK         0.0600 
    229 H229       -5.7655  -24.7214  -50.1905 H         1 UNK         0.0600 
    230 H230       -6.6829  -23.6317  -53.8354 H         1 UNK         0.3000 
    231 H231       -9.0457  -22.0883  -54.1435 H         1 UNK         0.0600 
    232 H232       -7.2075  -23.3534  -56.2441 H         1 UNK         0.0600 
    233 H233       -8.8369  -22.7607  -56.5472 H         1 UNK         0.0600 
    234 H234       -8.5892  -24.1245  -55.4677 H         1 UNK         0.0600 
    235 H235       -5.6535  -21.4039  -55.0657 H         1 UNK         0.3000 
    236 H236       -6.2134  -18.9814  -56.4888 H         1 UNK         0.0600 
    237 H237       -4.1686  -20.2886  -56.9061 H         1 UNK         0.0600 
    238 H238       -3.7330  -18.6760  -56.3614 H         1 UNK         0.0600 
    239 H239       -3.6174  -20.0357  -55.2516 H         1 UNK         0.0600 
    240 H240       -4.8977  -19.5659  -53.1669 H         1 UNK         0.3000 
    241 H241       -4.9374  -16.6902  -52.6221 H         1 UNK         0.0600 
    242 H242       -7.2535  -19.2801  -51.8869 H         1 UNK         0.3800 
    243 H243       -8.1325  -18.3077  -50.7420 H         1 UNK         0.3800 
    244 H244       -3.9534  -18.9697  -50.8720 H         1 UNK         0.0800 
    245 H245       -3.7183  -17.2689  -50.5550 H         1 UNK         0.0800 
    246 H246       -0.7210  -19.7679  -52.3924 H         1 UNK         0.0800 
    247 H247       -2.0232  -20.1495  -51.3013 H         1 UNK         0.0800 
@<TRIPOS>BOND
     1    1    2 1    
     2    1  127 1    
     3    1  128 1    
     4    1  129 1    
     5    2    3 2    
     6    2    4 am   BACKBONE|DICT|INTERRES
     7    4    5 1    
     8    4  130 1    
     9    5    6 1    
    10    5   65 1    
    11    5  131 1    
    12    6    7 1    
    13    6  132 1    
    14    6  133 1    
    15    7    8 1    
    16    8    9 1    
    17    8  134 1    
    18    8  135 1    
    19    9   10 ar   
    20    9   14 ar   
    21   10   11 ar   
    22   10  136 1    
    23   11   12 ar   
    24   11  126 1    
    25   12   13 ar   
    26   12  137 1    
    27   13   14 ar   
    28   13   15 1    
    29   14  138 1    
    30   15   16 1    
    31   15  139 1    
    32   15  140 1    
    33   16   17 1    
    34   17   18 1    
    35   17  141 1    
    36   17  142 1    
    37   18   19 1    
    38   18   67 1    
    39   18  143 1    
    40   19   20 am   BACKBONE|DICT|INTERRES
    41   19  144 1    
    42   20   21 2    
    43   20   22 1    
    44   22   23 1    
    45   22   24 1    
    46   22  145 1    
    47   23  146 1    
    48   23  147 1    
    49   23  148 1    
    50   24   25 am   BACKBONE|DICT|INTERRES
    51   24  149 1    
    52   25   26 2    
    53   25   27 1    
    54   27   28 1    
    55   27   29 1    
    56   27  150 1    
    57   28  151 1    
    58   28  152 1    
    59   28  153 1    
    60   29   30 am   BACKBONE|DICT|INTERRES
    61   29  154 1    
    62   30   31 2    
    63   30   32 1    
    64   32   33 1    
    65   32   34 1    
    66   32  155 1    
    67   33  156 1    
    68   33  157 1    
    69   33  158 1    
    70   34   35 am   BACKBONE|DICT|INTERRES
    71   34  159 1    
    72   35   36 2    
    73   35   37 1    
    74   37   38 1    
    75   37   39 1    
    76   37  160 1    
    77   38  161 1    
    78   38  162 1    
    79   38  163 1    
    80   39   40 am   BACKBONE|DICT|INTERRES
    81   39  164 1    
    82   40   41 2    
    83   40   42 1    
    84   42   43 1    
    85   42   44 1    
    86   42  165 1    
    87   43  166 1    
    88   43  167 1    
    89   43  168 1    
    90   44   45 am   BACKBONE|DICT|INTERRES
    91   44  169 1    
    92   45   46 2    
    93   45   47 1    
    94   47   48 1    
    95   47   49 1    
    96   47  170 1    
    97   48  171 1    
    98   48  172 1    
    99   48  173 1    
   100   49   50 am   BACKBONE|DICT|INTERRES
   101   49  174 1    
   102   50   51 2    
   103   50   52 1    
   104   52   53 1    
   105   52   54 1    
   106   52  175 1    
   107   53  176 1    
   108   53  177 1    
   109   53  178 1    
   110   54   55 am   BACKBONE|DICT|INTERRES
   111   54  179 1    
   112   55   56 2    
   113   55   57 1    
   114   57   58 1    
   115   57   59 1    
   116   57  180 1    
   117   58  181 1    
   118   58  182 1    
   119   58  183 1    
   120   59   60 am   BACKBONE|DICT|INTERRES
   121   59  184 1    
   122   60   61 2    
   123   60   62 1    
   124   62   63 1    
   125   62   64 1    
   126   62  185 1    
   127   63  186 1    
   128   63  187 1    
   129   63  188 1    
   130   64   65 am   BACKBONE|DICT|INTERRES
   131   64  189 1    
   132   65   66 2    
   133   67   68 2    
   134   67   69 am   BACKBONE|DICT|INTERRES
   135   69   70 1    
   136   69  190 1    
   137   70   71 1    
   138   70   72 1    
   139   70  191 1    
   140   71  192 1    
   141   71  193 1    
   142   71  194 1    
   143   72   73 2    
   144   72   74 am   BACKBONE|DICT|INTERRES
   145   74   75 1    
   146   74  195 1    
   147   75   76 1    
   148   75   77 1    
   149   75  196 1    
   150   76  197 1    
   151   76  198 1    
   152   76  199 1    
   153   77   78 2    
   154   77   79 am   BACKBONE|DICT|INTERRES
   155   79   80 1    
   156   79  200 1    
   157   80   81 1    
   158   80   82 1    
   159   80  201 1    
   160   81  202 1    
   161   81  203 1    
   162   81  204 1    
   163   82   83 2    
   164   82   84 am   BACKBONE|DICT|INTERRES
   165   84   85 1    
   166   84  205 1    
   167   85   86 1    
   168   85   87 1    
   169   85  206 1    
   170   86  207 1    
   171   86  208 1    
   172   86  209 1    
   173   87   88 2    
   174   87   89 am   BACKBONE|DICT|INTERRES
   175   89   90 1    
   176   89  210 1    
   177   90   91 1    
   178   90   92 1    
   179   90  211 1    
   180   91  212 1    
   181   91  213 1    
   182   91  214 1    
   183   92   93 2    
   184   92   94 am   BACKBONE|DICT|INTERRES
   185   94   95 1    
   186   94  215 1    
   187   95   96 1    
   188   95   97 1    
   189   95  216 1    
   190   96  217 1    
   191   96  218 1    
   192   96  219 1    
   193   97   98 2    
   194   97   99 am   BACKBONE|DICT|INTERRES
   195   99  100 1    
   196   99  220 1    
   197  100  101 1    
   198  100  102 1    
   199  100  221 1    
   200  101  222 1    
   201  101  223 1    
   202  101  224 1    
   203  102  103 2    
   204  102  104 am   BACKBONE|DICT|INTERRES
   205  104  105 1    
   206  104  225 1    
   207  105  106 1    
   208  105  107 1    
   209  105  226 1    
   210  106  227 1    
   211  106  228 1    
   212  106  229 1    
   213  107  108 2    
   214  107  109 am   BACKBONE|DICT|INTERRES
   215  109  110 1    
   216  109  230 1    
   217  110  111 1    
   218  110  112 1    
   219  110  231 1    
   220  111  232 1    
   221  111  233 1    
   222  111  234 1    
   223  112  113 2    
   224  112  114 am   BACKBONE|DICT|INTERRES
   225  114  115 1    
   226  114  235 1    
   227  115  116 1    
   228  115  117 1    
   229  115  236 1    
   230  116  237 1    
   231  116  238 1    
   232  116  239 1    
   233  117  118 2    
   234  117  119 am   BACKBONE|DICT|INTERRES
   235  119  120 1    
   236  119  240 1    
   237  120  121 1    
   238  120  124 1    
   239  120  241 1    
   240  121  122 am   BACKBONE|DICT|INTERRES
   241  121  123 2    
   242  122  242 1    
   243  122  243 1    
   244  124  125 1    
   245  124  244 1    
   246  124  245 1    
   247  125  126 1    
   248  126  246 1    
   249  126  247 1    
@<TRIPOS>SUBSTRUCTURE
     1 UNK         1 GROUP             0       ****    0 ROOT    
