@<TRIPOS>MOLECULE
3R540
247   249    1
SMALL
USER_CHARGES


@<TRIPOS>ATOM
      1 CA          6.3142  -16.1943  -48.5517 C.3       0 UNK        -0.1800 
      2 C           4.9052  -15.9486  -48.0300 C.2       0 UNK         0.5000 
      3 O           4.6671  -16.0719  -46.8290 O.2       0 UNK        -0.5000 
      4 N           3.9743  -15.6101  -48.9295 N.am      1 UNK        -0.5000 
      5 CA          2.5775  -15.2938  -48.6161 C.3       1 UNK         0.1400 
      6 C6          1.6926  -15.3117  -49.8867 C.3       23 UNK        -0.0398 
      7 S7          1.3904  -17.0099  -50.4654 S.3       23 UNK        -0.2404 
      8 C8          2.4444  -17.1138  -51.9429 C.3       23 UNK        -0.0205 
      9 C9          2.2909  -18.4656  -52.6246 C.ar      23 UNK        -0.0193 
     10 C10         1.7639  -18.5580  -53.9163 C.ar      23 UNK        -0.1150 
     11 C11         1.6425  -19.8021  -54.5418 C.ar      23 UNK        -0.0193 
     12 C12         2.0175  -20.9580  -53.8499 C.ar      23 UNK        -0.1150 
     13 C13         2.5365  -20.8885  -52.5531 C.ar      23 UNK        -0.0193 
     14 C14         2.6904  -19.6285  -51.9593 C.ar      23 UNK        -0.1150 
     15 C15         2.9249  -22.1986  -51.8576 C.3       23 UNK        -0.0205 
     16 S16         3.4062  -22.0784  -50.0955 S.3       23 UNK        -0.2404 
     17 C17         1.8403  -21.5573  -49.3187 C.3       23 UNK        -0.0398 
     18 CA          1.3742  -22.5012  -48.1855 C.3       11 UNK         0.1400 
     19 N           2.3602  -22.6028  -47.1053 N.am      11 UNK        -0.5000 
     20 C           2.2320  -23.3189  -45.9797 C.2       10 UNK         0.5000 
     21 O           1.2492  -24.0170  -45.7237 O.2       10 UNK        -0.5000 
     22 CA          3.3479  -23.1750  -44.9236 C.3       10 UNK         0.1400 
     23 CB          4.6665  -22.5979  -45.4854 C.3       10 UNK        -0.1800 
     24 N           2.9092  -22.3867  -43.7637 N.am      10 UNK        -0.5000 
     25 C           2.3720  -21.1565  -43.7783 C.2       9 UNK         0.5000 
     26 O           2.1092  -20.5431  -44.8166 O.2       9 UNK        -0.5000 
     27 CA          2.0255  -20.5365  -42.4047 C.3       9 UNK         0.1400 
     28 CB          3.1658  -20.6852  -41.3751 C.3       9 UNK        -0.1800 
     29 N           1.5940  -19.1373  -42.5129 N.am      9 UNK        -0.5000 
     30 C           2.3054  -18.0802  -42.9371 C.2       8 UNK         0.5000 
     31 O           3.5171  -18.1056  -43.1558 O.2       8 UNK        -0.5000 
     32 CA          1.5259  -16.7710  -43.1853 C.3       8 UNK         0.1400 
     33 CB          1.4909  -16.4532  -44.6876 C.3       8 UNK        -0.1800 
     34 N           0.1487  -16.8177  -42.6793 N.am      8 UNK        -0.5000 
     35 C          -0.1898  -16.5506  -41.4099 C.2       7 UNK         0.5000 
     36 O           0.6094  -16.1670  -40.5552 O.2       7 UNK        -0.5000 
     37 CA         -1.6576  -16.7997  -41.0158 C.3       7 UNK         0.1400 
     38 CB         -2.5647  -15.6605  -41.4968 C.3       7 UNK        -0.1800 
     39 N          -2.1754  -18.0799  -41.5063 N.am      7 UNK        -0.5000 
     40 C          -1.7434  -19.2795  -41.0900 C.2       6 UNK         0.5000 
     41 O          -0.8131  -19.4182  -40.2964 O.2       6 UNK        -0.5000 
     42 CA         -2.4086  -20.5442  -41.6721 C.3       6 UNK         0.1400 
     43 CB         -2.7226  -21.5877  -40.5807 C.3       6 UNK        -0.1800 
     44 N          -3.5816  -20.3068  -42.5211 N.am      6 UNK        -0.5000 
     45 C          -4.7757  -19.8119  -42.1705 C.2       5 UNK         0.5000 
     46 O          -5.0605  -19.4242  -41.0366 O.2       5 UNK        -0.5000 
     47 CA         -5.8022  -19.7275  -43.3175 C.3       5 UNK         0.1400 
     48 CB         -7.1421  -19.0896  -42.8927 C.3       5 UNK        -0.1800 
     49 N          -5.2565  -19.0633  -44.5100 N.am      5 UNK        -0.5000 
     50 C          -4.8333  -17.7932  -44.6021 C.2       4 UNK         0.5000 
     51 O          -4.8093  -17.0113  -43.6495 O.2       4 UNK        -0.5000 
     52 CA         -4.3822  -17.3278  -46.0048 C.3       4 UNK         0.1400 
     53 CB         -5.5236  -17.4603  -47.0299 C.3       4 UNK        -0.1800 
     54 N          -3.9303  -15.9362  -46.0138 N.am      4 UNK        -0.5000 
     55 C          -2.7487  -15.4952  -45.5703 C.2       3 UNK         0.5000 
     56 O          -1.8549  -16.2207  -45.1230 O.2       3 UNK        -0.5000 
     57 CA         -2.5330  -13.9766  -45.6399 C.3       3 UNK         0.1400 
     58 CB         -3.0915  -13.2680  -44.3924 C.3       3 UNK        -0.1800 
     59 N          -1.1055  -13.7161  -45.7741 N.am      3 UNK        -0.5000 
     60 C          -0.5568  -12.5850  -46.2353 C.2       2 UNK         0.5000 
     61 O          -1.2045  -11.5901  -46.5616 O.2       2 UNK        -0.5000 
     62 CA          0.9675  -12.5887  -46.4145 C.3       2 UNK         0.1400 
     63 CB          1.7001  -12.4570  -45.0669 C.3       2 UNK        -0.1800 
     64 N           1.3701  -13.8093  -47.1098 N.am      2 UNK        -0.5000 
     65 C           2.4472  -13.9382  -47.8908 C.2       1 UNK         0.5000 
     66 O           3.2746  -13.0427  -48.0812 O.2       1 UNK        -0.5000 
     67 C          -0.0135  -22.0457  -47.6914 C.2       11 UNK         0.5000 
     68 O          -1.0198  -22.5048  -48.2296 O.2       11 UNK        -0.5000 
     69 N          -0.0610  -21.1637  -46.6825 N.am      12 UNK        -0.5000 
     70 CA         -1.3100  -20.6641  -46.1068 C.3       12 UNK         0.1400 
     71 CB         -1.0443  -19.3686  -45.3313 C.3       12 UNK        -0.1800 
     72 C          -2.0085  -21.6911  -45.2064 C.2       12 UNK         0.5000 
     73 O          -3.2255  -21.6056  -45.0453 O.2       12 UNK        -0.5000 
     74 N          -1.2412  -22.6220  -44.6244 N.am      13 UNK        -0.5000 
     75 CA         -1.7603  -23.7302  -43.8215 C.3       13 UNK         0.1400 
     76 CB         -0.6919  -24.1740  -42.8106 C.3       13 UNK        -0.1800 
     77 C          -2.2040  -24.8992  -44.7179 C.2       13 UNK         0.5000 
     78 O          -3.2127  -25.5420  -44.4282 O.2       13 UNK        -0.5000 
     79 N          -1.4669  -25.1198  -45.8159 N.am      14 UNK        -0.5000 
     80 CA         -1.7873  -26.0849  -46.8702 C.3       14 UNK         0.1400 
     81 CB         -0.5316  -26.2981  -47.7304 C.3       14 UNK        -0.1800 
     82 C          -2.9721  -25.6552  -47.7619 C.2       14 UNK         0.5000 
     83 O          -3.5101  -26.4927  -48.4866 O.2       14 UNK        -0.5000 
     84 N          -3.3320  -24.3633  -47.7094 N.am      15 UNK        -0.5000 
     85 CA         -4.3271  -23.6705  -48.5357 C.3       15 UNK         0.1400 
     86 CB         -5.7461  -24.2259  -48.2980 C.3       15 UNK        -0.1800 
     87 C          -3.9280  -23.6196  -50.0268 C.2       15 UNK         0.5000 
     88 O          -4.7873  -23.6755  -50.9059 O.2       15 UNK        -0.5000 
     89 N          -2.6187  -23.4977  -50.2698 N.am      16 UNK        -0.5000 
     90 CA         -1.9909  -23.3632  -51.5826 C.3       16 UNK         0.1400 
     91 CB         -0.7415  -24.2591  -51.6073 C.3       16 UNK        -0.1800 
     92 C          -1.5991  -21.9043  -51.8893 C.2       16 UNK         0.5000 
     93 O          -1.2703  -21.6048  -53.0337 O.2       16 UNK        -0.5000 
     94 N          -1.6112  -21.0417  -50.8631 N.am      17 UNK        -0.5000 
     95 CA         -1.2072  -19.6350  -50.8896 C.3       17 UNK         0.1400 
     96 CB         -1.3513  -19.0707  -49.4632 C.3       17 UNK        -0.1800 
     97 C          -1.9779  -18.7410  -51.8779 C.2       17 UNK         0.5000 
     98 O          -3.0384  -19.1138  -52.3884 O.2       17 UNK        -0.5000 
     99 N          -1.4518  -17.5241  -52.0635 N.am      18 UNK        -0.5000 
    100 CA        -2.1214  -16.3999  -52.7112 C.3       18 UNK         0.1400 
    101 CB        -1.1796  -15.1870  -52.7135 C.3       18 UNK        -0.1800 
    102 C         -3.4503  -16.0716  -52.0050 C.2       18 UNK         0.5000 
    103 O         -3.4607  -15.8918  -50.7862 O.2       18 UNK        -0.5000 
    104 N         -4.5375  -16.0636  -52.7842 N.am      19 UNK        -0.5000 
    105 CA        -5.9457  -15.9225  -52.3964 C.3       19 UNK         0.1400 
    106 CB        -6.1921  -14.6650  -51.5377 C.3       19 UNK        -0.1800 
    107 C         -6.5634  -17.1855  -51.7587 C.2       19 UNK         0.5000 
    108 O         -7.7888  -17.2456  -51.6476 O.2       19 UNK        -0.5000 
    109 N         -5.7468  -18.1827  -51.3885 N.am      20 UNK        -0.5000 
    110 CA        -6.2105  -19.5009  -50.9517 C.3       20 UNK         0.1400 
    111 CB        -5.2072  -20.1122  -49.9613 C.3       20 UNK        -0.1800 
    112 C         -6.4225  -20.4242  -52.1645 C.2       20 UNK         0.5000 
    113 O         -7.4348  -21.1229  -52.2251 O.2       20 UNK        -0.5000 
    114 N         -5.4864  -20.3754  -53.1211 N.am      21 UNK        -0.5000 
    115 CA        -5.5469  -21.0917  -54.3928 C.3       21 UNK         0.1400 
    116 CB        -4.9145  -22.4857  -54.2555 C.3       21 UNK        -0.1800 
    117 C         -4.8722  -20.2879  -55.5131 C.2       21 UNK         0.5000 
    118 O         -5.4432  -20.1785  -56.5993 O.2       21 UNK        -0.5000 
    119 N         -3.6817  -19.7371  -55.2412 N.am      22 UNK        -0.5000 
    120 CA        -2.9374  -18.8804  -56.1776 C.3       22 UNK         0.1400 
    121 C         -3.5586  -17.4616  -56.3157 C.2       22 UNK         0.5000 
    122 N         -3.2879  -16.7666  -57.4115 N.am      22 UNK        -0.7600 
    123 O         -4.2542  -16.9663  -55.4316 O.2       22 UNK        -0.5000 
    124 C124       -1.4330  -18.8061  -55.8092 C.3       23 UNK        -0.0398 
    125 S125       -0.5890  -20.3935  -56.1042 S.3       23 UNK        -0.2404 
    126 C126        1.1589  -19.9031  -55.9825 C.3       23 UNK        -0.0205 
    127 H127        7.0128  -15.4989  -48.0864 H         1 UNK         0.0600 
    128 H128        6.3752  -16.0657  -49.6327 H         1 UNK         0.0600 
    129 H129        6.6310  -17.2094  -48.3121 H         1 UNK         0.0600 
    130 H130        4.2430  -15.4936  -49.8947 H         1 UNK         0.3000 
    131 H131        2.2123  -16.0618  -47.9296 H         1 UNK         0.0600 
    132 H132        0.7106  -14.8785  -49.6873 H         1 UNK         0.0800 
    133 H133        2.1302  -14.7068  -50.6828 H         1 UNK         0.0800 
    134 H134        2.1892  -16.3040  -52.6282 H         1 UNK         0.0800 
    135 H135        3.4877  -16.9710  -51.6591 H         1 UNK         0.0800 
    136 H136        1.4684  -17.6619  -54.4435 H         1 UNK         0.1150 
    137 H137        1.9093  -21.9202  -54.3309 H         1 UNK         0.1150 
    138 H138        3.1086  -19.5327  -50.9687 H         1 UNK         0.1150 
    139 H139        2.0992  -22.9064  -51.9429 H         1 UNK         0.0800 
    140 H140        3.7610  -22.6373  -52.4036 H         1 UNK         0.0800 
    141 H141        1.0759  -21.4962  -50.0942 H         1 UNK         0.0800 
    142 H142        1.9717  -20.5404  -48.9433 H         1 UNK         0.0800 
    143 H143        1.2536  -23.5023  -48.6030 H         1 UNK         0.0600 
    144 H144        3.1897  -22.0377  -47.2144 H         1 UNK         0.3000 
    145 H145        3.5546  -24.1830  -44.5613 H         1 UNK         0.0600 
    146 H146        5.4535  -22.6299  -44.7318 H         1 UNK         0.0600 
    147 H147        5.0193  -23.1769  -46.3400 H         1 UNK         0.0600 
    148 H148        4.5629  -21.5597  -45.8033 H         1 UNK         0.0600 
    149 H149        3.0465  -22.8338  -42.8685 H         1 UNK         0.3000 
    150 H150        1.1615  -21.0855  -42.0278 H         1 UNK         0.0600 
    151 H151        3.3344  -21.7305  -41.1157 H         1 UNK         0.0600 
    152 H152        2.9275  -20.1628  -40.4484 H         1 UNK         0.0600 
    153 H153        4.1085  -20.2858  -41.7505 H         1 UNK         0.0600 
    154 H154        0.6182  -18.9707  -42.3220 H         1 UNK         0.3000 
    155 H155        2.0661  -15.9642  -42.6855 H         1 UNK         0.0600 
    156 H156        1.0637  -17.2719  -45.2652 H         1 UNK         0.0600 
    157 H157        0.9036  -15.5598  -44.8841 H         1 UNK         0.0600 
    158 H158        2.4960  -16.2742  -45.0713 H         1 UNK         0.0600 
    159 H159       -0.5757  -17.0605  -43.3437 H         1 UNK         0.3000 
    160 H160       -1.7028  -16.8205  -39.9248 H         1 UNK         0.0600 
    161 H161       -3.5766  -15.7717  -41.1068 H         1 UNK         0.0600 
    162 H162       -2.6306  -15.6396  -42.5829 H         1 UNK         0.0600 
    163 H163       -2.1908  -14.6906  -41.1664 H         1 UNK         0.0600 
    164 H164       -2.9574  -18.0378  -42.1456 H         1 UNK         0.3000 
    165 H165       -1.6551  -20.9833  -42.3250 H         1 UNK         0.0600 
    166 H166       -3.1707  -22.4850  -41.0067 H         1 UNK         0.0600 
    167 H167       -1.8154  -21.8976  -40.0607 H         1 UNK         0.0600 
    168 H168       -3.4089  -21.1947  -39.8302 H         1 UNK         0.0600 
    169 H169       -3.4895  -20.6259  -43.4823 H         1 UNK         0.3000 
    170 H170       -6.0126  -20.7573  -43.6106 H         1 UNK         0.0600 
    171 H171       -7.6034  -19.6567  -42.0834 H         1 UNK         0.0600 
    172 H172       -7.0140  -18.0658  -42.5403 H         1 UNK         0.0600 
    173 H173       -7.8501  -19.0727  -43.7212 H         1 UNK         0.0600 
    174 H174       -5.2094  -19.6460  -45.3341 H         1 UNK         0.3000 
    175 H175       -3.5555  -17.9650  -46.3240 H         1 UNK         0.0600 
    176 H176       -5.2002  -17.1437  -48.0224 H         1 UNK         0.0600 
    177 H177       -6.3856  -16.8530  -46.7508 H         1 UNK         0.0600 
    178 H178       -5.8677  -18.4908  -47.1200 H         1 UNK         0.0600 
    179 H179       -4.6113  -15.2585  -46.3223 H         1 UNK         0.3000 
    180 H180       -3.0465  -13.6027  -46.5284 H         1 UNK         0.0600 
    181 H181       -2.4945  -13.4851  -43.5072 H         1 UNK         0.0600 
    182 H182       -4.1171  -13.5763  -44.1853 H         1 UNK         0.0600 
    183 H183       -3.0999  -12.1863  -44.5258 H         1 UNK         0.0600 
    184 H184       -0.5293  -14.4998  -45.4991 H         1 UNK         0.3000 
    185 H185        1.2234  -11.7264  -47.0344 H         1 UNK         0.0600 
    186 H186        1.4865  -13.2933  -44.4014 H         1 UNK         0.0600 
    187 H187        2.7800  -12.4111  -45.2081 H         1 UNK         0.0600 
    188 H188        1.4016  -11.5437  -44.5510 H         1 UNK         0.0600 
    189 H189        0.7065  -14.5690  -47.0722 H         1 UNK         0.3000 
    190 H190        0.8033  -20.8522  -46.2452 H         1 UNK         0.3000 
    191 H191       -2.0037  -20.4320  -46.9167 H         1 UNK         0.0600 
    192 H192       -0.6930  -18.5858  -46.0026 H         1 UNK         0.0600 
    193 H193       -1.9495  -18.9992  -44.8497 H         1 UNK         0.0600 
    194 H194       -0.2993  -19.5078  -44.5506 H         1 UNK         0.0600 
    195 H195       -0.2566  -22.6550  -44.8544 H         1 UNK         0.3000 
    196 H196       -2.6338  -23.3916  -43.2605 H         1 UNK         0.0600 
    197 H197       -1.0679  -24.9782  -42.1770 H         1 UNK         0.0600 
    198 H198       -0.4040  -23.3524  -42.1548 H         1 UNK         0.0600 
    199 H199        0.2088  -24.5403  -43.3037 H         1 UNK         0.0600 
    200 H200       -0.6014  -24.6008  -45.9280 H         1 UNK         0.3000 
    201 H201       -2.0516  -27.0348  -46.4011 H         1 UNK         0.0600 
    202 H202        0.3127  -26.6273  -47.1242 H         1 UNK         0.0600 
    203 H203       -0.2387  -25.3825  -48.2443 H         1 UNK         0.0600 
    204 H204       -0.7027  -27.0603  -48.4917 H         1 UNK         0.0600 
    205 H205       -2.7823  -23.7673  -47.1073 H         1 UNK         0.3000 
    206 H206       -4.3228  -22.6358  -48.1906 H         1 UNK         0.0600 
    207 H207       -5.9896  -24.2422  -47.2357 H         1 UNK         0.0600 
    208 H208       -6.4946  -23.6059  -48.7929 H         1 UNK         0.0600 
    209 H209       -5.8568  -25.2392  -48.6844 H         1 UNK         0.0600 
    210 H210       -1.9983  -23.4084  -49.4685 H         1 UNK         0.3000 
    211 H211       -2.6735  -23.7016  -52.3638 H         1 UNK         0.0600 
    212 H212       -0.0177  -23.9618  -50.8478 H         1 UNK         0.0600 
    213 H213       -0.2423  -24.2093  -52.5760 H         1 UNK         0.0600 
    214 H214       -1.0027  -25.3025  -51.4293 H         1 UNK         0.0600 
    215 H215       -1.8834  -21.4060  -49.9616 H         1 UNK         0.3000 
    216 H216       -0.1565  -19.6018  -51.1814 H         1 UNK         0.0600 
    217 H217       -1.2425  -17.9862  -49.4301 H         1 UNK         0.0600 
    218 H218       -0.5828  -19.4721  -48.8073 H         1 UNK         0.0600 
    219 H219       -2.3270  -19.3012  -49.0355 H         1 UNK         0.0600 
    220 H220       -0.5893  -17.3017  -51.5839 H         1 UNK         0.3000 
    221 H221       -2.3167  -16.6776  -53.7450 H         1 UNK         0.0600 
    222 H222       -0.9308  -14.8689  -51.7005 H         1 UNK         0.0600 
    223 H223       -0.2481  -15.4114  -53.2336 H         1 UNK         0.0600 
    224 H224       -1.6400  -14.3384  -53.2208 H         1 UNK         0.0600 
    225 H225       -4.4076  -16.2942  -53.7699 H         1 UNK         0.3000 
    226 H226       -6.4799  -15.7775  -53.3365 H         1 UNK         0.0600 
    227 H227       -5.7516  -13.7795  -51.9957 H         1 UNK         0.0600 
    228 H228       -7.2605  -14.4758  -51.4279 H         1 UNK         0.0600 
    229 H229       -5.7809  -14.7672  -50.5332 H         1 UNK         0.0600 
    230 H230       -4.7520  -18.0788  -51.5404 H         1 UNK         0.3000 
    231 H231       -7.1639  -19.3945  -50.4296 H         1 UNK         0.0600 
    232 H232       -4.2846  -20.4172  -50.4519 H         1 UNK         0.0600 
    233 H233       -5.6335  -20.9979  -49.4907 H         1 UNK         0.0600 
    234 H234       -4.9487  -19.4119  -49.1689 H         1 UNK         0.0600 
    235 H235       -4.6738  -19.7830  -52.9713 H         1 UNK         0.3000 
    236 H236       -6.5932  -21.2172  -54.6798 H         1 UNK         0.0600 
    237 H237       -3.8642  -22.4192  -53.9739 H         1 UNK         0.0600 
    238 H238       -5.4296  -23.0817  -53.5024 H         1 UNK         0.0600 
    239 H239       -4.9681  -23.0332  -55.1971 H         1 UNK         0.0600 
    240 H240       -3.2703  -19.8513  -54.3225 H         1 UNK         0.3000 
    241 H241       -3.0117  -19.3396  -57.1658 H         1 UNK         0.0600 
    242 H242       -2.7239  -17.1449  -58.1571 H         1 UNK         0.3800 
    243 H243       -3.6780  -15.8422  -57.5102 H         1 UNK         0.3800 
    244 H244       -0.9259  -18.0436  -56.4029 H         1 UNK         0.0800 
    245 H245       -1.2951  -18.5273  -54.7657 H         1 UNK         0.0800 
    246 H246        1.3204  -18.9628  -56.5117 H         1 UNK         0.0800 
    247 H247        1.7614  -20.6461  -56.5071 H         1 UNK         0.0800 
@<TRIPOS>BOND
     1    1    2 1    
     2    1  127 1    
     3    1  128 1    
     4    1  129 1    
     5    2    3 2    
     6    2    4 am   BACKBONE|DICT|INTERRES
     7    4    5 1    
     8    4  130 1    
     9    5    6 1    
    10    5   65 1    
    11    5  131 1    
    12    6    7 1    
    13    6  132 1    
    14    6  133 1    
    15    7    8 1    
    16    8    9 1    
    17    8  134 1    
    18    8  135 1    
    19    9   10 ar   
    20    9   14 ar   
    21   10   11 ar   
    22   10  136 1    
    23   11   12 ar   
    24   11  126 1    
    25   12   13 ar   
    26   12  137 1    
    27   13   14 ar   
    28   13   15 1    
    29   14  138 1    
    30   15   16 1    
    31   15  139 1    
    32   15  140 1    
    33   16   17 1    
    34   17   18 1    
    35   17  141 1    
    36   17  142 1    
    37   18   19 1    
    38   18   67 1    
    39   18  143 1    
    40   19   20 am   BACKBONE|DICT|INTERRES
    41   19  144 1    
    42   20   21 2    
    43   20   22 1    
    44   22   23 1    
    45   22   24 1    
    46   22  145 1    
    47   23  146 1    
    48   23  147 1    
    49   23  148 1    
    50   24   25 am   BACKBONE|DICT|INTERRES
    51   24  149 1    
    52   25   26 2    
    53   25   27 1    
    54   27   28 1    
    55   27   29 1    
    56   27  150 1    
    57   28  151 1    
    58   28  152 1    
    59   28  153 1    
    60   29   30 am   BACKBONE|DICT|INTERRES
    61   29  154 1    
    62   30   31 2    
    63   30   32 1    
    64   32   33 1    
    65   32   34 1    
    66   32  155 1    
    67   33  156 1    
    68   33  157 1    
    69   33  158 1    
    70   34   35 am   BACKBONE|DICT|INTERRES
    71   34  159 1    
    72   35   36 2    
    73   35   37 1    
    74   37   38 1    
    75   37   39 1    
    76   37  160 1    
    77   38  161 1    
    78   38  162 1    
    79   38  163 1    
    80   39   40 am   BACKBONE|DICT|INTERRES
    81   39  164 1    
    82   40   41 2    
    83   40   42 1    
    84   42   43 1    
    85   42   44 1    
    86   42  165 1    
    87   43  166 1    
    88   43  167 1    
    89   43  168 1    
    90   44   45 am   BACKBONE|DICT|INTERRES
    91   44  169 1    
    92   45   46 2    
    93   45   47 1    
    94   47   48 1    
    95   47   49 1    
    96   47  170 1    
    97   48  171 1    
    98   48  172 1    
    99   48  173 1    
   100   49   50 am   BACKBONE|DICT|INTERRES
   101   49  174 1    
   102   50   51 2    
   103   50   52 1    
   104   52   53 1    
   105   52   54 1    
   106   52  175 1    
   107   53  176 1    
   108   53  177 1    
   109   53  178 1    
   110   54   55 am   BACKBONE|DICT|INTERRES
   111   54  179 1    
   112   55   56 2    
   113   55   57 1    
   114   57   58 1    
   115   57   59 1    
   116   57  180 1    
   117   58  181 1    
   118   58  182 1    
   119   58  183 1    
   120   59   60 am   BACKBONE|DICT|INTERRES
   121   59  184 1    
   122   60   61 2    
   123   60   62 1    
   124   62   63 1    
   125   62   64 1    
   126   62  185 1    
   127   63  186 1    
   128   63  187 1    
   129   63  188 1    
   130   64   65 am   BACKBONE|DICT|INTERRES
   131   64  189 1    
   132   65   66 2    
   133   67   68 2    
   134   67   69 am   BACKBONE|DICT|INTERRES
   135   69   70 1    
   136   69  190 1    
   137   70   71 1    
   138   70   72 1    
   139   70  191 1    
   140   71  192 1    
   141   71  193 1    
   142   71  194 1    
   143   72   73 2    
   144   72   74 am   BACKBONE|DICT|INTERRES
   145   74   75 1    
   146   74  195 1    
   147   75   76 1    
   148   75   77 1    
   149   75  196 1    
   150   76  197 1    
   151   76  198 1    
   152   76  199 1    
   153   77   78 2    
   154   77   79 am   BACKBONE|DICT|INTERRES
   155   79   80 1    
   156   79  200 1    
   157   80   81 1    
   158   80   82 1    
   159   80  201 1    
   160   81  202 1    
   161   81  203 1    
   162   81  204 1    
   163   82   83 2    
   164   82   84 am   BACKBONE|DICT|INTERRES
   165   84   85 1    
   166   84  205 1    
   167   85   86 1    
   168   85   87 1    
   169   85  206 1    
   170   86  207 1    
   171   86  208 1    
   172   86  209 1    
   173   87   88 2    
   174   87   89 am   BACKBONE|DICT|INTERRES
   175   89   90 1    
   176   89  210 1    
   177   90   91 1    
   178   90   92 1    
   179   90  211 1    
   180   91  212 1    
   181   91  213 1    
   182   91  214 1    
   183   92   93 2    
   184   92   94 am   BACKBONE|DICT|INTERRES
   185   94   95 1    
   186   94  215 1    
   187   95   96 1    
   188   95   97 1    
   189   95  216 1    
   190   96  217 1    
   191   96  218 1    
   192   96  219 1    
   193   97   98 2    
   194   97   99 am   BACKBONE|DICT|INTERRES
   195   99  100 1    
   196   99  220 1    
   197  100  101 1    
   198  100  102 1    
   199  100  221 1    
   200  101  222 1    
   201  101  223 1    
   202  101  224 1    
   203  102  103 2    
   204  102  104 am   BACKBONE|DICT|INTERRES
   205  104  105 1    
   206  104  225 1    
   207  105  106 1    
   208  105  107 1    
   209  105  226 1    
   210  106  227 1    
   211  106  228 1    
   212  106  229 1    
   213  107  108 2    
   214  107  109 am   BACKBONE|DICT|INTERRES
   215  109  110 1    
   216  109  230 1    
   217  110  111 1    
   218  110  112 1    
   219  110  231 1    
   220  111  232 1    
   221  111  233 1    
   222  111  234 1    
   223  112  113 2    
   224  112  114 am   BACKBONE|DICT|INTERRES
   225  114  115 1    
   226  114  235 1    
   227  115  116 1    
   228  115  117 1    
   229  115  236 1    
   230  116  237 1    
   231  116  238 1    
   232  116  239 1    
   233  117  118 2    
   234  117  119 am   BACKBONE|DICT|INTERRES
   235  119  120 1    
   236  119  240 1    
   237  120  121 1    
   238  120  124 1    
   239  120  241 1    
   240  121  122 am   BACKBONE|DICT|INTERRES
   241  121  123 2    
   242  122  242 1    
   243  122  243 1    
   244  124  125 1    
   245  124  244 1    
   246  124  245 1    
   247  125  126 1    
   248  126  246 1    
   249  126  247 1    
@<TRIPOS>SUBSTRUCTURE
     1 UNK         1 GROUP             0       ****    0 ROOT    
