@<TRIPOS>MOLECULE
3R540
247   249    1
SMALL
USER_CHARGES


@<TRIPOS>ATOM
      1 CA          0.2902   -9.0201  -49.8222 C.3       0 UNK        -0.1800 
      2 C           0.9243   -9.9630  -48.8094 C.2       0 UNK         0.5000 
      3 O           1.6633   -9.5144  -47.9329 O.2       0 UNK        -0.5000 
      4 N           0.6393  -11.2662  -48.9264 N.am      1 UNK        -0.5000 
      5 CA          1.1356  -12.3214  -48.0333 C.3       1 UNK         0.1400 
      6 C6          0.9917  -13.7246  -48.6756 C.3       23 UNK        -0.0398 
      7 S7         -0.7383  -14.1864  -49.0570 S.3       23 UNK        -0.2404 
      8 C8         -0.7460  -15.9615  -48.6636 C.3       23 UNK        -0.0205 
      9 C9         -0.0396  -16.7641  -49.7449 C.ar      23 UNK        -0.0193 
     10 C10        -0.7201  -17.0998  -50.9187 C.ar      23 UNK        -0.1150 
     11 C11        -0.0703  -17.7879  -51.9474 C.ar      23 UNK        -0.0193 
     12 C12         1.2701  -18.1500  -51.7862 C.ar      23 UNK        -0.1150 
     13 C13         1.9553  -17.8415  -50.6081 C.ar      23 UNK        -0.0193 
     14 C14         1.2951  -17.1481  -49.5888 C.ar      23 UNK        -0.1150 
     15 C15         3.4179  -18.2322  -50.4597 C.3       23 UNK        -0.0205 
     16 S16         3.6254  -20.0129  -50.1439 S.3       23 UNK        -0.2404 
     17 C17         3.0519  -20.1377  -48.4182 C.3       23 UNK        -0.0398 
     18 CA          2.1880  -21.3897  -48.1382 C.3       11 UNK         0.1400 
     19 N           2.0931  -21.6454  -46.6994 N.am      11 UNK        -0.5000 
     20 C           1.6264  -22.7693  -46.1394 C.2       10 UNK         0.5000 
     21 O           1.2658  -23.7580  -46.7774 O.2       10 UNK        -0.5000 
     22 CA          1.5192  -22.7797  -44.6030 C.3       10 UNK         0.1400 
     23 CB          2.8597  -23.1777  -43.9675 C.3       10 UNK        -0.1800 
     24 N           1.0777  -21.4939  -44.0582 N.am      10 UNK        -0.5000 
     25 C          -0.1339  -20.9604  -44.2707 C.2       9 UNK         0.5000 
     26 O          -1.0214  -21.5263  -44.9059 O.2       9 UNK        -0.5000 
     27 CA         -0.3845  -19.5438  -43.7233 C.3       9 UNK         0.1400 
     28 CB         -0.7002  -19.5905  -42.2214 C.3       9 UNK        -0.1800 
     29 N           0.7425  -18.6427  -43.9617 N.am      9 UNK        -0.5000 
     30 C           1.1898  -18.2805  -45.1721 C.2       8 UNK         0.5000 
     31 O           0.6604  -18.6198  -46.2291 O.2       8 UNK        -0.5000 
     32 CA          2.4785  -17.4422  -45.2106 C.3       8 UNK         0.1400 
     33 CB          2.1817  -15.9514  -44.9946 C.3       8 UNK        -0.1800 
     34 N           3.4601  -17.9000  -44.2274 N.am      8 UNK        -0.5000 
     35 C           4.1121  -19.0687  -44.3040 C.2       7 UNK         0.5000 
     36 O           3.9664  -19.8723  -45.2241 O.2       7 UNK        -0.5000 
     37 CA          5.0507  -19.4138  -43.1344 C.3       7 UNK         0.1400 
     38 CB          6.3943  -18.6840  -43.2808 C.3       7 UNK        -0.1800 
     39 N           4.4613  -19.0950  -41.8336 N.am      7 UNK        -0.5000 
     40 C           3.3916  -19.7165  -41.3176 C.2       6 UNK         0.5000 
     41 O           2.8063  -20.6450  -41.8730 O.2       6 UNK        -0.5000 
     42 CA          2.8571  -19.1777  -39.9780 C.3       6 UNK         0.1400 
     43 CB          3.6045  -19.8209  -38.8005 C.3       6 UNK        -0.1800 
     44 N           2.9275  -17.7178  -39.8615 N.am      6 UNK        -0.5000 
     45 C           2.3045  -16.8591  -40.6785 C.2       5 UNK         0.5000 
     46 O           1.6550  -17.2016  -41.6693 O.2       5 UNK        -0.5000 
     47 CA          2.4761  -15.3643  -40.3701 C.3       5 UNK         0.1400 
     48 CB          3.6383  -14.7824  -41.1896 C.3       5 UNK        -0.1800 
     49 N           1.2520  -14.6409  -40.7017 N.am      5 UNK        -0.5000 
     50 C           0.1473  -14.6243  -39.9431 C.2       4 UNK         0.5000 
     51 O           0.0809  -15.1182  -38.8167 O.2       4 UNK        -0.5000 
     52 CA         -1.0940  -13.9499  -40.5535 C.3       4 UNK         0.1400 
     53 CB         -1.0996  -12.4443  -40.2465 C.3       4 UNK        -0.1800 
     54 N          -1.1556  -14.1402  -42.0022 N.am      4 UNK        -0.5000 
     55 C          -1.6177  -15.2401  -42.6140 C.2       3 UNK         0.5000 
     56 O          -2.1007  -16.1983  -42.0107 O.2       3 UNK        -0.5000 
     57 CA         -1.5050  -15.2773  -44.1550 C.3       3 UNK         0.1400 
     58 CB         -2.6680  -16.0313  -44.8314 C.3       3 UNK        -0.1800 
     59 N          -1.2989  -13.9538  -44.7594 N.am      3 UNK        -0.5000 
     60 C          -2.1423  -12.9115  -44.7758 C.2       2 UNK         0.5000 
     61 O          -3.2827  -12.9459  -44.3137 O.2       2 UNK        -0.5000 
     62 CA         -1.6252  -11.5910  -45.3856 C.3       2 UNK         0.1400 
     63 CB         -0.9757  -10.7095  -44.3014 C.3       2 UNK        -0.1800 
     64 N          -0.7389  -11.7379  -46.5493 N.am      2 UNK        -0.5000 
     65 C           0.4873  -12.2785  -46.6313 C.2       1 UNK         0.5000 
     66 O           1.0875  -12.7659  -45.6728 O.2       1 UNK        -0.5000 
     67 C           0.7940  -21.3166  -48.8028 C.2       11 UNK         0.5000 
     68 O           0.5927  -21.9290  -49.8515 O.2       11 UNK        -0.5000 
     69 N          -0.1500  -20.6138  -48.1593 N.am      12 UNK        -0.5000 
     70 CA         -1.5475  -20.5114  -48.5865 C.3       12 UNK         0.1400 
     71 CB         -2.2328  -19.3982  -47.7805 C.3       12 UNK        -0.1800 
     72 C          -2.3340  -21.8259  -48.4201 C.2       12 UNK         0.5000 
     73 O          -3.2526  -22.0813  -49.1989 O.2       12 UNK        -0.5000 
     74 N          -1.9653  -22.6135  -47.4010 N.am      13 UNK        -0.5000 
     75 CA         -2.6210  -23.8221  -46.8980 C.3       13 UNK         0.1400 
     76 CB         -2.7936  -24.8822  -48.0069 C.3       13 UNK        -0.1800 
     77 C          -3.9463  -23.5138  -46.1707 C.2       13 UNK         0.5000 
     78 O          -4.4173  -22.3720  -46.1608 O.2       13 UNK        -0.5000 
     79 N          -4.5219  -24.5503  -45.5455 N.am      14 UNK        -0.5000 
     80 CA         -5.7883  -24.4944  -44.8119 C.3       14 UNK         0.1400 
     81 CB         -6.0909  -25.8781  -44.2173 C.3       14 UNK        -0.1800 
     82 C          -6.9441  -24.0229  -45.7117 C.2       14 UNK         0.5000 
     83 O          -7.1205  -24.5678  -46.8022 O.2       14 UNK        -0.5000 
     84 N          -7.6671  -22.9887  -45.2599 N.am      15 UNK        -0.5000 
     85 CA         -8.7498  -22.2951  -45.9728 C.3       15 UNK         0.1400 
     86 CB         -9.9743  -23.2216  -46.1295 C.3       15 UNK        -0.1800 
     87 C          -8.3125  -21.6588  -47.3146 C.2       15 UNK         0.5000 
     88 O          -9.1528  -21.4510  -48.1914 O.2       15 UNK        -0.5000 
     89 N          -7.0084  -21.3661  -47.4490 N.am      16 UNK        -0.5000 
     90 CA         -6.3292  -20.8494  -48.6414 C.3       16 UNK         0.1400 
     91 CB         -6.8064  -19.4221  -48.9821 C.3       16 UNK        -0.1800 
     92 C          -6.3976  -21.8150  -49.8463 C.2       16 UNK         0.5000 
     93 O          -6.4504  -21.3656  -50.9917 O.2       16 UNK        -0.5000 
     94 N          -6.3970  -23.1295  -49.5757 N.am      17 UNK        -0.5000 
     95 CA         -6.5525  -24.1968  -50.5684 C.3       17 UNK         0.1400 
     96 CB         -6.6168  -25.5535  -49.8505 C.3       17 UNK        -0.1800 
     97 C          -5.4891  -24.2337  -51.6849 C.2       17 UNK         0.5000 
     98 O          -5.7816  -24.7554  -52.7622 O.2       17 UNK        -0.5000 
     99 N          -4.2908  -23.6831  -51.4401 N.am      18 UNK        -0.5000 
    100 CA        -3.2145  -23.6254  -52.4311 C.3       18 UNK         0.1400 
    101 CB        -1.8617  -23.4400  -51.7292 C.3       18 UNK        -0.1800 
    102 C         -3.4155  -22.5270  -53.4903 C.2       18 UNK         0.5000 
    103 O         -2.6989  -22.5478  -54.4912 O.2       18 UNK        -0.5000 
    104 N         -4.3667  -21.5991  -53.2833 N.am      19 UNK        -0.5000 
    105 CA        -4.6271  -20.4380  -54.1471 C.3       19 UNK         0.1400 
    106 CB        -5.7739  -19.6038  -53.5598 C.3       19 UNK        -0.1800 
    107 C         -4.9131  -20.7802  -55.6216 C.2       19 UNK         0.5000 
    108 O         -4.5888  -19.9829  -56.5020 O.2       19 UNK        -0.5000 
    109 N         -5.4641  -21.9755  -55.8705 N.am      20 UNK        -0.5000 
    110 CA        -5.6761  -22.5367  -57.2052 C.3       20 UNK         0.1400 
    111 CB        -6.5290  -23.8079  -57.0752 C.3       20 UNK        -0.1800 
    112 C         -4.3677  -22.8412  -57.9669 C.2       20 UNK         0.5000 
    113 O         -4.3899  -22.8822  -59.1978 O.2       20 UNK        -0.5000 
    114 N         -3.2644  -23.0501  -57.2354 N.am      21 UNK        -0.5000 
    115 CA        -1.9349  -23.3128  -57.7771 C.3       21 UNK         0.1400 
    116 CB        -1.2977  -24.4885  -57.0177 C.3       21 UNK        -0.1800 
    117 C         -1.0451  -22.0622  -57.6939 C.2       21 UNK         0.5000 
    118 O         -0.4237  -21.7065  -58.6965 O.2       21 UNK        -0.5000 
    119 N         -0.9828  -21.4230  -56.5155 N.am      22 UNK        -0.5000 
    120 CA        -0.1240  -20.2495  -56.2703 C.3       22 UNK         0.1400 
    121 C         -0.6789  -18.8953  -56.8012 C.2       22 UNK         0.5000 
    122 N         -1.9506  -18.7812  -57.1634 N.am      22 UNK        -0.7600 
    123 O          0.0699  -17.9275  -56.9044 O.2       22 UNK        -0.5000 
    124 C124        0.3690  -20.1582  -54.8001 C.3       23 UNK        -0.0398 
    125 S125       -0.9434  -19.8844  -53.5593 S.3       23 UNK        -0.2404 
    126 C126       -0.8085  -18.0964  -53.2429 C.3       23 UNK        -0.0205 
    127 H127        1.0642   -8.4896  -50.3768 H         1 UNK         0.0600 
    128 H128       -0.3306   -8.2838  -49.3117 H         1 UNK         0.0600 
    129 H129       -0.3351   -9.5546  -50.5379 H         1 UNK         0.0600 
    130 H130        0.0289  -11.5790  -49.6689 H         1 UNK         0.3000 
    131 H131        2.2030  -12.1449  -47.8833 H         1 UNK         0.0600 
    132 H132        1.4400  -14.4773  -48.0254 H         1 UNK         0.0800 
    133 H133        1.5628  -13.7650  -49.6041 H         1 UNK         0.0800 
    134 H134       -0.2974  -16.1388  -47.6847 H         1 UNK         0.0800 
    135 H135       -1.7843  -16.2860  -48.5875 H         1 UNK         0.0800 
    136 H136       -1.7512  -16.7986  -51.0391 H         1 UNK         0.1150 
    137 H137        1.7845  -18.6768  -52.5764 H         1 UNK         0.1150 
    138 H138        1.8225  -16.8938  -48.6806 H         1 UNK         0.1150 
    139 H139        3.9507  -17.9747  -51.3762 H         1 UNK         0.0800 
    140 H140        3.8953  -17.6615  -49.6615 H         1 UNK         0.0800 
    141 H141        2.5222  -19.2331  -48.1212 H         1 UNK         0.0800 
    142 H142        3.9529  -20.1687  -47.8052 H         1 UNK         0.0800 
    143 H143        2.7046  -22.2497  -48.5703 H         1 UNK         0.0600 
    144 H144        2.4286  -20.9078  -46.0893 H         1 UNK         0.3000 
    145 H145        0.7774  -23.5326  -44.3282 H         1 UNK         0.0600 
    146 H146        2.7679  -23.2770  -42.8859 H         1 UNK         0.0600 
    147 H147        3.2067  -24.1369  -44.3537 H         1 UNK         0.0600 
    148 H148        3.6368  -22.4402  -44.1705 H         1 UNK         0.0600 
    149 H149        1.7393  -20.9992  -43.4668 H         1 UNK         0.3000 
    150 H150       -1.2529  -19.1332  -44.2425 H         1 UNK         0.0600 
    151 H151       -1.5824  -20.2015  -42.0277 H         1 UNK         0.0600 
    152 H152       -0.9005  -18.5944  -41.8278 H         1 UNK         0.0600 
    153 H153        0.1248  -20.0134  -41.6487 H         1 UNK         0.0600 
    154 H154        1.2084  -18.2708  -43.1373 H         1 UNK         0.3000 
    155 H155        2.9158  -17.5555  -46.2049 H         1 UNK         0.0600 
    156 H156        1.7789  -15.7566  -44.0007 H         1 UNK         0.0600 
    157 H157        1.4558  -15.5902  -45.7236 H         1 UNK         0.0600 
    158 H158        3.0824  -15.3490  -45.1124 H         1 UNK         0.0600 
    159 H159        3.5908  -17.3237  -43.4100 H         1 UNK         0.3000 
    160 H160        5.2412  -20.4887  -43.1670 H         1 UNK         0.0600 
    161 H161        6.2756  -17.6012  -43.2258 H         1 UNK         0.0600 
    162 H162        6.8608  -18.9152  -44.2395 H         1 UNK         0.0600 
    163 H163        7.0930  -18.9852  -42.5001 H         1 UNK         0.0600 
    164 H164        4.8801  -18.3404  -41.3105 H         1 UNK         0.3000 
    165 H165        1.8054  -19.4622  -39.9075 H         1 UNK         0.0600 
    166 H166        3.1699  -19.5219  -37.8465 H         1 UNK         0.0600 
    167 H167        3.5518  -20.9093  -38.8526 H         1 UNK         0.0600 
    168 H168        4.6593  -19.5433  -38.7916 H         1 UNK         0.0600 
    169 H169        3.4545  -17.3557  -39.0798 H         1 UNK         0.3000 
    170 H170        2.6939  -15.2358  -39.3076 H         1 UNK         0.0600 
    171 H171        4.5753  -15.2892  -40.9556 H         1 UNK         0.0600 
    172 H172        3.4693  -14.8833  -42.2624 H         1 UNK         0.0600 
    173 H173        3.7806  -13.7236  -40.9724 H         1 UNK         0.0600 
    174 H174        1.2007  -14.2512  -41.6298 H         1 UNK         0.3000 
    175 H175       -1.9802  -14.3949  -40.0957 H         1 UNK         0.0600 
    176 H176       -0.2373  -11.9384  -40.6828 H         1 UNK         0.0600 
    177 H177       -1.9998  -11.9670  -40.6345 H         1 UNK         0.0600 
    178 H178       -1.0755  -12.2659  -39.1706 H         1 UNK         0.0600 
    179 H179       -0.7989  -13.3921  -42.5769 H         1 UNK         0.3000 
    180 H180       -0.6007  -15.8462  -44.3638 H         1 UNK         0.0600 
    181 H181       -2.5442  -16.0558  -45.9141 H         1 UNK         0.0600 
    182 H182       -3.6325  -15.5732  -44.6122 H         1 UNK         0.0600 
    183 H183       -2.7145  -17.0657  -44.4896 H         1 UNK         0.0600 
    184 H184       -0.3666  -13.7726  -45.1237 H         1 UNK         0.3000 
    185 H185       -2.5038  -11.0594  -45.7544 H         1 UNK         0.0600 
    186 H186       -1.6733  -10.5189  -43.4848 H         1 UNK         0.0600 
    187 H187       -0.0902  -11.1760  -43.8691 H         1 UNK         0.0600 
    188 H188       -0.6793   -9.7423  -44.7073 H         1 UNK         0.0600 
    189 H189       -1.1347  -11.4111  -47.4195 H         1 UNK         0.3000 
    190 H190        0.1094  -20.0854  -47.3307 H         1 UNK         0.3000 
    191 H191       -1.5608  -20.2353  -49.6433 H         1 UNK         0.0600 
    192 H192       -3.2377  -19.2039  -48.1567 H         1 UNK         0.0600 
    193 H193       -1.6723  -18.4685  -47.8407 H         1 UNK         0.0600 
    194 H194       -2.3196  -19.6611  -46.7253 H         1 UNK         0.0600 
    195 H195       -1.2710  -22.2322  -46.7676 H         1 UNK         0.3000 
    196 H196       -1.9390  -24.2276  -46.1493 H         1 UNK         0.0600 
    197 H197       -3.5656  -24.6034  -48.7234 H         1 UNK         0.0600 
    198 H198       -1.8635  -25.0318  -48.5552 H         1 UNK         0.0600 
    199 H199       -3.0780  -25.8479  -47.5889 H         1 UNK         0.0600 
    200 H200       -4.0889  -25.4594  -45.6111 H         1 UNK         0.3000 
    201 H201       -5.6635  -23.7864  -43.9901 H         1 UNK         0.0600 
    202 H202       -6.1930  -26.6364  -44.9948 H         1 UNK         0.0600 
    203 H203       -7.0222  -25.8632  -43.6496 H         1 UNK         0.0600 
    204 H204       -5.3015  -26.1978  -43.5368 H         1 UNK         0.0600 
    205 H205       -7.4261  -22.5955  -44.3603 H         1 UNK         0.3000 
    206 H206       -9.0485  -21.4632  -45.3335 H         1 UNK         0.0600 
    207 H207      -10.2671  -23.6539  -45.1727 H         1 UNK         0.0600 
    208 H208      -10.8357  -22.6729  -46.5119 H         1 UNK         0.0600 
    209 H209       -9.7764  -24.0408  -46.8214 H         1 UNK         0.0600 
    210 H210       -6.3856  -21.6124  -46.6876 H         1 UNK         0.3000 
    211 H211       -5.2783  -20.7734  -48.3676 H         1 UNK         0.0600 
    212 H212       -6.1893  -18.9831  -49.7669 H         1 UNK         0.0600 
    213 H213       -6.7400  -18.7661  -48.1143 H         1 UNK         0.0600 
    214 H214       -7.8378  -19.4113  -49.3352 H         1 UNK         0.0600 
    215 H215       -6.3810  -23.4216  -48.6064 H         1 UNK         0.3000 
    216 H216       -7.5133  -24.0344  -51.0608 H         1 UNK         0.0600 
    217 H217       -5.7365  -25.7238  -49.2301 H         1 UNK         0.0600 
    218 H218       -6.6819  -26.3766  -50.5634 H         1 UNK         0.0600 
    219 H219       -7.4970  -25.6167  -49.2111 H         1 UNK         0.0600 
    220 H220       -4.1145  -23.2218  -50.5509 H         1 UNK         0.3000 
    221 H221       -3.1808  -24.5815  -52.9576 H         1 UNK         0.0600 
    222 H222       -1.0388  -23.5860  -52.4299 H         1 UNK         0.0600 
    223 H223       -1.7275  -24.1524  -50.9157 H         1 UNK         0.0600 
    224 H224       -1.7552  -22.4344  -51.3225 H         1 UNK         0.0600 
    225 H225       -4.9295  -21.6623  -52.4418 H         1 UNK         0.3000 
    226 H226       -3.7314  -19.8175  -54.1375 H         1 UNK         0.0600 
    227 H227       -5.5318  -19.2530  -52.5564 H         1 UNK         0.0600 
    228 H228       -5.9716  -18.7224  -54.1713 H         1 UNK         0.0600 
    229 H229       -6.6989  -20.1786  -53.5018 H         1 UNK         0.0600 
    230 H230       -5.6852  -22.5710  -55.0852 H         1 UNK         0.3000 
    231 H231       -6.2354  -21.8061  -57.7933 H         1 UNK         0.0600 
    232 H232       -6.0288  -24.5670  -56.4723 H         1 UNK         0.0600 
    233 H233       -6.7312  -24.2456  -58.0537 H         1 UNK         0.0600 
    234 H234       -7.4920  -23.5918  -56.6121 H         1 UNK         0.0600 
    235 H235       -3.3145  -22.9450  -56.2263 H         1 UNK         0.3000 
    236 H236       -2.0056  -23.6011  -58.8280 H         1 UNK         0.0600 
    237 H237       -1.8982  -25.3924  -57.1202 H         1 UNK         0.0600 
    238 H238       -0.3044  -24.7119  -57.4086 H         1 UNK         0.0600 
    239 H239       -1.1913  -24.2783  -55.9530 H         1 UNK         0.0600 
    240 H240       -1.5298  -21.7617  -55.7276 H         1 UNK         0.3000 
    241 H241        0.7841  -20.4088  -56.8554 H         1 UNK         0.0600 
    242 H242       -2.2810  -17.8965  -57.5133 H         1 UNK         0.3800 
    243 H243       -2.6112  -19.5378  -57.0403 H         1 UNK         0.3800 
    244 H244        1.1299  -19.3823  -54.7082 H         1 UNK         0.0800 
    245 H245        0.8757  -21.0870  -54.5354 H         1 UNK         0.0800 
    246 H246       -0.3094  -17.5933  -54.0716 H         1 UNK         0.0800 
    247 H247       -1.8190  -17.6865  -53.2104 H         1 UNK         0.0800 
@<TRIPOS>BOND
     1    1    2 1    
     2    1  127 1    
     3    1  128 1    
     4    1  129 1    
     5    2    3 2    
     6    2    4 am   BACKBONE|DICT|INTERRES
     7    4    5 1    
     8    4  130 1    
     9    5    6 1    
    10    5   65 1    
    11    5  131 1    
    12    6    7 1    
    13    6  132 1    
    14    6  133 1    
    15    7    8 1    
    16    8    9 1    
    17    8  134 1    
    18    8  135 1    
    19    9   10 ar   
    20    9   14 ar   
    21   10   11 ar   
    22   10  136 1    
    23   11   12 ar   
    24   11  126 1    
    25   12   13 ar   
    26   12  137 1    
    27   13   14 ar   
    28   13   15 1    
    29   14  138 1    
    30   15   16 1    
    31   15  139 1    
    32   15  140 1    
    33   16   17 1    
    34   17   18 1    
    35   17  141 1    
    36   17  142 1    
    37   18   19 1    
    38   18   67 1    
    39   18  143 1    
    40   19   20 am   BACKBONE|DICT|INTERRES
    41   19  144 1    
    42   20   21 2    
    43   20   22 1    
    44   22   23 1    
    45   22   24 1    
    46   22  145 1    
    47   23  146 1    
    48   23  147 1    
    49   23  148 1    
    50   24   25 am   BACKBONE|DICT|INTERRES
    51   24  149 1    
    52   25   26 2    
    53   25   27 1    
    54   27   28 1    
    55   27   29 1    
    56   27  150 1    
    57   28  151 1    
    58   28  152 1    
    59   28  153 1    
    60   29   30 am   BACKBONE|DICT|INTERRES
    61   29  154 1    
    62   30   31 2    
    63   30   32 1    
    64   32   33 1    
    65   32   34 1    
    66   32  155 1    
    67   33  156 1    
    68   33  157 1    
    69   33  158 1    
    70   34   35 am   BACKBONE|DICT|INTERRES
    71   34  159 1    
    72   35   36 2    
    73   35   37 1    
    74   37   38 1    
    75   37   39 1    
    76   37  160 1    
    77   38  161 1    
    78   38  162 1    
    79   38  163 1    
    80   39   40 am   BACKBONE|DICT|INTERRES
    81   39  164 1    
    82   40   41 2    
    83   40   42 1    
    84   42   43 1    
    85   42   44 1    
    86   42  165 1    
    87   43  166 1    
    88   43  167 1    
    89   43  168 1    
    90   44   45 am   BACKBONE|DICT|INTERRES
    91   44  169 1    
    92   45   46 2    
    93   45   47 1    
    94   47   48 1    
    95   47   49 1    
    96   47  170 1    
    97   48  171 1    
    98   48  172 1    
    99   48  173 1    
   100   49   50 am   BACKBONE|DICT|INTERRES
   101   49  174 1    
   102   50   51 2    
   103   50   52 1    
   104   52   53 1    
   105   52   54 1    
   106   52  175 1    
   107   53  176 1    
   108   53  177 1    
   109   53  178 1    
   110   54   55 am   BACKBONE|DICT|INTERRES
   111   54  179 1    
   112   55   56 2    
   113   55   57 1    
   114   57   58 1    
   115   57   59 1    
   116   57  180 1    
   117   58  181 1    
   118   58  182 1    
   119   58  183 1    
   120   59   60 am   BACKBONE|DICT|INTERRES
   121   59  184 1    
   122   60   61 2    
   123   60   62 1    
   124   62   63 1    
   125   62   64 1    
   126   62  185 1    
   127   63  186 1    
   128   63  187 1    
   129   63  188 1    
   130   64   65 am   BACKBONE|DICT|INTERRES
   131   64  189 1    
   132   65   66 2    
   133   67   68 2    
   134   67   69 am   BACKBONE|DICT|INTERRES
   135   69   70 1    
   136   69  190 1    
   137   70   71 1    
   138   70   72 1    
   139   70  191 1    
   140   71  192 1    
   141   71  193 1    
   142   71  194 1    
   143   72   73 2    
   144   72   74 am   BACKBONE|DICT|INTERRES
   145   74   75 1    
   146   74  195 1    
   147   75   76 1    
   148   75   77 1    
   149   75  196 1    
   150   76  197 1    
   151   76  198 1    
   152   76  199 1    
   153   77   78 2    
   154   77   79 am   BACKBONE|DICT|INTERRES
   155   79   80 1    
   156   79  200 1    
   157   80   81 1    
   158   80   82 1    
   159   80  201 1    
   160   81  202 1    
   161   81  203 1    
   162   81  204 1    
   163   82   83 2    
   164   82   84 am   BACKBONE|DICT|INTERRES
   165   84   85 1    
   166   84  205 1    
   167   85   86 1    
   168   85   87 1    
   169   85  206 1    
   170   86  207 1    
   171   86  208 1    
   172   86  209 1    
   173   87   88 2    
   174   87   89 am   BACKBONE|DICT|INTERRES
   175   89   90 1    
   176   89  210 1    
   177   90   91 1    
   178   90   92 1    
   179   90  211 1    
   180   91  212 1    
   181   91  213 1    
   182   91  214 1    
   183   92   93 2    
   184   92   94 am   BACKBONE|DICT|INTERRES
   185   94   95 1    
   186   94  215 1    
   187   95   96 1    
   188   95   97 1    
   189   95  216 1    
   190   96  217 1    
   191   96  218 1    
   192   96  219 1    
   193   97   98 2    
   194   97   99 am   BACKBONE|DICT|INTERRES
   195   99  100 1    
   196   99  220 1    
   197  100  101 1    
   198  100  102 1    
   199  100  221 1    
   200  101  222 1    
   201  101  223 1    
   202  101  224 1    
   203  102  103 2    
   204  102  104 am   BACKBONE|DICT|INTERRES
   205  104  105 1    
   206  104  225 1    
   207  105  106 1    
   208  105  107 1    
   209  105  226 1    
   210  106  227 1    
   211  106  228 1    
   212  106  229 1    
   213  107  108 2    
   214  107  109 am   BACKBONE|DICT|INTERRES
   215  109  110 1    
   216  109  230 1    
   217  110  111 1    
   218  110  112 1    
   219  110  231 1    
   220  111  232 1    
   221  111  233 1    
   222  111  234 1    
   223  112  113 2    
   224  112  114 am   BACKBONE|DICT|INTERRES
   225  114  115 1    
   226  114  235 1    
   227  115  116 1    
   228  115  117 1    
   229  115  236 1    
   230  116  237 1    
   231  116  238 1    
   232  116  239 1    
   233  117  118 2    
   234  117  119 am   BACKBONE|DICT|INTERRES
   235  119  120 1    
   236  119  240 1    
   237  120  121 1    
   238  120  124 1    
   239  120  241 1    
   240  121  122 am   BACKBONE|DICT|INTERRES
   241  121  123 2    
   242  122  242 1    
   243  122  243 1    
   244  124  125 1    
   245  124  244 1    
   246  124  245 1    
   247  125  126 1    
   248  126  246 1    
   249  126  247 1    
@<TRIPOS>SUBSTRUCTURE
     1 UNK         1 GROUP             0       ****    0 ROOT    
