@<TRIPOS>MOLECULE
3R540
247   249    1
SMALL
USER_CHARGES


@<TRIPOS>ATOM
      1 CA          3.3206  -14.3307  -42.9815 C.3       0 UNK        -0.1800 
      2 C           2.5509  -13.5110  -44.0069 C.2       0 UNK         0.5000 
      3 O           1.3957  -13.1611  -43.7675 O.2       0 UNK        -0.5000 
      4 N           3.1899  -13.2041  -45.1420 N.am      1 UNK        -0.5000 
      5 CA          2.6534  -12.3469  -46.2107 C.3       1 UNK         0.1400 
      6 C6          3.0536  -12.8522  -47.6191 C.3       23 UNK        -0.0398 
      7 S7          2.3726  -14.4989  -48.0110 S.3       23 UNK        -0.2404 
      8 C8          3.7742  -15.2132  -48.9278 C.3       23 UNK        -0.0205 
      9 C9          3.3587  -16.4306  -49.7381 C.ar      23 UNK        -0.0193 
     10 C10         2.7585  -16.2610  -50.9893 C.ar      23 UNK        -0.1150 
     11 C11         2.3803  -17.3694  -51.7512 C.ar      23 UNK        -0.0193 
     12 C12         2.6255  -18.6526  -51.2601 C.ar      23 UNK        -0.1150 
     13 C13         3.2048  -18.8407  -50.0022 C.ar      23 UNK        -0.0193 
     14 C14         3.5798  -17.7224  -49.2500 C.ar      23 UNK        -0.1150 
     15 C15         3.4079  -20.2480  -49.4526 C.3       23 UNK        -0.0205 
     16 S16         1.8784  -21.2407  -49.5291 S.3       23 UNK        -0.2404 
     17 C17         2.3711  -22.7457  -48.6290 C.3       23 UNK        -0.0398 
     18 CA          1.2418  -23.4078  -47.8016 C.3       11 UNK         0.1400 
     19 N           0.7650  -22.5892  -46.6795 N.am      11 UNK        -0.5000 
     20 C           0.0970  -23.1074  -45.6367 C.2       10 UNK         0.5000 
     21 O          -0.1742  -24.3051  -45.5325 O.2       10 UNK        -0.5000 
     22 CA         -0.3726  -22.1385  -44.5376 C.3       10 UNK         0.1400 
     23 CB          0.8044  -21.6914  -43.6578 C.3       10 UNK        -0.1800 
     24 N          -1.0831  -20.9712  -45.0589 N.am      10 UNK        -0.5000 
     25 C          -2.2439  -21.0273  -45.7270 C.2       9 UNK         0.5000 
     26 O          -2.8336  -22.0743  -45.9848 O.2       9 UNK        -0.5000 
     27 CA         -2.8356  -19.6983  -46.2259 C.3       9 UNK         0.1400 
     28 CB         -3.5631  -18.9541  -45.0968 C.3       9 UNK        -0.1800 
     29 N          -1.8311  -18.8262  -46.8262 N.am      9 UNK        -0.5000 
     30 C          -1.1230  -19.1342  -47.9216 C.2       8 UNK         0.5000 
     31 O          -1.2982  -20.1542  -48.5856 O.2       8 UNK        -0.5000 
     32 CA          0.0066  -18.1649  -48.2991 C.3       8 UNK         0.1400 
     33 CB         -0.5442  -16.9471  -49.0544 C.3       8 UNK        -0.1800 
     34 N           0.7731  -17.7316  -47.1288 N.am      8 UNK        -0.5000 
     35 C           1.5019  -18.5454  -46.3483 C.2       7 UNK         0.5000 
     36 O           1.6496  -19.7504  -46.5496 O.2       7 UNK        -0.5000 
     37 CA          2.1199  -17.9185  -45.0869 C.3       7 UNK         0.1400 
     38 CB          3.4578  -17.2308  -45.3925 C.3       7 UNK        -0.1800 
     39 N           1.2049  -16.9745  -44.4456 N.am      7 UNK        -0.5000 
     40 C           0.0961  -17.3473  -43.7923 C.2       6 UNK         0.5000 
     41 O          -0.2442  -18.5195  -43.6390 O.2       6 UNK        -0.5000 
     42 CA         -0.8052  -16.2235  -43.2572 C.3       6 UNK         0.1400 
     43 CB         -0.3640  -15.7824  -41.8540 C.3       6 UNK        -0.1800 
     44 N          -0.8545  -15.0574  -44.1389 N.am      6 UNK        -0.5000 
     45 C          -1.4200  -15.0436  -45.3544 C.2       5 UNK         0.5000 
     46 O          -1.8726  -16.0508  -45.8989 O.2       5 UNK        -0.5000 
     47 CA         -1.5255  -13.6701  -46.0413 C.3       5 UNK         0.1400 
     48 CB         -2.6046  -13.6231  -47.1385 C.3       5 UNK        -0.1800 
     49 N          -1.8111  -12.6563  -45.0270 N.am      5 UNK        -0.5000 
     50 C          -1.2580  -11.4426  -44.9603 C.2       4 UNK         0.5000 
     51 O          -0.5383  -10.9770  -45.8461 O.2       4 UNK        -0.5000 
     52 CA         -1.5491  -10.6254  -43.6812 C.3       4 UNK         0.1400 
     53 CB         -1.6986  -11.5094  -42.4255 C.3       4 UNK        -0.1800 
     54 N          -0.4782   -9.6617  -43.4353 N.am      4 UNK        -0.5000 
     55 C          -0.4252   -8.4220  -43.9408 C.2       3 UNK         0.5000 
     56 O          -1.3366   -7.8963  -44.5812 O.2       3 UNK        -0.5000 
     57 CA          0.8854   -7.6574  -43.7156 C.3       3 UNK         0.1400 
     58 CB          0.9543   -7.0704  -42.2937 C.3       3 UNK        -0.1800 
     59 N           2.0256   -8.5374  -43.9695 N.am      3 UNK        -0.5000 
     60 C           3.2552   -8.1324  -44.3037 C.2       2 UNK         0.5000 
     61 O           3.5848   -6.9482  -44.3862 O.2       2 UNK        -0.5000 
     62 CA          4.3026   -9.2275  -44.5931 C.3       2 UNK         0.1400 
     63 CB          5.2632   -9.3745  -43.4024 C.3       2 UNK        -0.1800 
     64 N           3.7393  -10.5461  -44.9032 N.am      2 UNK        -0.5000 
     65 C           3.0694  -10.8662  -46.0213 C.2       1 UNK         0.5000 
     66 O           2.8020  -10.0425  -46.8968 O.2       1 UNK        -0.5000 
     67 C           0.0851  -23.9455  -48.6728 C.2       11 UNK         0.5000 
     68 O           0.1841  -25.0684  -49.1695 O.2       11 UNK        -0.5000 
     69 N          -1.0083  -23.1768  -48.7994 N.am      12 UNK        -0.5000 
     70 CA         -2.2422  -23.6236  -49.4422 C.3       12 UNK         0.1400 
     71 CB         -3.1965  -22.4440  -49.6525 C.3       12 UNK        -0.1800 
     72 C          -2.9322  -24.7436  -48.6483 C.2       12 UNK         0.5000 
     73 O          -3.2905  -25.7589  -49.2410 O.2       12 UNK        -0.5000 
     74 N          -3.0631  -24.5748  -47.3242 N.am      13 UNK        -0.5000 
     75 CA         -3.6517  -25.5623  -46.4160 C.3       13 UNK         0.1400 
     76 CB         -3.7650  -24.9753  -45.0017 C.3       13 UNK        -0.1800 
     77 C          -2.8787  -26.8923  -46.3912 C.2       13 UNK         0.5000 
     78 O          -3.5038  -27.9522  -46.3602 O.2       13 UNK        -0.5000 
     79 N          -1.5427  -26.8207  -46.4781 N.am      14 UNK        -0.5000 
     80 CA         -0.6526  -27.9766  -46.6202 C.3       14 UNK         0.1400 
     81 CB          0.8050  -27.5098  -46.4915 C.3       14 UNK        -0.1800 
     82 C          -0.8604  -28.7582  -47.9362 C.2       14 UNK         0.5000 
     83 O          -0.6153  -29.9644  -47.9671 O.2       14 UNK        -0.5000 
     84 N          -1.3325  -28.0695  -48.9836 N.am      15 UNK        -0.5000 
     85 CA         -1.7057  -28.6387  -50.2800 C.3       15 UNK         0.1400 
     86 CB         -1.3109  -27.6380  -51.3800 C.3       15 UNK        -0.1800 
     87 C          -3.2089  -28.9861  -50.3672 C.2       15 UNK         0.5000 
     88 O          -3.6528  -29.4526  -51.4172 O.2       15 UNK        -0.5000 
     89 N          -3.9638  -28.7461  -49.2828 N.am      16 UNK        -0.5000 
     90 CA         -5.4171  -28.8957  -49.1431 C.3       16 UNK         0.1400 
     91 CB         -5.8336  -30.3768  -49.2622 C.3       16 UNK        -0.1800 
     92 C          -6.2281  -27.9588  -50.0678 C.2       16 UNK         0.5000 
     93 O          -7.3254  -28.3182  -50.4996 O.2       16 UNK        -0.5000 
     94 N          -5.6808  -26.7703  -50.3453 N.am      17 UNK        -0.5000 
     95 CA         -6.2904  -25.7109  -51.1444 C.3       17 UNK         0.1400 
     96 CB         -5.2569  -25.2403  -52.1821 C.3       17 UNK        -0.1800 
     97 C          -6.7189  -24.5367  -50.2459 C.2       17 UNK         0.5000 
     98 O          -6.3023  -24.4489  -49.0880 O.2       17 UNK        -0.5000 
     99 N          -7.5306  -23.6339  -50.8088 N.am      18 UNK        -0.5000 
    100 CA        -7.8800  -22.3488  -50.2020 C.3       18 UNK         0.1400 
    101 CB        -9.1440  -21.8042  -50.8849 C.3       18 UNK        -0.1800 
    102 C         -6.7216  -21.3477  -50.3567 C.2       18 UNK         0.5000 
    103 O         -5.9885  -21.4187  -51.3450 O.2       18 UNK        -0.5000 
    104 N         -6.6033  -20.4032  -49.4124 N.am      19 UNK        -0.5000 
    105 CA        -5.5359  -19.3933  -49.3447 C.3       19 UNK         0.1400 
    106 CB        -5.7738  -18.4931  -48.1226 C.3       19 UNK        -0.1800 
    107 C         -5.3814  -18.5336  -50.6146 C.2       19 UNK         0.5000 
    108 O         -4.2637  -18.1486  -50.9578 O.2       19 UNK        -0.5000 
    109 N         -6.5011  -18.2962  -51.3118 N.am      20 UNK        -0.5000 
    110 CA        -6.5774  -17.5823  -52.5869 C.3       20 UNK         0.1400 
    111 CB        -8.0568  -17.3724  -52.9448 C.3       20 UNK        -0.1800 
    112 C         -5.8366  -18.2765  -53.7492 C.2       20 UNK         0.5000 
    113 O         -5.4868  -17.6018  -54.7186 O.2       20 UNK        -0.5000 
    114 N         -5.5990  -19.5933  -53.6434 N.am      21 UNK        -0.5000 
    115 CA        -4.8275  -20.3666  -54.6185 C.3       21 UNK         0.1400 
    116 CB        -5.1328  -21.8623  -54.4405 C.3       21 UNK        -0.1800 
    117 C         -3.3105  -20.1158  -54.5135 C.2       21 UNK         0.5000 
    118 O         -2.5982  -20.3544  -55.4893 O.2       21 UNK        -0.5000 
    119 N         -2.8446  -19.6408  -53.3475 N.am      22 UNK        -0.5000 
    120 CA        -1.4322  -19.3581  -53.0382 C.3       22 UNK         0.1400 
    121 C         -0.5206  -20.6269  -53.0426 C.2       22 UNK         0.5000 
    122 N         -1.0450  -21.8016  -52.7129 N.am      22 UNK        -0.7600 
    123 O          0.6626  -20.5643  -53.3605 O.2       22 UNK        -0.5000 
    124 C124       -0.8733  -18.1693  -53.8837 C.3       23 UNK        -0.0398 
    125 S125       -0.0900  -16.8743  -52.8623 S.3       23 UNK        -0.2404 
    126 C126        1.6901  -17.1832  -53.0927 C.3       23 UNK        -0.0205 
    127 H127        4.3455  -14.5206  -43.3010 H         1 UNK         0.0600 
    128 H128        2.8345  -15.2907  -42.8152 H         1 UNK         0.0600 
    129 H129        3.3556  -13.7991  -42.0307 H         1 UNK         0.0600 
    130 H130        4.1342  -13.5343  -45.2846 H         1 UNK         0.3000 
    131 H131        1.5656  -12.3649  -46.1658 H         1 UNK         0.0600 
    132 H132        2.6901  -12.1741  -48.3934 H         1 UNK         0.0800 
    133 H133        4.1405  -12.8680  -47.7151 H         1 UNK         0.0800 
    134 H134        4.5702  -15.4715  -48.2278 H         1 UNK         0.0800 
    135 H135        4.1891  -14.4633  -49.6033 H         1 UNK         0.0800 
    136 H136        2.5708  -15.2644  -51.3637 H         1 UNK         0.1150 
    137 H137        2.3386  -19.5137  -51.8440 H         1 UNK         0.1150 
    138 H138        4.0355  -17.8563  -48.2802 H         1 UNK         0.1150 
    139 H139        4.1926  -20.7463  -50.0229 H         1 UNK         0.0800 
    140 H140        3.7474  -20.2023  -48.4167 H         1 UNK         0.0800 
    141 H141        3.2012  -22.5060  -47.9636 H         1 UNK         0.0800 
    142 H142        2.7707  -23.4569  -49.3538 H         1 UNK         0.0800 
    143 H143        1.6994  -24.2933  -47.3542 H         1 UNK         0.0600 
    144 H144        0.9626  -21.5919  -46.7145 H         1 UNK         0.3000 
    145 H145       -1.0717  -22.6846  -43.9007 H         1 UNK         0.0600 
    146 H146        0.4614  -21.0858  -42.8189 H         1 UNK         0.0600 
    147 H147        1.3299  -22.5523  -43.2427 H         1 UNK         0.0600 
    148 H148        1.5304  -21.1046  -44.2196 H         1 UNK         0.0600 
    149 H149       -0.6812  -20.0638  -44.8479 H         1 UNK         0.3000 
    150 H150       -3.5647  -19.9409  -46.9991 H         1 UNK         0.0600 
    151 H151       -4.3547  -19.5716  -44.6708 H         1 UNK         0.0600 
    152 H152       -4.0254  -18.0370  -45.4623 H         1 UNK         0.0600 
    153 H153       -2.8848  -18.6852  -44.2874 H         1 UNK         0.0600 
    154 H154       -1.6659  -17.9329  -46.3715 H         1 UNK         0.3000 
    155 H155        0.6813  -18.6919  -48.9705 H         1 UNK         0.0600 
    156 H156       -1.2061  -16.3475  -48.4323 H         1 UNK         0.0600 
    157 H157       -1.1150  -17.2609  -49.9293 H         1 UNK         0.0600 
    158 H158        0.2612  -16.3044  -49.4082 H         1 UNK         0.0600 
    159 H159        0.6982  -16.7580  -46.8784 H         1 UNK         0.3000 
    160 H160        2.3212  -18.7290  -44.3831 H         1 UNK         0.0600 
    161 H161        3.3329  -16.3700  -46.0466 H         1 UNK         0.0600 
    162 H162        4.1469  -17.9208  -45.8805 H         1 UNK         0.0600 
    163 H163        3.9418  -16.8896  -44.4779 H         1 UNK         0.0600 
    164 H164        1.3942  -15.9904  -44.5556 H         1 UNK         0.3000 
    165 H165       -1.8171  -16.6268  -43.1800 H         1 UNK         0.0600 
    166 H166       -1.0653  -15.0633  -41.4303 H         1 UNK         0.0600 
    167 H167       -0.3198  -16.6328  -41.1723 H         1 UNK         0.0600 
    168 H168        0.6217  -15.3179  -41.8656 H         1 UNK         0.0600 
    169 H169       -0.4091  -14.2102  -43.8023 H         1 UNK         0.3000 
    170 H170       -0.5538  -13.4806  -46.5010 H         1 UNK         0.0600 
    171 H171       -2.3905  -14.3368  -47.9341 H         1 UNK         0.0600 
    172 H172       -3.5918  -13.8590  -46.7397 H         1 UNK         0.0600 
    173 H173       -2.6552  -12.6356  -47.5972 H         1 UNK         0.0600 
    174 H174       -2.3902  -12.9663  -44.2588 H         1 UNK         0.3000 
    175 H175       -2.4908  -10.0956  -43.8382 H         1 UNK         0.0600 
    176 H176       -0.8261  -12.1466  -42.2734 H         1 UNK         0.0600 
    177 H177       -1.8220  -10.8991  -41.5306 H         1 UNK         0.0600 
    178 H178       -2.5763  -12.1533  -42.4878 H         1 UNK         0.0600 
    179 H179        0.3043  -10.0053  -42.8999 H         1 UNK         0.3000 
    180 H180        0.9084   -6.8358  -44.4350 H         1 UNK         0.0600 
    181 H181        0.9821   -7.8534  -41.5352 H         1 UNK         0.0600 
    182 H182        0.0860   -6.4430  -42.0885 H         1 UNK         0.0600 
    183 H183        1.8399   -6.4484  -42.1640 H         1 UNK         0.0600 
    184 H184        1.8290   -9.5268  -44.0079 H         1 UNK         0.3000 
    185 H185        4.8817   -8.8981  -45.4583 H         1 UNK         0.0600 
    186 H186        5.7336   -8.4211  -43.1581 H         1 UNK         0.0600 
    187 H187        4.7446   -9.7229  -42.5083 H         1 UNK         0.0600 
    188 H188        6.0633  -10.0809  -43.6246 H         1 UNK         0.0600 
    189 H189        3.9193  -11.2803  -44.2346 H         1 UNK         0.3000 
    190 H190       -1.0052  -22.2368  -48.4174 H         1 UNK         0.3000 
    191 H191       -1.9833  -24.0226  -50.4252 H         1 UNK         0.0600 
    192 H192       -3.4895  -21.9907  -48.7057 H         1 UNK         0.0600 
    193 H193       -4.1044  -22.7783  -50.1519 H         1 UNK         0.0600 
    194 H194       -2.7483  -21.6698  -50.2744 H         1 UNK         0.0600 
    195 H195       -2.7821  -23.6910  -46.9054 H         1 UNK         0.3000 
    196 H196       -4.6604  -25.7755  -46.7765 H         1 UNK         0.0600 
    197 H197       -4.1940  -25.7005  -44.3092 H         1 UNK         0.0600 
    198 H198       -4.4108  -24.0972  -44.9918 H         1 UNK         0.0600 
    199 H199       -2.7915  -24.6800  -44.6092 H         1 UNK         0.0600 
    200 H200       -1.1036  -25.9062  -46.4420 H         1 UNK         0.3000 
    201 H201       -0.8645  -28.6609  -45.7963 H         1 UNK         0.0600 
    202 H202        0.9762  -27.0065  -45.5397 H         1 UNK         0.0600 
    203 H203        1.0776  -26.8190  -47.2893 H         1 UNK         0.0600 
    204 H204        1.4919  -28.3555  -46.5410 H         1 UNK         0.0600 
    205 H205       -1.5177  -27.0803  -48.8706 H         1 UNK         0.3000 
    206 H206       -1.1494  -29.5625  -50.4500 H         1 UNK         0.0600 
    207 H207       -0.2502  -27.3919  -51.3264 H         1 UNK         0.0600 
    208 H208       -1.4987  -28.0500  -52.3721 H         1 UNK         0.0600 
    209 H209       -1.8728  -26.7070  -51.3007 H         1 UNK         0.0600 
    210 H210       -3.4997  -28.3600  -48.4700 H         1 UNK         0.3000 
    211 H211       -5.6495  -28.5760  -48.1265 H         1 UNK         0.0600 
    212 H212       -5.7011  -30.7561  -50.2757 H         1 UNK         0.0600 
    213 H213       -6.8836  -30.5101  -48.9993 H         1 UNK         0.0600 
    214 H214       -5.2505  -31.0052  -48.5890 H         1 UNK         0.0600 
    215 H215       -4.7995  -26.5192  -49.8996 H         1 UNK         0.3000 
    216 H216       -7.1722  -26.0832  -51.6696 H         1 UNK         0.0600 
    217 H217       -5.6767  -24.4789  -52.8400 H         1 UNK         0.0600 
    218 H218       -4.9284  -26.0670  -52.8122 H         1 UNK         0.0600 
    219 H219       -4.3731  -24.8131  -51.7070 H         1 UNK         0.0600 
    220 H220       -7.7947  -23.7521  -51.7758 H         1 UNK         0.3000 
    221 H221       -8.0870  -22.4964  -49.1398 H         1 UNK         0.0600 
    222 H222       -8.9830  -21.6265  -51.9492 H         1 UNK         0.0600 
    223 H223       -9.9773  -22.4997  -50.7833 H         1 UNK         0.0600 
    224 H224       -9.4552  -20.8592  -50.4380 H         1 UNK         0.0600 
    225 H225       -7.2634  -20.4000  -48.6481 H         1 UNK         0.3000 
    226 H226       -4.5933  -19.9230  -49.2022 H         1 UNK         0.0600 
    227 H227       -5.8428  -19.0771  -47.2050 H         1 UNK         0.0600 
    228 H228       -4.9545  -17.7836  -47.9958 H         1 UNK         0.0600 
    229 H229       -6.6950  -17.9173  -48.2207 H         1 UNK         0.0600 
    230 H230       -7.3676  -18.6692  -50.9536 H         1 UNK         0.3000 
    231 H231       -6.1152  -16.6029  -52.4470 H         1 UNK         0.0600 
    232 H232       -8.5743  -16.8052  -52.1709 H         1 UNK         0.0600 
    233 H233       -8.5777  -18.3224  -53.0719 H         1 UNK         0.0600 
    234 H234       -8.1591  -16.8147  -53.8767 H         1 UNK         0.0600 
    235 H235       -5.8915  -20.0911  -52.8076 H         1 UNK         0.3000 
    236 H236       -5.1458  -20.0745  -55.6215 H         1 UNK         0.0600 
    237 H237       -4.6727  -22.4495  -55.2361 H         1 UNK         0.0600 
    238 H238       -4.7467  -22.2416  -53.4942 H         1 UNK         0.0600 
    239 H239       -6.2050  -22.0567  -54.4696 H         1 UNK         0.0600 
    240 H240       -3.5040  -19.4328  -52.6080 H         1 UNK         0.3000 
    241 H241       -1.4491  -19.0507  -51.9917 H         1 UNK         0.0600 
    242 H242       -0.4564  -22.6184  -52.7222 H         1 UNK         0.3800 
    243 H243       -2.0189  -21.8794  -52.4743 H         1 UNK         0.3800 
    244 H244       -1.6861  -17.6677  -54.4108 H         1 UNK         0.0800 
    245 H245       -0.2010  -18.5019  -54.6758 H         1 UNK         0.0800 
    246 H246        1.8545  -18.0587  -53.7220 H         1 UNK         0.0800 
    247 H247        2.1328  -16.3392  -53.6234 H         1 UNK         0.0800 
@<TRIPOS>BOND
     1    1    2 1    
     2    1  127 1    
     3    1  128 1    
     4    1  129 1    
     5    2    3 2    
     6    2    4 am   BACKBONE|DICT|INTERRES
     7    4    5 1    
     8    4  130 1    
     9    5    6 1    
    10    5   65 1    
    11    5  131 1    
    12    6    7 1    
    13    6  132 1    
    14    6  133 1    
    15    7    8 1    
    16    8    9 1    
    17    8  134 1    
    18    8  135 1    
    19    9   10 ar   
    20    9   14 ar   
    21   10   11 ar   
    22   10  136 1    
    23   11   12 ar   
    24   11  126 1    
    25   12   13 ar   
    26   12  137 1    
    27   13   14 ar   
    28   13   15 1    
    29   14  138 1    
    30   15   16 1    
    31   15  139 1    
    32   15  140 1    
    33   16   17 1    
    34   17   18 1    
    35   17  141 1    
    36   17  142 1    
    37   18   19 1    
    38   18   67 1    
    39   18  143 1    
    40   19   20 am   BACKBONE|DICT|INTERRES
    41   19  144 1    
    42   20   21 2    
    43   20   22 1    
    44   22   23 1    
    45   22   24 1    
    46   22  145 1    
    47   23  146 1    
    48   23  147 1    
    49   23  148 1    
    50   24   25 am   BACKBONE|DICT|INTERRES
    51   24  149 1    
    52   25   26 2    
    53   25   27 1    
    54   27   28 1    
    55   27   29 1    
    56   27  150 1    
    57   28  151 1    
    58   28  152 1    
    59   28  153 1    
    60   29   30 am   BACKBONE|DICT|INTERRES
    61   29  154 1    
    62   30   31 2    
    63   30   32 1    
    64   32   33 1    
    65   32   34 1    
    66   32  155 1    
    67   33  156 1    
    68   33  157 1    
    69   33  158 1    
    70   34   35 am   BACKBONE|DICT|INTERRES
    71   34  159 1    
    72   35   36 2    
    73   35   37 1    
    74   37   38 1    
    75   37   39 1    
    76   37  160 1    
    77   38  161 1    
    78   38  162 1    
    79   38  163 1    
    80   39   40 am   BACKBONE|DICT|INTERRES
    81   39  164 1    
    82   40   41 2    
    83   40   42 1    
    84   42   43 1    
    85   42   44 1    
    86   42  165 1    
    87   43  166 1    
    88   43  167 1    
    89   43  168 1    
    90   44   45 am   BACKBONE|DICT|INTERRES
    91   44  169 1    
    92   45   46 2    
    93   45   47 1    
    94   47   48 1    
    95   47   49 1    
    96   47  170 1    
    97   48  171 1    
    98   48  172 1    
    99   48  173 1    
   100   49   50 am   BACKBONE|DICT|INTERRES
   101   49  174 1    
   102   50   51 2    
   103   50   52 1    
   104   52   53 1    
   105   52   54 1    
   106   52  175 1    
   107   53  176 1    
   108   53  177 1    
   109   53  178 1    
   110   54   55 am   BACKBONE|DICT|INTERRES
   111   54  179 1    
   112   55   56 2    
   113   55   57 1    
   114   57   58 1    
   115   57   59 1    
   116   57  180 1    
   117   58  181 1    
   118   58  182 1    
   119   58  183 1    
   120   59   60 am   BACKBONE|DICT|INTERRES
   121   59  184 1    
   122   60   61 2    
   123   60   62 1    
   124   62   63 1    
   125   62   64 1    
   126   62  185 1    
   127   63  186 1    
   128   63  187 1    
   129   63  188 1    
   130   64   65 am   BACKBONE|DICT|INTERRES
   131   64  189 1    
   132   65   66 2    
   133   67   68 2    
   134   67   69 am   BACKBONE|DICT|INTERRES
   135   69   70 1    
   136   69  190 1    
   137   70   71 1    
   138   70   72 1    
   139   70  191 1    
   140   71  192 1    
   141   71  193 1    
   142   71  194 1    
   143   72   73 2    
   144   72   74 am   BACKBONE|DICT|INTERRES
   145   74   75 1    
   146   74  195 1    
   147   75   76 1    
   148   75   77 1    
   149   75  196 1    
   150   76  197 1    
   151   76  198 1    
   152   76  199 1    
   153   77   78 2    
   154   77   79 am   BACKBONE|DICT|INTERRES
   155   79   80 1    
   156   79  200 1    
   157   80   81 1    
   158   80   82 1    
   159   80  201 1    
   160   81  202 1    
   161   81  203 1    
   162   81  204 1    
   163   82   83 2    
   164   82   84 am   BACKBONE|DICT|INTERRES
   165   84   85 1    
   166   84  205 1    
   167   85   86 1    
   168   85   87 1    
   169   85  206 1    
   170   86  207 1    
   171   86  208 1    
   172   86  209 1    
   173   87   88 2    
   174   87   89 am   BACKBONE|DICT|INTERRES
   175   89   90 1    
   176   89  210 1    
   177   90   91 1    
   178   90   92 1    
   179   90  211 1    
   180   91  212 1    
   181   91  213 1    
   182   91  214 1    
   183   92   93 2    
   184   92   94 am   BACKBONE|DICT|INTERRES
   185   94   95 1    
   186   94  215 1    
   187   95   96 1    
   188   95   97 1    
   189   95  216 1    
   190   96  217 1    
   191   96  218 1    
   192   96  219 1    
   193   97   98 2    
   194   97   99 am   BACKBONE|DICT|INTERRES
   195   99  100 1    
   196   99  220 1    
   197  100  101 1    
   198  100  102 1    
   199  100  221 1    
   200  101  222 1    
   201  101  223 1    
   202  101  224 1    
   203  102  103 2    
   204  102  104 am   BACKBONE|DICT|INTERRES
   205  104  105 1    
   206  104  225 1    
   207  105  106 1    
   208  105  107 1    
   209  105  226 1    
   210  106  227 1    
   211  106  228 1    
   212  106  229 1    
   213  107  108 2    
   214  107  109 am   BACKBONE|DICT|INTERRES
   215  109  110 1    
   216  109  230 1    
   217  110  111 1    
   218  110  112 1    
   219  110  231 1    
   220  111  232 1    
   221  111  233 1    
   222  111  234 1    
   223  112  113 2    
   224  112  114 am   BACKBONE|DICT|INTERRES
   225  114  115 1    
   226  114  235 1    
   227  115  116 1    
   228  115  117 1    
   229  115  236 1    
   230  116  237 1    
   231  116  238 1    
   232  116  239 1    
   233  117  118 2    
   234  117  119 am   BACKBONE|DICT|INTERRES
   235  119  120 1    
   236  119  240 1    
   237  120  121 1    
   238  120  124 1    
   239  120  241 1    
   240  121  122 am   BACKBONE|DICT|INTERRES
   241  121  123 2    
   242  122  242 1    
   243  122  243 1    
   244  124  125 1    
   245  124  244 1    
   246  124  245 1    
   247  125  126 1    
   248  126  246 1    
   249  126  247 1    
@<TRIPOS>SUBSTRUCTURE
     1 UNK         1 GROUP             0       ****    0 ROOT    
