@<TRIPOS>MOLECULE
3R540
247   249    1
SMALL
USER_CHARGES


@<TRIPOS>ATOM
      1 CA         -0.8624   -9.8374  -48.6795 C.3       0 UNK        -0.1800 
      2 C           0.4038  -10.2726  -47.9561 C.2       0 UNK         0.5000 
      3 O           0.9523   -9.5083  -47.1625 O.2       0 UNK        -0.5000 
      4 N           0.8631  -11.5034  -48.2153 N.am      1 UNK        -0.5000 
      5 CA          2.0661  -12.0995  -47.6179 C.3       1 UNK         0.1400 
      6 C6          2.7122  -13.1533  -48.5539 C.3       23 UNK        -0.0398 
      7 S7          1.6661  -14.6096  -48.9102 S.3       23 UNK        -0.2404 
      8 C8          1.1568  -14.3065  -50.6313 C.3       23 UNK        -0.0205 
      9 C9          0.4328  -15.5173  -51.2004 C.ar      23 UNK        -0.0193 
     10 C10         1.0537  -16.3310  -52.1548 C.ar      23 UNK        -0.1150 
     11 C11         0.3993  -17.4614  -52.6538 C.ar      23 UNK        -0.0193 
     12 C12        -0.8784  -17.7770  -52.1871 C.ar      23 UNK        -0.1150 
     13 C13        -1.5023  -16.9840  -51.2234 C.ar      23 UNK        -0.0193 
     14 C14        -0.8517  -15.8404  -50.7509 C.ar      23 UNK        -0.1150 
     15 C15        -2.8594  -17.3972  -50.6723 C.3       23 UNK        -0.0205 
     16 S16        -2.8260  -17.6742  -48.8731 S.3       23 UNK        -0.2404 
     17 C17        -1.4813  -18.9071  -48.6905 C.3       23 UNK        -0.0398 
     18 CA         -1.8528  -20.1280  -47.8150 C.3       11 UNK         0.1400 
     19 N          -2.4495  -19.7330  -46.5321 N.am      11 UNK        -0.5000 
     20 C          -2.8745  -20.5481  -45.5572 C.2       10 UNK         0.5000 
     21 O          -2.9014  -21.7749  -45.6654 O.2       10 UNK        -0.5000 
     22 CA         -3.3508  -19.8866  -44.2475 C.3       10 UNK         0.1400 
     23 CB         -3.3046  -20.8633  -43.0587 C.3       10 UNK        -0.1800 
     24 N          -2.5524  -18.7067  -43.9141 N.am      10 UNK        -0.5000 
     25 C          -2.8340  -17.4463  -44.2655 C.2       9 UNK         0.5000 
     26 O          -3.8303  -17.1243  -44.9119 O.2       9 UNK        -0.5000 
     27 CA         -1.8010  -16.3770  -43.8687 C.3       9 UNK         0.1400 
     28 CB         -1.9249  -16.0047  -42.3834 C.3       9 UNK        -0.1800 
     29 N          -0.4332  -16.8103  -44.1547 N.am      9 UNK        -0.5000 
     30 C           0.0852  -16.9056  -45.3880 C.2       8 UNK         0.5000 
     31 O          -0.5115  -16.5474  -46.4005 O.2       8 UNK        -0.5000 
     32 CA          1.4914  -17.5187  -45.5158 C.3       8 UNK         0.1400 
     33 CB          2.5786  -16.4348  -45.4585 C.3       8 UNK        -0.1800 
     34 N           1.7359  -18.5122  -44.4706 N.am      8 UNK        -0.5000 
     35 C           1.3007  -19.7792  -44.5260 C.2       7 UNK         0.5000 
     36 O           0.7349  -20.2595  -45.5058 O.2       7 UNK        -0.5000 
     37 CA          1.5175  -20.6581  -43.2781 C.3       7 UNK         0.1400 
     38 CB          2.7924  -21.5007  -43.4304 C.3       7 UNK        -0.1800 
     39 N           1.5974  -19.8879  -42.0347 N.am      7 UNK        -0.5000 
     40 C           0.5675  -19.2342  -41.4786 C.2       6 UNK         0.5000 
     41 O          -0.5740  -19.2542  -41.9346 O.2       6 UNK        -0.5000 
     42 CA          0.8800  -18.3572  -40.2498 C.3       6 UNK         0.1400 
     43 CB          0.7413  -19.1723  -38.9560 C.3       6 UNK        -0.1800 
     44 N           2.2132  -17.7476  -40.3027 N.am      6 UNK        -0.5000 
     45 C           2.6176  -16.8929  -41.2514 C.2       5 UNK         0.5000 
     46 O           1.8949  -16.5051  -42.1722 O.2       5 UNK        -0.5000 
     47 CA          4.0950  -16.4856  -41.2172 C.3       5 UNK         0.1400 
     48 CB          4.9558  -17.6351  -41.7845 C.3       5 UNK        -0.1800 
     49 N           4.2822  -15.2714  -42.0081 N.am      5 UNK        -0.5000 
     50 C           5.4078  -14.5488  -42.0647 C.2       4 UNK         0.5000 
     51 O           6.4130  -14.7933  -41.3957 O.2       4 UNK        -0.5000 
     52 CA          5.4258  -13.3545  -43.0348 C.3       4 UNK         0.1400 
     53 CB          5.7357  -13.8303  -44.4629 C.3       4 UNK        -0.1800 
     54 N           4.1826  -12.5821  -43.0329 N.am      4 UNK        -0.5000 
     55 C           3.7951  -11.7819  -42.0270 C.2       3 UNK         0.5000 
     56 O           4.4313  -11.6550  -40.9797 O.2       3 UNK        -0.5000 
     57 CA          2.5039  -10.9565  -42.2149 C.3       3 UNK         0.1400 
     58 CB          2.8462   -9.4975  -42.5549 C.3       3 UNK        -0.1800 
     59 N           1.6146  -11.4795  -43.2506 N.am      3 UNK        -0.5000 
     60 C           0.9088  -12.6118  -43.1470 C.2       2 UNK         0.5000 
     61 O           0.8723  -13.2956  -42.1248 O.2       2 UNK        -0.5000 
     62 CA          0.1212  -13.0679  -44.3915 C.3       2 UNK         0.1400 
     63 CB         -1.3632  -12.6998  -44.2417 C.3       2 UNK        -0.1800 
     64 N           0.5965  -12.5501  -45.6796 N.am      2 UNK        -0.5000 
     65 C           1.8357  -12.6411  -46.1861 C.2       1 UNK         0.5000 
     66 O           2.7857  -13.1124  -45.5622 O.2       1 UNK        -0.5000 
     67 C          -2.6753  -21.1615  -48.6095 C.2       11 UNK         0.5000 
     68 O          -2.1004  -22.1134  -49.1371 O.2       11 UNK        -0.5000 
     69 N          -4.0036  -20.9877  -48.6284 N.am      12 UNK        -0.5000 
     70 CA         -4.9552  -21.8780  -49.2936 C.3       12 UNK         0.1400 
     71 CB         -6.3597  -21.2648  -49.1919 C.3       12 UNK        -0.1800 
     72 C          -4.9606  -23.3108  -48.7298 C.2       12 UNK         0.5000 
     73 O          -5.1593  -24.2592  -49.4915 O.2       12 UNK        -0.5000 
     74 N          -4.7356  -23.4363  -47.4156 N.am      13 UNK        -0.5000 
     75 CA         -4.6465  -24.7089  -46.7062 C.3       13 UNK         0.1400 
     76 CB         -5.1280  -24.5201  -45.2594 C.3       13 UNK        -0.1800 
     77 C          -3.2141  -25.2637  -46.7339 C.2       13 UNK         0.5000 
     78 O          -3.0403  -26.4672  -46.9200 O.2       13 UNK        -0.5000 
     79 N          -2.2166  -24.3820  -46.5723 N.am      14 UNK        -0.5000 
     80 CA         -0.7918  -24.7190  -46.5506 C.3       14 UNK         0.1400 
     81 CB          0.0196  -23.4915  -46.1119 C.3       14 UNK        -0.1800 
     82 C          -0.2785  -25.2644  -47.8955 C.2       14 UNK         0.5000 
     83 O           0.4696  -26.2426  -47.9049 O.2       14 UNK        -0.5000 
     84 N          -0.7156  -24.6522  -49.0053 N.am      15 UNK        -0.5000 
     85 CA         -0.4443  -25.1282  -50.3646 C.3       15 UNK         0.1400 
     86 CB         -0.5579  -23.9489  -51.3433 C.3       15 UNK        -0.1800 
     87 C          -1.3914  -26.2659  -50.7958 C.2       15 UNK         0.5000 
     88 O          -1.1296  -26.9125  -51.8104 O.2       15 UNK        -0.5000 
     89 N          -2.4821  -26.4658  -50.0388 N.am      16 UNK        -0.5000 
     90 CA         -3.5883  -27.4011  -50.2765 C.3       16 UNK         0.1400 
     91 CB         -3.1054  -28.8625  -50.1763 C.3       16 UNK        -0.1800 
     92 C          -4.3614  -27.1071  -51.5809 C.2       16 UNK         0.5000 
     93 O          -4.9445  -28.0150  -52.1761 O.2       16 UNK        -0.5000 
     94 N          -4.3512  -25.8353  -51.9997 N.am      17 UNK        -0.5000 
     95 CA         -5.0216  -25.3388  -53.1977 C.3       17 UNK         0.1400 
     96 CB         -4.3697  -24.0100  -53.6125 C.3       17 UNK        -0.1800 
     97 C          -6.5339  -25.1485  -52.9916 C.2       17 UNK         0.5000 
     98 O          -7.2845  -25.2338  -53.9640 O.2       17 UNK        -0.5000 
     99 N          -6.9444  -24.8678  -51.7426 N.am      18 UNK        -0.5000 
    100 CA        -8.3093  -24.5278  -51.3140 C.3       18 UNK         0.1400 
    101 CB        -9.2566  -25.7337  -51.4805 C.3       18 UNK        -0.1800 
    102 C         -8.8519  -23.2387  -51.9758 C.2       18 UNK         0.5000 
    103 O        -10.0645  -23.0683  -52.1127 O.2       18 UNK        -0.5000 
    104 N         -7.9318  -22.3519  -52.3648 N.am      19 UNK        -0.5000 
    105 CA        -8.1420  -21.0732  -53.0264 C.3       19 UNK         0.1400 
    106 CB        -8.4409  -21.2995  -54.5199 C.3       19 UNK        -0.1800 
    107 C         -6.8608  -20.2487  -52.8357 C.2       19 UNK         0.5000 
    108 O         -5.8392  -20.7975  -52.4113 O.2       19 UNK        -0.5000 
    109 N         -6.9232  -18.9510  -53.1533 N.am      20 UNK        -0.5000 
    110 CA        -5.8104  -18.0057  -53.0400 C.3       20 UNK         0.1400 
    111 CB        -6.3767  -16.5751  -52.9989 C.3       20 UNK        -0.1800 
    112 C         -4.7609  -18.1994  -54.1579 C.2       20 UNK         0.5000 
    113 O         -4.6103  -17.3369  -55.0252 O.2       20 UNK        -0.5000 
    114 N         -4.0729  -19.3438  -54.1310 N.am      21 UNK        -0.5000 
    115 CA        -3.0558  -19.7600  -55.0885 C.3       21 UNK         0.1400 
    116 CB        -3.7360  -20.4199  -56.3017 C.3       21 UNK        -0.1800 
    117 C         -2.0805  -20.7315  -54.4076 C.2       21 UNK         0.5000 
    118 O         -2.4057  -21.2950  -53.3605 O.2       21 UNK        -0.5000 
    119 N         -0.9083  -20.9072  -55.0258 N.am      22 UNK        -0.5000 
    120 CA         0.1633  -21.8171  -54.5805 C.3       22 UNK         0.1400 
    121 C          0.3160  -23.0715  -55.4917 C.2       22 UNK         0.5000 
    122 N         -0.5428  -23.2897  -56.4808 N.am      22 UNK        -0.7600 
    123 O          1.2198  -23.8775  -55.2895 O.2       22 UNK        -0.5000 
    124 C124        1.5105  -21.0631  -54.4027 C.3       23 UNK        -0.0398 
    125 S125        1.4925  -19.9704  -52.9427 S.3       23 UNK        -0.2404 
    126 C126        1.0634  -18.3632  -53.6813 C.3       23 UNK        -0.0205 
    127 H127       -1.6439   -9.5991  -47.9580 H         1 UNK         0.0600 
    128 H128       -0.6655   -8.9473  -49.2769 H         1 UNK         0.0600 
    129 H129       -1.2384  -10.6162  -49.3437 H         1 UNK         0.0600 
    130 H130        0.3599  -12.0982  -48.8577 H         1 UNK         0.3000 
    131 H131        2.8042  -11.3024  -47.5048 H         1 UNK         0.0600 
    132 H132        3.6477  -13.5132  -48.1218 H         1 UNK         0.0800 
    133 H133        2.9980  -12.6766  -49.4922 H         1 UNK         0.0800 
    134 H134        2.0348  -14.0715  -51.2349 H         1 UNK         0.0800 
    135 H135        0.5034  -13.4345  -50.6763 H         1 UNK         0.0800 
    136 H136        2.0495  -16.0915  -52.5004 H         1 UNK         0.1150 
    137 H137       -1.3723  -18.6653  -52.5521 H         1 UNK         0.1150 
    138 H138       -1.3262  -15.2274  -49.9973 H         1 UNK         0.1150 
    139 H139       -3.5928  -16.6239  -50.9037 H         1 UNK         0.0800 
    140 H140       -3.2034  -18.3156  -51.1497 H         1 UNK         0.0800 
    141 H141       -0.6280  -18.3941  -48.2472 H         1 UNK         0.0800 
    142 H142       -1.1313  -19.2371  -49.6702 H         1 UNK         0.0800 
    143 H143       -0.9167  -20.6278  -47.5644 H         1 UNK         0.0600 
    144 H144       -2.4942  -18.7367  -46.3680 H         1 UNK         0.3000 
    145 H145       -4.3920  -19.5943  -44.3967 H         1 UNK         0.0600 
    146 H146       -3.6222  -20.3775  -42.1360 H         1 UNK         0.0600 
    147 H147       -3.9674  -21.7140  -43.2210 H         1 UNK         0.0600 
    148 H148       -2.2986  -21.2545  -42.9012 H         1 UNK         0.0600 
    149 H149       -1.7227  -18.8801  -43.3509 H         1 UNK         0.3000 
    150 H150       -2.0080  -15.4843  -44.4605 H         1 UNK         0.0600 
    151 H151       -2.9086  -15.5852  -42.1701 H         1 UNK         0.0600 
    152 H152       -1.1828  -15.2584  -42.0992 H         1 UNK         0.0600 
    153 H153       -1.7913  -16.8695  -41.7339 H         1 UNK         0.0600 
    154 H154        0.1454  -17.0649  -43.3643 H         1 UNK         0.3000 
    155 H155        1.5581  -18.0055  -46.4913 H         1 UNK         0.0600 
    156 H156        2.4946  -15.8116  -44.5691 H         1 UNK         0.0600 
    157 H157        2.5036  -15.7724  -46.3198 H         1 UNK         0.0600 
    158 H158        3.5779  -16.8699  -45.4725 H         1 UNK         0.0600 
    159 H159        2.1493  -18.1697  -43.6147 H         1 UNK         0.3000 
    160 H160        0.6652  -21.3373  -43.2046 H         1 UNK         0.0600 
    161 H161        2.9173  -22.1831  -42.5894 H         1 UNK         0.0600 
    162 H162        3.6837  -20.8751  -43.4924 H         1 UNK         0.0600 
    163 H163        2.7526  -22.1074  -44.3362 H         1 UNK         0.0600 
    164 H164        2.5031  -19.8247  -41.5946 H         1 UNK         0.3000 
    165 H165        0.1451  -17.5500  -40.2261 H         1 UNK         0.0600 
    166 H166        0.8782  -18.5428  -38.0765 H         1 UNK         0.0600 
    167 H167       -0.2506  -19.6202  -38.8818 H         1 UNK         0.0600 
    168 H168        1.4714  -19.9812  -38.9081 H         1 UNK         0.0600 
    169 H169        2.8654  -18.0302  -39.5851 H         1 UNK         0.3000 
    170 H170        4.3771  -16.2819  -40.1824 H         1 UNK         0.0600 
    171 H171        4.7927  -18.5628  -41.2350 H         1 UNK         0.0600 
    172 H172        4.7233  -17.8289  -42.8327 H         1 UNK         0.0600 
    173 H173        6.0207  -17.4148  -41.7165 H         1 UNK         0.0600 
    174 H174        3.4712  -14.9911  -42.5459 H         1 UNK         0.3000 
    175 H175        6.2341  -12.6887  -42.7247 H         1 UNK         0.0600 
    176 H176        4.9766  -14.5209  -44.8319 H         1 UNK         0.0600 
    177 H177        5.7902  -12.9912  -45.1566 H         1 UNK         0.0600 
    178 H178        6.6947  -14.3483  -44.5016 H         1 UNK         0.0600 
    179 H179        3.6051  -12.6541  -43.8662 H         1 UNK         0.3000 
    180 H180        1.9669  -10.9684  -41.2641 H         1 UNK         0.0600 
    181 H181        3.3740   -9.4198  -43.5063 H         1 UNK         0.0600 
    182 H182        3.4844   -9.0559  -41.7883 H         1 UNK         0.0600 
    183 H183        1.9465   -8.8851  -42.6183 H         1 UNK         0.0600 
    184 H184        1.5906  -10.9796  -44.1275 H         1 UNK         0.3000 
    185 H185        0.2099  -14.1523  -44.4340 H         1 UNK         0.0600 
    186 H186       -1.7754  -13.0914  -43.3110 H         1 UNK         0.0600 
    187 H187       -1.5076  -11.6187  -44.2329 H         1 UNK         0.0600 
    188 H188       -1.9579  -13.1100  -45.0581 H         1 UNK         0.0600 
    189 H189       -0.1050  -12.1291  -46.2701 H         1 UNK         0.3000 
    190 H190       -4.3847  -20.1772  -48.1624 H         1 UNK         0.3000 
    191 H191       -4.6720  -21.9419  -50.3458 H         1 UNK         0.0600 
    192 H192       -6.6700  -21.1384  -48.1540 H         1 UNK         0.0600 
    193 H193       -7.1010  -21.8980  -49.6789 H         1 UNK         0.0600 
    194 H194       -6.3991  -20.2882  -49.6747 H         1 UNK         0.0600 
    195 H195       -4.5058  -22.6081  -46.8815 H         1 UNK         0.3000 
    196 H196       -5.3017  -25.4391  -47.1865 H         1 UNK         0.0600 
    197 H197       -5.0943  -25.4628  -44.7118 H         1 UNK         0.0600 
    198 H198       -6.1580  -24.1644  -45.2312 H         1 UNK         0.0600 
    199 H199       -4.5114  -23.8033  -44.7162 H         1 UNK         0.0600 
    200 H200       -2.4534  -23.4113  -46.3795 H         1 UNK         0.3000 
    201 H201       -0.6507  -25.5005  -45.8011 H         1 UNK         0.0600 
    202 H202       -0.3115  -23.1221  -45.1411 H         1 UNK         0.0600 
    203 H203       -0.0724  -22.6749  -46.8273 H         1 UNK         0.0600 
    204 H204        1.0797  -23.7324  -46.0249 H         1 UNK         0.0600 
    205 H205       -1.2941  -23.8184  -48.9248 H         1 UNK         0.3000 
    206 H206        0.5774  -25.5104  -50.4131 H         1 UNK         0.0600 
    207 H207        0.1115  -23.1346  -51.0651 H         1 UNK         0.0600 
    208 H208       -0.2911  -24.2601  -52.3539 H         1 UNK         0.0600 
    209 H209       -1.5723  -23.5495  -51.3830 H         1 UNK         0.0600 
    210 H210       -2.5738  -25.8983  -49.2081 H         1 UNK         0.3000 
    211 H211       -4.2995  -27.2346  -49.4661 H         1 UNK         0.0600 
    212 H212       -2.4411  -29.1282  -50.9989 H         1 UNK         0.0600 
    213 H213       -3.9473  -29.5553  -50.1996 H         1 UNK         0.0600 
    214 H214       -2.5707  -29.0356  -49.2423 H         1 UNK         0.0600 
    215 H215       -3.8862  -25.1513  -51.4203 H         1 UNK         0.3000 
    216 H216       -4.8798  -26.0587  -54.0065 H         1 UNK         0.0600 
    217 H217       -4.8392  -23.6035  -54.5092 H         1 UNK         0.0600 
    218 H218       -3.3096  -24.1405  -53.8323 H         1 UNK         0.0600 
    219 H219       -4.4554  -23.2557  -52.8290 H         1 UNK         0.0600 
    220 H220       -6.2375  -24.8116  -51.0137 H         1 UNK         0.3000 
    221 H221       -8.2414  -24.3101  -50.2472 H         1 UNK         0.0600 
    222 H222       -9.4375  -25.9663  -52.5301 H         1 UNK         0.0600 
    223 H223       -8.8468  -26.6248  -51.0049 H         1 UNK         0.0600 
    224 H224      -10.2248  -25.5371  -51.0189 H         1 UNK         0.0600 
    225 H225       -6.9550  -22.5409  -52.1767 H         1 UNK         0.3000 
    226 H226       -8.9723  -20.5491  -52.5491 H         1 UNK         0.0600 
    227 H227       -7.6206  -21.8197  -55.0166 H         1 UNK         0.0600 
    228 H228       -9.3439  -21.8943  -54.6580 H         1 UNK         0.0600 
    229 H229       -8.5955  -20.3541  -55.0407 H         1 UNK         0.0600 
    230 H230       -7.7852  -18.5797  -53.5257 H         1 UNK         0.3000 
    231 H231       -5.3117  -18.1842  -52.0868 H         1 UNK         0.0600 
    232 H232       -7.0532  -16.4434  -52.1543 H         1 UNK         0.0600 
    233 H233       -6.9252  -16.3310  -53.9095 H         1 UNK         0.0600 
    234 H234       -5.5768  -15.8416  -52.8891 H         1 UNK         0.0600 
    235 H235       -4.2669  -20.0198  -53.3954 H         1 UNK         0.3000 
    236 H236       -2.4893  -18.8851  -55.4148 H         1 UNK         0.0600 
    237 H237       -3.0030  -20.7327  -57.0458 H         1 UNK         0.0600 
    238 H238       -4.3068  -21.3020  -56.0080 H         1 UNK         0.0600 
    239 H239       -4.4203  -19.7298  -56.7954 H         1 UNK         0.0600 
    240 H240       -0.7309  -20.4183  -55.8914 H         1 UNK         0.3000 
    241 H241       -0.1019  -22.2292  -53.6067 H         1 UNK         0.0600 
    242 H242       -0.4333  -24.1098  -57.0566 H         1 UNK         0.3800 
    243 H243       -1.3104  -22.6607  -56.6485 H         1 UNK         0.3800 
    244 H244        2.3324  -21.7639  -54.2473 H         1 UNK         0.0800 
    245 H245        1.7655  -20.4956  -55.2989 H         1 UNK         0.0800 
    246 H246        1.9644  -17.9011  -54.0873 H         1 UNK         0.0800 
    247 H247        0.3805  -18.5009  -54.5196 H         1 UNK         0.0800 
@<TRIPOS>BOND
     1    1    2 1    
     2    1  127 1    
     3    1  128 1    
     4    1  129 1    
     5    2    3 2    
     6    2    4 am   BACKBONE|DICT|INTERRES
     7    4    5 1    
     8    4  130 1    
     9    5    6 1    
    10    5   65 1    
    11    5  131 1    
    12    6    7 1    
    13    6  132 1    
    14    6  133 1    
    15    7    8 1    
    16    8    9 1    
    17    8  134 1    
    18    8  135 1    
    19    9   10 ar   
    20    9   14 ar   
    21   10   11 ar   
    22   10  136 1    
    23   11   12 ar   
    24   11  126 1    
    25   12   13 ar   
    26   12  137 1    
    27   13   14 ar   
    28   13   15 1    
    29   14  138 1    
    30   15   16 1    
    31   15  139 1    
    32   15  140 1    
    33   16   17 1    
    34   17   18 1    
    35   17  141 1    
    36   17  142 1    
    37   18   19 1    
    38   18   67 1    
    39   18  143 1    
    40   19   20 am   BACKBONE|DICT|INTERRES
    41   19  144 1    
    42   20   21 2    
    43   20   22 1    
    44   22   23 1    
    45   22   24 1    
    46   22  145 1    
    47   23  146 1    
    48   23  147 1    
    49   23  148 1    
    50   24   25 am   BACKBONE|DICT|INTERRES
    51   24  149 1    
    52   25   26 2    
    53   25   27 1    
    54   27   28 1    
    55   27   29 1    
    56   27  150 1    
    57   28  151 1    
    58   28  152 1    
    59   28  153 1    
    60   29   30 am   BACKBONE|DICT|INTERRES
    61   29  154 1    
    62   30   31 2    
    63   30   32 1    
    64   32   33 1    
    65   32   34 1    
    66   32  155 1    
    67   33  156 1    
    68   33  157 1    
    69   33  158 1    
    70   34   35 am   BACKBONE|DICT|INTERRES
    71   34  159 1    
    72   35   36 2    
    73   35   37 1    
    74   37   38 1    
    75   37   39 1    
    76   37  160 1    
    77   38  161 1    
    78   38  162 1    
    79   38  163 1    
    80   39   40 am   BACKBONE|DICT|INTERRES
    81   39  164 1    
    82   40   41 2    
    83   40   42 1    
    84   42   43 1    
    85   42   44 1    
    86   42  165 1    
    87   43  166 1    
    88   43  167 1    
    89   43  168 1    
    90   44   45 am   BACKBONE|DICT|INTERRES
    91   44  169 1    
    92   45   46 2    
    93   45   47 1    
    94   47   48 1    
    95   47   49 1    
    96   47  170 1    
    97   48  171 1    
    98   48  172 1    
    99   48  173 1    
   100   49   50 am   BACKBONE|DICT|INTERRES
   101   49  174 1    
   102   50   51 2    
   103   50   52 1    
   104   52   53 1    
   105   52   54 1    
   106   52  175 1    
   107   53  176 1    
   108   53  177 1    
   109   53  178 1    
   110   54   55 am   BACKBONE|DICT|INTERRES
   111   54  179 1    
   112   55   56 2    
   113   55   57 1    
   114   57   58 1    
   115   57   59 1    
   116   57  180 1    
   117   58  181 1    
   118   58  182 1    
   119   58  183 1    
   120   59   60 am   BACKBONE|DICT|INTERRES
   121   59  184 1    
   122   60   61 2    
   123   60   62 1    
   124   62   63 1    
   125   62   64 1    
   126   62  185 1    
   127   63  186 1    
   128   63  187 1    
   129   63  188 1    
   130   64   65 am   BACKBONE|DICT|INTERRES
   131   64  189 1    
   132   65   66 2    
   133   67   68 2    
   134   67   69 am   BACKBONE|DICT|INTERRES
   135   69   70 1    
   136   69  190 1    
   137   70   71 1    
   138   70   72 1    
   139   70  191 1    
   140   71  192 1    
   141   71  193 1    
   142   71  194 1    
   143   72   73 2    
   144   72   74 am   BACKBONE|DICT|INTERRES
   145   74   75 1    
   146   74  195 1    
   147   75   76 1    
   148   75   77 1    
   149   75  196 1    
   150   76  197 1    
   151   76  198 1    
   152   76  199 1    
   153   77   78 2    
   154   77   79 am   BACKBONE|DICT|INTERRES
   155   79   80 1    
   156   79  200 1    
   157   80   81 1    
   158   80   82 1    
   159   80  201 1    
   160   81  202 1    
   161   81  203 1    
   162   81  204 1    
   163   82   83 2    
   164   82   84 am   BACKBONE|DICT|INTERRES
   165   84   85 1    
   166   84  205 1    
   167   85   86 1    
   168   85   87 1    
   169   85  206 1    
   170   86  207 1    
   171   86  208 1    
   172   86  209 1    
   173   87   88 2    
   174   87   89 am   BACKBONE|DICT|INTERRES
   175   89   90 1    
   176   89  210 1    
   177   90   91 1    
   178   90   92 1    
   179   90  211 1    
   180   91  212 1    
   181   91  213 1    
   182   91  214 1    
   183   92   93 2    
   184   92   94 am   BACKBONE|DICT|INTERRES
   185   94   95 1    
   186   94  215 1    
   187   95   96 1    
   188   95   97 1    
   189   95  216 1    
   190   96  217 1    
   191   96  218 1    
   192   96  219 1    
   193   97   98 2    
   194   97   99 am   BACKBONE|DICT|INTERRES
   195   99  100 1    
   196   99  220 1    
   197  100  101 1    
   198  100  102 1    
   199  100  221 1    
   200  101  222 1    
   201  101  223 1    
   202  101  224 1    
   203  102  103 2    
   204  102  104 am   BACKBONE|DICT|INTERRES
   205  104  105 1    
   206  104  225 1    
   207  105  106 1    
   208  105  107 1    
   209  105  226 1    
   210  106  227 1    
   211  106  228 1    
   212  106  229 1    
   213  107  108 2    
   214  107  109 am   BACKBONE|DICT|INTERRES
   215  109  110 1    
   216  109  230 1    
   217  110  111 1    
   218  110  112 1    
   219  110  231 1    
   220  111  232 1    
   221  111  233 1    
   222  111  234 1    
   223  112  113 2    
   224  112  114 am   BACKBONE|DICT|INTERRES
   225  114  115 1    
   226  114  235 1    
   227  115  116 1    
   228  115  117 1    
   229  115  236 1    
   230  116  237 1    
   231  116  238 1    
   232  116  239 1    
   233  117  118 2    
   234  117  119 am   BACKBONE|DICT|INTERRES
   235  119  120 1    
   236  119  240 1    
   237  120  121 1    
   238  120  124 1    
   239  120  241 1    
   240  121  122 am   BACKBONE|DICT|INTERRES
   241  121  123 2    
   242  122  242 1    
   243  122  243 1    
   244  124  125 1    
   245  124  244 1    
   246  124  245 1    
   247  125  126 1    
   248  126  246 1    
   249  126  247 1    
@<TRIPOS>SUBSTRUCTURE
     1 UNK         1 GROUP             0       ****    0 ROOT    
