@<TRIPOS>MOLECULE
3R540
247   249    1
SMALL
USER_CHARGES


@<TRIPOS>ATOM
      1 CA         -1.5183  -12.6154  -48.9507 C.3       0 UNK        -0.1800 
      2 C          -0.0984  -12.1324  -48.6925 C.2       0 UNK         0.5000 
      3 O           0.1336  -10.9276  -48.5940 O.2       0 UNK        -0.5000 
      4 N           0.8508  -13.0712  -48.5891 N.am      1 UNK        -0.5000 
      5 CA          2.2843  -12.8183  -48.3836 C.3       1 UNK         0.1400 
      6 C6          3.1328  -14.0958  -48.5917 C.3       23 UNK        -0.0398 
      7 S7          2.9361  -14.8337  -50.2506 S.3       23 UNK        -0.2404 
      8 C8          2.5158  -16.5596  -49.8510 C.3       23 UNK        -0.0205 
      9 C9          1.0195  -16.8242  -49.9357 C.ar      23 UNK        -0.0193 
     10 C10         0.4964  -17.5102  -51.0351 C.ar      23 UNK        -0.1150 
     11 C11        -0.8686  -17.7985  -51.1104 C.ar      23 UNK        -0.0193 
     12 C12        -1.7184  -17.3716  -50.0861 C.ar      23 UNK        -0.1150 
     13 C13        -1.2094  -16.6882  -48.9785 C.ar      23 UNK        -0.0193 
     14 C14         0.1604  -16.4166  -48.9108 C.ar      23 UNK        -0.1150 
     15 C15        -2.1374  -16.2545  -47.8502 C.3       23 UNK        -0.0205 
     16 S16        -2.8653  -17.6693  -46.9578 S.3       23 UNK        -0.2404 
     17 C17        -1.3795  -18.5728  -46.4091 C.3       23 UNK        -0.0398 
     18 CA         -1.0802  -19.8181  -47.2781 C.3       11 UNK         0.1400 
     19 N           0.3644  -20.0488  -47.3767 N.am      11 UNK        -0.5000 
     20 C           0.9762  -20.9455  -48.1630 C.2       10 UNK         0.5000 
     21 O           0.3812  -21.6909  -48.9402 O.2       10 UNK        -0.5000 
     22 CA          2.5020  -21.0812  -47.9936 C.3       10 UNK         0.1400 
     23 CB          3.2362  -20.3208  -49.1061 C.3       10 UNK        -0.1800 
     24 N           2.9885  -20.6146  -46.6897 N.am      10 UNK        -0.5000 
     25 C           2.6785  -21.1547  -45.5032 C.2       9 UNK         0.5000 
     26 O           1.9356  -22.1284  -45.3784 O.2       9 UNK        -0.5000 
     27 CA          3.2403  -20.4653  -44.2457 C.3       9 UNK         0.1400 
     28 CB          4.7270  -20.8021  -44.0277 C.3       9 UNK        -0.1800 
     29 N           2.9961  -19.0184  -44.2013 N.am      9 UNK        -0.5000 
     30 C           3.5132  -18.0409  -44.9597 C.2       8 UNK         0.5000 
     31 O           4.3028  -18.2285  -45.8858 O.2       8 UNK        -0.5000 
     32 CA          3.0413  -16.6088  -44.6463 C.3       8 UNK         0.1400 
     33 CB          1.7416  -16.3057  -45.4018 C.3       8 UNK        -0.1800 
     34 N           2.8304  -16.3759  -43.2182 N.am      8 UNK        -0.5000 
     35 C           3.8114  -16.3055  -42.3074 C.2       7 UNK         0.5000 
     36 O           5.0105  -16.3592  -42.5819 O.2       7 UNK        -0.5000 
     37 CA          3.3730  -16.1797  -40.8383 C.3       7 UNK         0.1400 
     38 CB          3.0895  -14.7148  -40.4695 C.3       7 UNK        -0.1800 
     39 N           2.1924  -16.9979  -40.5574 N.am      7 UNK        -0.5000 
     40 C           2.2169  -18.3317  -40.4167 C.2       6 UNK         0.5000 
     41 O           3.2479  -19.0038  -40.4443 O.2       6 UNK        -0.5000 
     42 CA          0.8618  -19.0395  -40.2277 C.3       6 UNK         0.1400 
     43 CB          0.5264  -19.1679  -38.7341 C.3       6 UNK        -0.1800 
     44 N          -0.2410  -18.3596  -40.9085 N.am      6 UNK        -0.5000 
     45 C          -0.3964  -18.3008  -42.2382 C.2       5 UNK         0.5000 
     46 O           0.3678  -18.8310  -43.0438 O.2       5 UNK        -0.5000 
     47 CA         -1.5805  -17.4631  -42.7530 C.3       5 UNK         0.1400 
     48 CB         -2.8588  -18.3137  -42.8161 C.3       5 UNK        -0.1800 
     49 N          -1.8327  -16.2652  -41.9497 N.am      5 UNK        -0.5000 
     50 C          -0.9688  -15.2530  -41.8053 C.2       4 UNK         0.5000 
     51 O           0.1583  -15.2327  -42.3089 O.2       4 UNK        -0.5000 
     52 CA         -1.4209  -14.0992  -40.9048 C.3       4 UNK         0.1400 
     53 CB         -0.9174  -14.3077  -39.4676 C.3       4 UNK        -0.1800 
     54 N          -0.8761  -12.8544  -41.4316 N.am      4 UNK        -0.5000 
     55 C          -1.5583  -11.7134  -41.5838 C.2       3 UNK         0.5000 
     56 O          -2.7273  -11.5655  -41.2240 O.2       3 UNK        -0.5000 
     57 CA         -0.8223  -10.5268  -42.2409 C.3       3 UNK         0.1400 
     58 CB         -0.4758   -9.4628  -41.1871 C.3       3 UNK        -0.1800 
     59 N           0.4047  -10.8960  -42.9529 N.am      3 UNK        -0.5000 
     60 C           0.4521  -11.5779  -44.1036 C.2       2 UNK         0.5000 
     61 O          -0.5439  -12.0019  -44.6966 O.2       2 UNK        -0.5000 
     62 CA          1.8553  -11.8388  -44.6680 C.3       2 UNK         0.1400 
     63 CB          2.6352  -12.8314  -43.7867 C.3       2 UNK        -0.1800 
     64 N           1.7315  -12.3698  -46.0204 N.am      2 UNK        -0.5000 
     65 C           2.6191  -12.2004  -47.0063 C.2       1 UNK         0.5000 
     66 O           3.6829  -11.5954  -46.8639 O.2       1 UNK        -0.5000 
     67 C          -1.8743  -21.0562  -46.7931 C.2       11 UNK         0.5000 
     68 O          -3.0879  -21.1151  -46.9912 O.2       11 UNK        -0.5000 
     69 N          -1.1854  -22.0578  -46.2231 N.am      12 UNK        -0.5000 
     70 CA         -1.7382  -23.3802  -45.9281 C.3       12 UNK         0.1400 
     71 CB         -0.6733  -24.2281  -45.2189 C.3       12 UNK        -0.1800 
     72 C          -2.2650  -24.1118  -47.1808 C.2       12 UNK         0.5000 
     73 O          -3.2197  -24.8784  -47.0672 O.2       12 UNK        -0.5000 
     74 N          -1.6759  -23.8371  -48.3554 N.am      13 UNK        -0.5000 
     75 CA         -2.1549  -24.3403  -49.6422 C.3       13 UNK         0.1400 
     76 CB         -1.0652  -24.1602  -50.7047 C.3       13 UNK        -0.1800 
     77 C          -3.4674  -23.6633  -50.0765 C.2       13 UNK         0.5000 
     78 O          -4.3610  -24.3462  -50.5760 O.2       13 UNK        -0.5000 
     79 N          -3.5941  -22.3496  -49.8366 N.am      14 UNK        -0.5000 
     80 CA         -4.8250  -21.5911  -50.0768 C.3       14 UNK         0.1400 
     81 CB         -4.5764  -20.0849  -49.9089 C.3       14 UNK        -0.1800 
     82 C          -5.9716  -22.0646  -49.1670 C.2       14 UNK         0.5000 
     83 O          -7.0909  -22.2445  -49.6469 O.2       14 UNK        -0.5000 
     84 N          -5.6524  -22.3337  -47.8922 N.am      15 UNK        -0.5000 
     85 CA         -6.5570  -22.9390  -46.9103 C.3       15 UNK         0.1400 
     86 CB         -5.8931  -22.9141  -45.5258 C.3       15 UNK        -0.1800 
     87 C          -6.9924  -24.3723  -47.2849 C.2       15 UNK         0.5000 
     88 O          -8.1217  -24.7605  -46.9859 O.2       15 UNK        -0.5000 
     89 N          -6.1121  -25.1121  -47.9737 N.am      16 UNK        -0.5000 
     90 CA         -6.3691  -26.4334  -48.5545 C.3       16 UNK         0.1400 
     91 CB         -5.0437  -27.2082  -48.6445 C.3       16 UNK        -0.1800 
     92 C          -7.0803  -26.3756  -49.9267 C.2       16 UNK         0.5000 
     93 O          -7.2367  -27.4180  -50.5641 O.2       16 UNK        -0.5000 
     94 N          -7.5100  -25.1777  -50.3496 N.am      17 UNK        -0.5000 
     95 CA         -8.2839  -24.8727  -51.5543 C.3       17 UNK         0.1400 
     96 CB         -9.6202  -25.6461  -51.5859 C.3       17 UNK        -0.1800 
     97 C          -7.4858  -24.9751  -52.8701 C.2       17 UNK         0.5000 
     98 O          -8.0827  -25.2054  -53.9233 O.2       17 UNK        -0.5000 
     99 N          -6.1666  -24.7300  -52.8189 N.am      18 UNK        -0.5000 
    100 CA        -5.3316  -24.5249  -54.0118 C.3       18 UNK         0.1400 
    101 CB        -3.8531  -24.7547  -53.6610 C.3       18 UNK        -0.1800 
    102 C         -5.5161  -23.1231  -54.6340 C.2       18 UNK         0.5000 
    103 O         -5.0152  -22.8799  -55.7327 O.2       18 UNK        -0.5000 
    104 N         -6.2177  -22.2257  -53.9233 N.am      19 UNK        -0.5000 
    105 CA        -6.4888  -20.8310  -54.2723 C.3       19 UNK         0.1400 
    106 CB        -7.4247  -20.7423  -55.4994 C.3       19 UNK        -0.1800 
    107 C         -5.1752  -20.0387  -54.4093 C.2       19 UNK         0.5000 
    108 O         -4.4857  -19.8612  -53.4070 O.2       19 UNK        -0.5000 
    109 N         -4.8487  -19.5862  -55.6252 N.am      20 UNK        -0.5000 
    110 CA        -3.6229  -18.8502  -55.9303 C.3       20 UNK         0.1400 
    111 CB        -3.8725  -17.9756  -57.1690 C.3       20 UNK        -0.1800 
    112 C         -2.4004  -19.7610  -56.1578 C.2       20 UNK         0.5000 
    113 O         -1.2740  -19.2645  -56.1085 O.2       20 UNK        -0.5000 
    114 N         -2.6147  -21.0608  -56.4136 N.am      21 UNK        -0.5000 
    115 CA        -1.5742  -22.0330  -56.7685 C.3       21 UNK         0.1400 
    116 CB        -2.1998  -23.1502  -57.6236 C.3       21 UNK        -0.1800 
    117 C         -0.8178  -22.5769  -55.5372 C.2       21 UNK         0.5000 
    118 O         -0.6769  -23.7911  -55.3784 O.2       21 UNK        -0.5000 
    119 N         -0.3544  -21.6651  -54.6788 N.am      22 UNK        -0.5000 
    120 CA         0.4187  -21.9579  -53.4661 C.3       22 UNK         0.1400 
    121 C          1.8886  -22.3552  -53.7723 C.2       22 UNK         0.5000 
    122 N          2.5085  -23.1568  -52.9165 N.am      22 UNK        -0.7600 
    123 O          2.4865  -21.9164  -54.7527 O.2       22 UNK        -0.5000 
    124 C124        0.3666  -20.7826  -52.4595 C.3       23 UNK        -0.0398 
    125 S125       -1.3434  -20.3777  -51.9675 S.3       23 UNK        -0.2404 
    126 C126       -1.4259  -18.5873  -52.2846 C.3       23 UNK        -0.0205 
    127 H127       -1.5346  -13.6477  -49.2998 H         1 UNK         0.0600 
    128 H128       -2.1085  -12.5508  -48.0367 H         1 UNK         0.0600 
    129 H129       -1.9951  -11.9973  -49.7114 H         1 UNK         0.0600 
    130 H130        0.6004  -14.0364  -48.7433 H         1 UNK         0.3000 
    131 H131        2.5920  -12.0877  -49.1349 H         1 UNK         0.0600 
    132 H132        2.8965  -14.8312  -47.8223 H         1 UNK         0.0800 
    133 H133        4.1940  -13.8695  -48.4703 H         1 UNK         0.0800 
    134 H134        3.0464  -17.2041  -50.5535 H         1 UNK         0.0800 
    135 H135        2.8899  -16.8339  -48.8641 H         1 UNK         0.0800 
    136 H136        1.1562  -17.8331  -51.8272 H         1 UNK         0.1150 
    137 H137       -2.7752  -17.5919  -50.1363 H         1 UNK         0.1150 
    138 H138        0.5567  -15.8902  -48.0578 H         1 UNK         0.1150 
    139 H139       -1.6128  -15.6170  -47.1367 H         1 UNK         0.0800 
    140 H140       -2.9439  -15.6489  -48.2655 H         1 UNK         0.0800 
    141 H141       -1.4874  -18.8470  -45.3608 H         1 UNK         0.0800 
    142 H142       -0.5434  -17.8762  -46.4398 H         1 UNK         0.0800 
    143 H143       -1.4148  -19.6224  -48.2990 H         1 UNK         0.0600 
    144 H144        0.9471  -19.5109  -46.7541 H         1 UNK         0.3000 
    145 H145        2.7461  -22.1416  -48.0826 H         1 UNK         0.0600 
    146 H146        4.3135  -20.4752  -49.0453 H         1 UNK         0.0600 
    147 H147        2.9149  -20.6580  -50.0922 H         1 UNK         0.0600 
    148 H148        3.0470  -19.2502  -49.0458 H         1 UNK         0.0600 
    149 H149        3.5927  -19.7967  -46.6830 H         1 UNK         0.3000 
    150 H150        2.6898  -20.8735  -43.3964 H         1 UNK         0.0600 
    151 H151        4.8728  -21.8803  -43.9527 H         1 UNK         0.0600 
    152 H152        5.0970  -20.3585  -43.1031 H         1 UNK         0.0600 
    153 H153        5.3544  -20.4462  -44.8451 H         1 UNK         0.0600 
    154 H154        2.2653  -18.7496  -43.5494 H         1 UNK         0.3000 
    155 H155        3.8126  -15.9219  -45.0016 H         1 UNK         0.0600 
    156 H156        1.5202  -15.2393  -45.4056 H         1 UNK         0.0600 
    157 H157        0.8916  -16.8198  -44.9548 H         1 UNK         0.0600 
    158 H158        1.8199  -16.6313  -46.4376 H         1 UNK         0.0600 
    159 H159        1.8725  -16.2578  -42.9079 H         1 UNK         0.3000 
    160 H160        4.1969  -16.5295  -40.2123 H         1 UNK         0.0600 
    161 H161        2.2685  -14.2979  -41.0516 H         1 UNK         0.0600 
    162 H162        3.9663  -14.0920  -40.6512 H         1 UNK         0.0600 
    163 H163        2.8352  -14.6169  -39.4142 H         1 UNK         0.0600 
    164 H164        1.3006  -16.5258  -40.5635 H         1 UNK         0.3000 
    165 H165        0.9525  -20.0444  -40.6459 H         1 UNK         0.0600 
    166 H166        0.4029  -18.1919  -38.2631 H         1 UNK         0.0600 
    167 H167       -0.3937  -19.7330  -38.5836 H         1 UNK         0.0600 
    168 H168        1.3195  -19.6926  -38.1996 H         1 UNK         0.0600 
    169 H169       -0.9194  -17.8942  -40.3239 H         1 UNK         0.3000 
    170 H170       -1.3347  -17.1318  -43.7634 H         1 UNK         0.0600 
    171 H171       -2.6947  -19.2389  -43.3699 H         1 UNK         0.0600 
    172 H172       -3.2083  -18.5902  -41.8206 H         1 UNK         0.0600 
    173 H173       -3.6636  -17.7759  -43.3178 H         1 UNK         0.0600 
    174 H174       -2.7331  -16.2108  -41.4954 H         1 UNK         0.3000 
    175 H175       -2.5126  -14.0697  -40.9029 H         1 UNK         0.0600 
    176 H176       -1.2464  -13.4978  -38.8164 H         1 UNK         0.0600 
    177 H177       -1.3009  -15.2382  -39.0472 H         1 UNK         0.0600 
    178 H178        0.1715  -14.3491  -39.4226 H         1 UNK         0.0600 
    179 H179        0.0555  -12.9238  -41.8165 H         1 UNK         0.3000 
    180 H180       -1.5105  -10.0805  -42.9619 H         1 UNK         0.0600 
    181 H181        0.2222   -9.8472  -40.4424 H         1 UNK         0.0600 
    182 H182       -1.3695   -9.1296  -40.6576 H         1 UNK         0.0600 
    183 H183       -0.0270   -8.5822  -41.6471 H         1 UNK         0.0600 
    184 H184        1.2700  -10.5910  -42.5306 H         1 UNK         0.3000 
    185 H185        2.3853  -10.8844  -44.7005 H         1 UNK         0.0600 
    186 H186        3.5907  -13.1031  -44.2354 H         1 UNK         0.0600 
    187 H187        2.8498  -12.4048  -42.8066 H         1 UNK         0.0600 
    188 H188        2.0681  -13.7470  -43.6259 H         1 UNK         0.0600 
    189 H189        0.8360  -12.7958  -46.2223 H         1 UNK         0.3000 
    190 H190       -0.1890  -21.9479  -46.0790 H         1 UNK         0.3000 
    191 H191       -2.5784  -23.2438  -45.2448 H         1 UNK         0.0600 
    192 H192       -0.3405  -23.7528  -44.2959 H         1 UNK         0.0600 
    193 H193       -1.0670  -25.2107  -44.9556 H         1 UNK         0.0600 
    194 H194        0.2028  -24.3824  -45.8503 H         1 UNK         0.0600 
    195 H195       -0.9080  -23.1742  -48.3864 H         1 UNK         0.3000 
    196 H196       -2.3477  -25.4101  -49.5424 H         1 UNK         0.0600 
    197 H197       -1.3920  -24.5439  -51.6718 H         1 UNK         0.0600 
    198 H198       -0.1547  -24.6932  -50.4311 H         1 UNK         0.0600 
    199 H199       -0.8123  -23.1091  -50.8321 H         1 UNK         0.0600 
    200 H200       -2.8288  -21.8536  -49.4046 H         1 UNK         0.3000 
    201 H201       -5.1253  -21.7650  -51.1121 H         1 UNK         0.0600 
    202 H202       -3.8256  -19.7310  -50.6125 H         1 UNK         0.0600 
    203 H203       -4.2433  -19.8285  -48.9042 H         1 UNK         0.0600 
    204 H204       -5.4872  -19.5181  -50.1047 H         1 UNK         0.0600 
    205 H205       -4.7150  -22.1047  -47.5744 H         1 UNK         0.3000 
    206 H206       -7.4567  -22.3218  -46.8672 H         1 UNK         0.0600 
    207 H207       -5.6036  -21.9016  -45.2434 H         1 UNK         0.0600 
    208 H208       -6.5759  -23.2843  -44.7602 H         1 UNK         0.0600 
    209 H209       -5.0007  -23.5385  -45.4967 H         1 UNK         0.0600 
    210 H210       -5.1879  -24.7319  -48.1343 H         1 UNK         0.3000 
    211 H211       -7.0284  -26.9849  -47.8815 H         1 UNK         0.0600 
    212 H212       -4.3531  -26.7437  -49.3473 H         1 UNK         0.0600 
    213 H213       -5.2088  -28.2331  -48.9785 H         1 UNK         0.0600 
    214 H214       -4.5506  -27.2619  -47.6739 H         1 UNK         0.0600 
    215 H215       -7.2927  -24.3728  -49.7745 H         1 UNK         0.3000 
    216 H216       -8.5405  -23.8166  -51.4630 H         1 UNK         0.0600 
    217 H217      -10.1584  -25.5435  -50.6436 H         1 UNK         0.0600 
    218 H218       -9.4720  -26.7093  -51.7756 H         1 UNK         0.0600 
    219 H219      -10.2730  -25.2656  -52.3723 H         1 UNK         0.0600 
    220 H220       -5.7107  -24.5941  -51.9193 H         1 UNK         0.3000 
    221 H221       -5.6139  -25.2618  -54.7665 H         1 UNK         0.0600 
    222 H222       -3.4524  -23.9418  -53.0552 H         1 UNK         0.0600 
    223 H223       -3.7094  -25.6885  -53.1172 H         1 UNK         0.0600 
    224 H224       -3.2458  -24.8073  -54.5653 H         1 UNK         0.0600 
    225 H225       -6.5523  -22.5201  -53.0186 H         1 UNK         0.3000 
    226 H226       -7.0189  -20.3961  -53.4236 H         1 UNK         0.0600 
    227 H227       -8.3626  -21.2636  -55.3075 H         1 UNK         0.0600 
    228 H228       -7.6767  -19.7056  -55.7265 H         1 UNK         0.0600 
    229 H229       -6.9849  -21.1823  -56.3948 H         1 UNK         0.0600 
    230 H230       -5.4618  -19.7931  -56.4002 H         1 UNK         0.3000 
    231 H231       -3.3858  -18.1895  -55.0935 H         1 UNK         0.0600 
    232 H232       -2.9906  -17.3818  -57.4133 H         1 UNK         0.0600 
    233 H233       -4.6942  -17.2792  -57.0011 H         1 UNK         0.0600 
    234 H234       -4.1155  -18.5781  -58.0452 H         1 UNK         0.0600 
    235 H235       -3.5583  -21.4260  -56.3479 H         1 UNK         0.3000 
    236 H236       -0.8318  -21.5312  -57.3928 H         1 UNK         0.0600 
    237 H237       -1.4331  -23.8278  -58.0011 H         1 UNK         0.0600 
    238 H238       -2.9096  -23.7479  -57.0518 H         1 UNK         0.0600 
    239 H239       -2.7238  -22.7415  -58.4876 H         1 UNK         0.0600 
    240 H240       -0.4997  -20.6875  -54.9026 H         1 UNK         0.3000 
    241 H241       -0.0505  -22.8225  -52.9967 H         1 UNK         0.0600 
    242 H242        2.0439  -23.5276  -52.1027 H         1 UNK         0.3800 
    243 H243        3.4670  -23.4131  -53.0963 H         1 UNK         0.3800 
    244 H244        0.9182  -21.0292  -51.5515 H         1 UNK         0.0800 
    245 H245        0.8533  -19.9047  -52.8849 H         1 UNK         0.0800 
    246 H246       -0.8998  -18.3379  -53.2071 H         1 UNK         0.0800 
    247 H247       -2.4684  -18.3119  -52.4494 H         1 UNK         0.0800 
@<TRIPOS>BOND
     1    1    2 1    
     2    1  127 1    
     3    1  128 1    
     4    1  129 1    
     5    2    3 2    
     6    2    4 am   BACKBONE|DICT|INTERRES
     7    4    5 1    
     8    4  130 1    
     9    5    6 1    
    10    5   65 1    
    11    5  131 1    
    12    6    7 1    
    13    6  132 1    
    14    6  133 1    
    15    7    8 1    
    16    8    9 1    
    17    8  134 1    
    18    8  135 1    
    19    9   10 ar   
    20    9   14 ar   
    21   10   11 ar   
    22   10  136 1    
    23   11   12 ar   
    24   11  126 1    
    25   12   13 ar   
    26   12  137 1    
    27   13   14 ar   
    28   13   15 1    
    29   14  138 1    
    30   15   16 1    
    31   15  139 1    
    32   15  140 1    
    33   16   17 1    
    34   17   18 1    
    35   17  141 1    
    36   17  142 1    
    37   18   19 1    
    38   18   67 1    
    39   18  143 1    
    40   19   20 am   BACKBONE|DICT|INTERRES
    41   19  144 1    
    42   20   21 2    
    43   20   22 1    
    44   22   23 1    
    45   22   24 1    
    46   22  145 1    
    47   23  146 1    
    48   23  147 1    
    49   23  148 1    
    50   24   25 am   BACKBONE|DICT|INTERRES
    51   24  149 1    
    52   25   26 2    
    53   25   27 1    
    54   27   28 1    
    55   27   29 1    
    56   27  150 1    
    57   28  151 1    
    58   28  152 1    
    59   28  153 1    
    60   29   30 am   BACKBONE|DICT|INTERRES
    61   29  154 1    
    62   30   31 2    
    63   30   32 1    
    64   32   33 1    
    65   32   34 1    
    66   32  155 1    
    67   33  156 1    
    68   33  157 1    
    69   33  158 1    
    70   34   35 am   BACKBONE|DICT|INTERRES
    71   34  159 1    
    72   35   36 2    
    73   35   37 1    
    74   37   38 1    
    75   37   39 1    
    76   37  160 1    
    77   38  161 1    
    78   38  162 1    
    79   38  163 1    
    80   39   40 am   BACKBONE|DICT|INTERRES
    81   39  164 1    
    82   40   41 2    
    83   40   42 1    
    84   42   43 1    
    85   42   44 1    
    86   42  165 1    
    87   43  166 1    
    88   43  167 1    
    89   43  168 1    
    90   44   45 am   BACKBONE|DICT|INTERRES
    91   44  169 1    
    92   45   46 2    
    93   45   47 1    
    94   47   48 1    
    95   47   49 1    
    96   47  170 1    
    97   48  171 1    
    98   48  172 1    
    99   48  173 1    
   100   49   50 am   BACKBONE|DICT|INTERRES
   101   49  174 1    
   102   50   51 2    
   103   50   52 1    
   104   52   53 1    
   105   52   54 1    
   106   52  175 1    
   107   53  176 1    
   108   53  177 1    
   109   53  178 1    
   110   54   55 am   BACKBONE|DICT|INTERRES
   111   54  179 1    
   112   55   56 2    
   113   55   57 1    
   114   57   58 1    
   115   57   59 1    
   116   57  180 1    
   117   58  181 1    
   118   58  182 1    
   119   58  183 1    
   120   59   60 am   BACKBONE|DICT|INTERRES
   121   59  184 1    
   122   60   61 2    
   123   60   62 1    
   124   62   63 1    
   125   62   64 1    
   126   62  185 1    
   127   63  186 1    
   128   63  187 1    
   129   63  188 1    
   130   64   65 am   BACKBONE|DICT|INTERRES
   131   64  189 1    
   132   65   66 2    
   133   67   68 2    
   134   67   69 am   BACKBONE|DICT|INTERRES
   135   69   70 1    
   136   69  190 1    
   137   70   71 1    
   138   70   72 1    
   139   70  191 1    
   140   71  192 1    
   141   71  193 1    
   142   71  194 1    
   143   72   73 2    
   144   72   74 am   BACKBONE|DICT|INTERRES
   145   74   75 1    
   146   74  195 1    
   147   75   76 1    
   148   75   77 1    
   149   75  196 1    
   150   76  197 1    
   151   76  198 1    
   152   76  199 1    
   153   77   78 2    
   154   77   79 am   BACKBONE|DICT|INTERRES
   155   79   80 1    
   156   79  200 1    
   157   80   81 1    
   158   80   82 1    
   159   80  201 1    
   160   81  202 1    
   161   81  203 1    
   162   81  204 1    
   163   82   83 2    
   164   82   84 am   BACKBONE|DICT|INTERRES
   165   84   85 1    
   166   84  205 1    
   167   85   86 1    
   168   85   87 1    
   169   85  206 1    
   170   86  207 1    
   171   86  208 1    
   172   86  209 1    
   173   87   88 2    
   174   87   89 am   BACKBONE|DICT|INTERRES
   175   89   90 1    
   176   89  210 1    
   177   90   91 1    
   178   90   92 1    
   179   90  211 1    
   180   91  212 1    
   181   91  213 1    
   182   91  214 1    
   183   92   93 2    
   184   92   94 am   BACKBONE|DICT|INTERRES
   185   94   95 1    
   186   94  215 1    
   187   95   96 1    
   188   95   97 1    
   189   95  216 1    
   190   96  217 1    
   191   96  218 1    
   192   96  219 1    
   193   97   98 2    
   194   97   99 am   BACKBONE|DICT|INTERRES
   195   99  100 1    
   196   99  220 1    
   197  100  101 1    
   198  100  102 1    
   199  100  221 1    
   200  101  222 1    
   201  101  223 1    
   202  101  224 1    
   203  102  103 2    
   204  102  104 am   BACKBONE|DICT|INTERRES
   205  104  105 1    
   206  104  225 1    
   207  105  106 1    
   208  105  107 1    
   209  105  226 1    
   210  106  227 1    
   211  106  228 1    
   212  106  229 1    
   213  107  108 2    
   214  107  109 am   BACKBONE|DICT|INTERRES
   215  109  110 1    
   216  109  230 1    
   217  110  111 1    
   218  110  112 1    
   219  110  231 1    
   220  111  232 1    
   221  111  233 1    
   222  111  234 1    
   223  112  113 2    
   224  112  114 am   BACKBONE|DICT|INTERRES
   225  114  115 1    
   226  114  235 1    
   227  115  116 1    
   228  115  117 1    
   229  115  236 1    
   230  116  237 1    
   231  116  238 1    
   232  116  239 1    
   233  117  118 2    
   234  117  119 am   BACKBONE|DICT|INTERRES
   235  119  120 1    
   236  119  240 1    
   237  120  121 1    
   238  120  124 1    
   239  120  241 1    
   240  121  122 am   BACKBONE|DICT|INTERRES
   241  121  123 2    
   242  122  242 1    
   243  122  243 1    
   244  124  125 1    
   245  124  244 1    
   246  124  245 1    
   247  125  126 1    
   248  126  246 1    
   249  126  247 1    
@<TRIPOS>SUBSTRUCTURE
     1 UNK         1 GROUP             0       ****    0 ROOT    
