@<TRIPOS>MOLECULE
3R540
247   249    1
SMALL
USER_CHARGES


@<TRIPOS>ATOM
      1 CA          4.3845  -16.9496  -44.6880 C.3       0 UNK        -0.1800 
      2 C           3.6427  -15.6373  -44.8863 C.2       0 UNK         0.5000 
      3 O           4.2448  -14.5690  -44.7798 O.2       0 UNK        -0.5000 
      4 N           2.3391  -15.7010  -45.1845 N.am      1 UNK        -0.5000 
      5 CA          1.4564  -14.5446  -45.4019 C.3       1 UNK         0.1400 
      6 C6         -0.0351  -14.9437  -45.4847 C.3       23 UNK        -0.0398 
      7 S7         -0.3753  -16.3123  -46.6393 S.3       23 UNK        -0.2404 
      8 C8         -1.3673  -15.4812  -47.9171 C.3       23 UNK        -0.0205 
      9 C9         -2.0713  -16.5030  -48.7943 C.ar      23 UNK        -0.0193 
     10 C10        -3.4662  -16.6008  -48.7950 C.ar      23 UNK        -0.1150 
     11 C11        -4.1093  -17.5629  -49.5797 C.ar      23 UNK        -0.0193 
     12 C12        -3.3449  -18.4404  -50.3534 C.ar      23 UNK        -0.1150 
     13 C13        -1.9506  -18.3629  -50.3466 C.ar      23 UNK        -0.0193 
     14 C14        -1.3212  -17.3758  -49.5856 C.ar      23 UNK        -0.1150 
     15 C15        -1.1175  -19.3753  -51.1179 C.3       23 UNK        -0.0205 
     16 S16        -1.1659  -21.0302  -50.3500 S.3       23 UNK        -0.2404 
     17 C17        -0.9437  -20.6492  -48.5727 C.3       23 UNK        -0.0398 
     18 CA         -0.2877  -21.7860  -47.7556 C.3       11 UNK         0.1400 
     19 N          -0.0073  -21.3712  -46.3818 N.am      11 UNK        -0.5000 
     20 C           0.9334  -21.9201  -45.6011 C.2       10 UNK         0.5000 
     21 O           1.7363  -22.7684  -45.9896 O.2       10 UNK        -0.5000 
     22 CA          0.9654  -21.4653  -44.1290 C.3       10 UNK         0.1400 
     23 CB          1.8684  -20.2334  -43.9646 C.3       10 UNK        -0.1800 
     24 N          -0.3643  -21.1645  -43.5939 N.am      10 UNK        -0.5000 
     25 C          -1.3373  -22.0741  -43.4228 C.2       9 UNK         0.5000 
     26 O          -1.1973  -23.2728  -43.6616 O.2       9 UNK        -0.5000 
     27 CA         -2.7140  -21.5579  -42.9544 C.3       9 UNK         0.1400 
     28 CB         -2.7991  -21.5843  -41.4213 C.3       9 UNK        -0.1800 
     29 N          -3.0285  -20.2085  -43.4233 N.am      9 UNK        -0.5000 
     30 C          -3.0156  -19.7895  -44.6968 C.2       8 UNK         0.5000 
     31 O          -2.8513  -20.5405  -45.6595 O.2       8 UNK        -0.5000 
     32 CA         -3.1333  -18.2691  -44.9304 C.3       8 UNK         0.1400 
     33 CB         -4.5318  -17.9117  -45.4538 C.3       8 UNK        -0.1800 
     34 N          -2.8255  -17.4360  -43.7555 N.am      8 UNK        -0.5000 
     35 C          -1.6721  -17.4371  -43.0685 C.2       7 UNK         0.5000 
     36 O          -0.7163  -18.1681  -43.3440 O.2       7 UNK        -0.5000 
     37 CA         -1.6077  -16.5104  -41.8382 C.3       7 UNK         0.1400 
     38 CB         -2.6009  -16.9760  -40.7590 C.3       7 UNK        -0.1800 
     39 N          -0.2656  -16.5253  -41.2576 N.am      7 UNK        -0.5000 
     40 C           0.7046  -15.6462  -41.5261 C.2       6 UNK         0.5000 
     41 O           0.5427  -14.6186  -42.1895 O.2       6 UNK        -0.5000 
     42 CA          2.0937  -15.9863  -40.9633 C.3       6 UNK         0.1400 
     43 CB          2.5711  -17.3752  -41.4345 C.3       6 UNK        -0.1800 
     44 N           3.0481  -14.9662  -41.3866 N.am      6 UNK        -0.5000 
     45 C           4.2015  -14.6718  -40.7771 C.2       5 UNK         0.5000 
     46 O           4.5883  -15.2344  -39.7516 O.2       5 UNK        -0.5000 
     47 CA          5.0857  -13.5821  -41.4131 C.3       5 UNK         0.1400 
     48 CB          6.3750  -14.2008  -41.9786 C.3       5 UNK        -0.1800 
     49 N           4.4148  -12.8617  -42.4955 N.am      5 UNK        -0.5000 
     50 C           3.7782  -11.6903  -42.3690 C.2       4 UNK         0.5000 
     51 O           3.6214  -11.1182  -41.2889 O.2       4 UNK        -0.5000 
     52 CA          3.2304  -11.0548  -43.6690 C.3       4 UNK         0.1400 
     53 CB          3.0814   -9.5225  -43.5726 C.3       4 UNK        -0.1800 
     54 N           3.9913  -11.4303  -44.8682 N.am      4 UNK        -0.5000 
     55 C           5.2913  -11.2055  -45.1243 C.2       3 UNK         0.5000 
     56 O           6.0236  -10.5335  -44.3970 O.2       3 UNK        -0.5000 
     57 CA          5.8890  -11.8695  -46.3835 C.3       3 UNK         0.1400 
     58 CB          7.1177  -12.7197  -46.0158 C.3       3 UNK        -0.1800 
     59 N           4.9193  -12.7390  -47.0518 N.am      3 UNK        -0.5000 
     60 C           4.3065  -12.4803  -48.2152 C.2       2 UNK         0.5000 
     61 O           4.5454  -11.4927  -48.9106 O.2       2 UNK        -0.5000 
     62 CA          3.2220  -13.4820  -48.6707 C.3       2 UNK         0.1400 
     63 CB          3.8076  -14.4956  -49.6651 C.3       2 UNK        -0.1800 
     64 N           2.5982  -14.2116  -47.5629 N.am      2 UNK        -0.5000 
     65 C           1.8700  -13.6493  -46.5880 C.2       1 UNK         0.5000 
     66 O           1.5836  -12.4527  -46.5606 O.2       1 UNK        -0.5000 
     67 C          -1.1360  -23.0705  -47.7446 C.2       11 UNK         0.5000 
     68 O          -0.7728  -24.0302  -48.4215 O.2       11 UNK        -0.5000 
     69 N          -2.2140  -23.0867  -46.9441 N.am      12 UNK        -0.5000 
     70 CA         -3.1793  -24.1894  -46.8529 C.3       12 UNK         0.1400 
     71 CB         -4.3232  -23.7885  -45.9119 C.3       12 UNK        -0.1800 
     72 C          -2.5733  -25.5411  -46.4211 C.2       12 UNK         0.5000 
     73 O          -3.0864  -26.5907  -46.8100 O.2       12 UNK        -0.5000 
     74 N          -1.4903  -25.4969  -45.6352 N.am      13 UNK        -0.5000 
     75 CA         -0.7097  -26.6654  -45.2317 C.3       13 UNK         0.1400 
     76 CB          0.1520  -26.2854  -44.0174 C.3       13 UNK        -0.1800 
     77 C           0.1800  -27.2338  -46.3572 C.2       13 UNK         0.5000 
     78 O           0.5721  -28.3986  -46.2723 O.2       13 UNK        -0.5000 
     79 N           0.5085  -26.4146  -47.3653 N.am      14 UNK        -0.5000 
     80 CA          1.4384  -26.7498  -48.4442 C.3       14 UNK         0.1400 
     81 CB          2.4253  -25.5844  -48.6221 C.3       14 UNK        -0.1800 
     82 C           0.7223  -27.0440  -49.7731 C.2       14 UNK         0.5000 
     83 O           1.1827  -27.9048  -50.5247 O.2       14 UNK        -0.5000 
     84 N          -0.3714  -26.3283  -50.0533 N.am      15 UNK        -0.5000 
     85 CA         -1.1315  -26.3929  -51.2979 C.3       15 UNK         0.1400 
     86 CB         -0.5064  -25.4216  -52.3181 C.3       15 UNK        -0.1800 
     87 C          -2.6021  -26.0396  -51.0329 C.2       15 UNK         0.5000 
     88 O          -2.9526  -25.6198  -49.9298 O.2       15 UNK        -0.5000 
     89 N          -3.4471  -26.1959  -52.0582 N.am      16 UNK        -0.5000 
     90 CA         -4.8424  -25.7622  -52.0461 C.3       16 UNK         0.1400 
     91 CB         -5.5946  -26.4588  -53.1933 C.3       16 UNK        -0.1800 
     92 C          -4.9137  -24.2293  -52.1652 C.2       16 UNK         0.5000 
     93 O          -4.9206  -23.7061  -53.2791 O.2       16 UNK        -0.5000 
     94 N          -4.9364  -23.5318  -51.0222 N.am      17 UNK        -0.5000 
     95 CA         -4.9031  -22.0677  -50.9051 C.3       17 UNK         0.1400 
     96 CB         -4.9591  -21.6937  -49.4161 C.3       17 UNK        -0.1800 
     97 C          -6.0025  -21.3369  -51.7056 C.2       17 UNK         0.5000 
     98 O          -5.7472  -20.2733  -52.2755 O.2       17 UNK        -0.5000 
     99 N          -7.1829  -21.9656  -51.7845 N.am      18 UNK        -0.5000 
    100 CA        -8.3472  -21.5305  -52.5597 C.3       18 UNK         0.1400 
    101 CB        -9.5750  -22.3142  -52.0686 C.3       18 UNK        -0.1800 
    102 C         -8.1890  -21.6677  -54.0910 C.2       18 UNK         0.5000 
    103 O         -9.0767  -21.2261  -54.8213 O.2       18 UNK        -0.5000 
    104 N         -7.0900  -22.2740  -54.5555 N.am      19 UNK        -0.5000 
    105 CA        -6.6990  -22.3475  -55.9626 C.3       19 UNK         0.1400 
    106 CB        -6.6343  -23.8215  -56.3933 C.3       19 UNK        -0.1800 
    107 C         -5.3431  -21.6571  -56.1925 C.2       19 UNK         0.5000 
    108 O         -5.1587  -21.0229  -57.2316 O.2       19 UNK        -0.5000 
    109 N         -4.4202  -21.7912  -55.2283 N.am      20 UNK        -0.5000 
    110 CA        -3.0421  -21.3043  -55.2943 C.3       20 UNK         0.1400 
    111 CB        -2.2481  -21.8701  -54.1067 C.3       20 UNK        -0.1800 
    112 C         -2.9065  -19.7721  -55.3493 C.2       20 UNK         0.5000 
    113 O         -1.9785  -19.2856  -55.9978 O.2       20 UNK        -0.5000 
    114 N         -3.8166  -19.0394  -54.6919 N.am      21 UNK        -0.5000 
    115 CA        -3.8413  -17.5743  -54.7309 C.3       21 UNK         0.1400 
    116 CB        -2.8110  -16.9761  -53.7568 C.3       21 UNK        -0.1800 
    117 C         -5.2371  -16.9977  -54.4639 C.2       21 UNK         0.5000 
    118 O         -5.6101  -16.0223  -55.1168 O.2       21 UNK        -0.5000 
    119 N         -5.9908  -17.5957  -53.5322 N.am      22 UNK        -0.5000 
    120 CA        -7.3313  -17.1270  -53.1314 C.3       22 UNK         0.1400 
    121 C         -8.4887  -17.6992  -54.0030 C.2       22 UNK         0.5000 
    122 N         -8.2173  -18.2934  -55.1572 N.am      22 UNK        -0.7600 
    123 O         -9.6558  -17.5969  -53.6352 O.2       22 UNK        -0.5000 
    124 C124       -7.5809  -17.3249  -51.6134 C.3       23 UNK        -0.0398 
    125 S125       -6.3900  -16.3807  -50.5969 S.3       23 UNK        -0.2404 
    126 C126       -5.6254  -17.6718  -49.5684 C.3       23 UNK        -0.0205 
    127 H127        3.7319  -17.8103  -44.8344 H         1 UNK         0.0600 
    128 H128        4.7936  -16.9978  -43.6790 H         1 UNK         0.0600 
    129 H129        5.2103  -17.0224  -45.3954 H         1 UNK         0.0600 
    130 H130        1.8898  -16.6012  -45.2795 H         1 UNK         0.3000 
    131 H131        1.5641  -13.9118  -44.5192 H         1 UNK         0.0600 
    132 H132       -0.3680  -15.2757  -44.5039 H         1 UNK         0.0800 
    133 H133       -0.6606  -14.0797  -45.7158 H         1 UNK         0.0800 
    134 H134       -2.0977  -14.8230  -47.4444 H         1 UNK         0.0800 
    135 H135       -0.7215  -14.8505  -48.5297 H         1 UNK         0.0800 
    136 H136       -4.0554  -15.9316  -48.1840 H         1 UNK         0.1150 
    137 H137       -3.8284  -19.1974  -50.9510 H         1 UNK         0.1150 
    138 H138       -0.2422  -17.3122  -49.5709 H         1 UNK         0.1150 
    139 H139       -1.4845  -19.4440  -52.1427 H         1 UNK         0.0800 
    140 H140       -0.0791  -19.0474  -51.1852 H         1 UNK         0.0800 
    141 H141       -1.9142  -20.3750  -48.1561 H         1 UNK         0.0800 
    142 H142       -0.3166  -19.7611  -48.4893 H         1 UNK         0.0800 
    143 H143        0.6619  -22.0252  -48.2400 H         1 UNK         0.0600 
    144 H144       -0.6669  -20.7285  -45.9640 H         1 UNK         0.3000 
    145 H145        1.3886  -22.2812  -43.5394 H         1 UNK         0.0600 
    146 H146        1.9521  -19.9469  -42.9166 H         1 UNK         0.0600 
    147 H147        1.4843  -19.3751  -44.5174 H         1 UNK         0.0600 
    148 H148        2.8768  -20.4350  -44.3282 H         1 UNK         0.0600 
    149 H149       -0.5615  -20.1871  -43.4011 H         1 UNK         0.3000 
    150 H150       -3.4779  -22.2271  -43.3478 H         1 UNK         0.0600 
    151 H151       -2.5933  -22.5840  -41.0362 H         1 UNK         0.0600 
    152 H152       -3.7941  -21.3032  -41.0756 H         1 UNK         0.0600 
    153 H153       -2.0794  -20.9023  -40.9666 H         1 UNK         0.0600 
    154 H154       -3.1715  -19.5116  -42.7087 H         1 UNK         0.3000 
    155 H155       -2.4132  -18.0238  -45.7101 H         1 UNK         0.0600 
    156 H156       -4.5919  -16.8590  -45.7303 H         1 UNK         0.0600 
    157 H157       -5.3036  -18.1112  -44.7096 H         1 UNK         0.0600 
    158 H158       -4.7748  -18.4923  -46.3451 H         1 UNK         0.0600 
    159 H159       -3.5633  -16.8153  -43.4555 H         1 UNK         0.3000 
    160 H160       -1.8734  -15.4990  -42.1529 H         1 UNK         0.0600 
    161 H161       -3.6305  -16.9263  -41.1148 H         1 UNK         0.0600 
    162 H162       -2.4087  -18.0042  -40.4490 H         1 UNK         0.0600 
    163 H163       -2.5396  -16.3446  -39.8724 H         1 UNK         0.0600 
    164 H164       -0.0241  -17.3626  -40.7482 H         1 UNK         0.3000 
    165 H165        2.0209  -15.9754  -39.8739 H         1 UNK         0.0600 
    166 H166        3.5978  -17.5746  -41.1275 H         1 UNK         0.0600 
    167 H167        1.9547  -18.1700  -41.0140 H         1 UNK         0.0600 
    168 H168        2.5222  -17.4656  -42.5194 H         1 UNK         0.0600 
    169 H169        2.7493  -14.4111  -42.1774 H         1 UNK         0.3000 
    170 H170        5.3653  -12.8842  -40.6213 H         1 UNK         0.0600 
    171 H171        6.1630  -14.9295  -42.7617 H         1 UNK         0.0600 
    172 H172        7.0253  -13.4353  -42.4025 H         1 UNK         0.0600 
    173 H173        6.9409  -14.7118  -41.1987 H         1 UNK         0.0600 
    174 H174        4.4658  -13.2957  -43.4140 H         1 UNK         0.3000 
    175 H175        2.2314  -11.4711  -43.8049 H         1 UNK         0.0600 
    176 H176        4.0336   -9.0344  -43.3636 H         1 UNK         0.0600 
    177 H177        2.6868   -9.1064  -44.4995 H         1 UNK         0.0600 
    178 H178        2.3909   -9.2454  -42.7752 H         1 UNK         0.0600 
    179 H179        3.4689  -11.9548  -45.5574 H         1 UNK         0.3000 
    180 H180        6.2119  -11.0677  -47.0501 H         1 UNK         0.0600 
    181 H181        7.5520  -13.1867  -46.9000 H         1 UNK         0.0600 
    182 H182        6.8614  -13.5114  -45.3103 H         1 UNK         0.0600 
    183 H183        7.8971  -12.1101  -45.5570 H         1 UNK         0.0600 
    184 H184        4.6517  -13.5666  -46.5297 H         1 UNK         0.3000 
    185 H185        2.4416  -12.9126  -49.1797 H         1 UNK         0.0600 
    186 H186        4.2566  -13.9891  -50.5205 H         1 UNK         0.0600 
    187 H187        4.5817  -15.1103  -49.2039 H         1 UNK         0.0600 
    188 H188        3.0351  -15.1607  -50.0518 H         1 UNK         0.0600 
    189 H189        2.7894  -15.2012  -47.5047 H         1 UNK         0.3000 
    190 H190       -2.4379  -22.2466  -46.4176 H         1 UNK         0.3000 
    191 H191       -3.6045  -24.3214  -47.8474 H         1 UNK         0.0600 
    192 H192       -4.7335  -22.8120  -46.1707 H         1 UNK         0.0600 
    193 H193       -3.9904  -23.7566  -44.8761 H         1 UNK         0.0600 
    194 H194       -5.1388  -24.5105  -45.9669 H         1 UNK         0.0600 
    195 H195       -1.1849  -24.5985  -45.2775 H         1 UNK         0.3000 
    196 H196       -1.3987  -27.4554  -44.9256 H         1 UNK         0.0600 
    197 H197       -0.4680  -25.9674  -43.1790 H         1 UNK         0.0600 
    198 H198        0.8393  -25.4714  -44.2529 H         1 UNK         0.0600 
    199 H199        0.7480  -27.1329  -43.6765 H         1 UNK         0.0600 
    200 H200        0.0888  -25.4920  -47.4092 H         1 UNK         0.3000 
    201 H201        2.0192  -27.6363  -48.1812 H         1 UNK         0.0600 
    202 H202        2.9835  -25.3982  -47.7044 H         1 UNK         0.0600 
    203 H203        1.9143  -24.6597  -48.8936 H         1 UNK         0.0600 
    204 H204        3.1509  -25.8021  -49.4068 H         1 UNK         0.0600 
    205 H205       -0.7064  -25.6323  -49.3888 H         1 UNK         0.3000 
    206 H206       -1.1028  -27.4100  -51.6939 H         1 UNK         0.0600 
    207 H207        0.5366  -25.6706  -52.5141 H         1 UNK         0.0600 
    208 H208       -1.0289  -25.4545  -53.2746 H         1 UNK         0.0600 
    209 H209       -0.5417  -24.3914  -51.9597 H         1 UNK         0.0600 
    210 H210       -3.0897  -26.5237  -52.9436 H         1 UNK         0.3000 
    211 H211       -5.3086  -26.0635  -51.1055 H         1 UNK         0.0600 
    212 H212       -5.1438  -26.2468  -54.1637 H         1 UNK         0.0600 
    213 H213       -6.6335  -26.1290  -53.2358 H         1 UNK         0.0600 
    214 H214       -5.6022  -27.5404  -53.0584 H         1 UNK         0.0600 
    215 H215       -4.8557  -24.0495  -50.1581 H         1 UNK         0.3000 
    216 H216       -3.9438  -21.7333  -51.2985 H         1 UNK         0.0600 
    217 H217       -4.9218  -20.6159  -49.2709 H         1 UNK         0.0600 
    218 H218       -4.1081  -22.1098  -48.8786 H         1 UNK         0.0600 
    219 H219       -5.8700  -22.0586  -48.9404 H         1 UNK         0.0600 
    220 H220       -7.2784  -22.8439  -51.2962 H         1 UNK         0.3000 
    221 H221       -8.5144  -20.4719  -52.3527 H         1 UNK         0.0600 
    222 H222       -9.4658  -23.3845  -52.2478 H         1 UNK         0.0600 
    223 H223       -9.7372  -22.1658  -51.0009 H         1 UNK         0.0600 
    224 H224      -10.4811  -21.9865  -52.5799 H         1 UNK         0.0600 
    225 H225       -6.4235  -22.6509  -53.8909 H         1 UNK         0.3000 
    226 H226       -7.4310  -21.8400  -56.5941 H         1 UNK         0.0600 
    227 H227       -7.6029  -24.3074  -56.2754 H         1 UNK         0.0600 
    228 H228       -6.3507  -23.9098  -57.4428 H         1 UNK         0.0600 
    229 H229       -5.9057  -24.3825  -55.8071 H         1 UNK         0.0600 
    230 H230       -4.6303  -22.4025  -54.4429 H         1 UNK         0.3000 
    231 H231       -2.6020  -21.7019  -56.2111 H         1 UNK         0.0600 
    232 H232       -1.2012  -21.5678  -54.1543 H         1 UNK         0.0600 
    233 H233       -2.2711  -22.9600  -54.0950 H         1 UNK         0.0600 
    234 H234       -2.6461  -21.5159  -53.1572 H         1 UNK         0.0600 
    235 H235       -4.5601  -19.5104  -54.1933 H         1 UNK         0.3000 
    236 H236       -3.5713  -17.2570  -55.7408 H         1 UNK         0.0600 
    237 H237       -3.0663  -17.1995  -52.7236 H         1 UNK         0.0600 
    238 H238       -1.8061  -17.3528  -53.9462 H         1 UNK         0.0600 
    239 H239       -2.7731  -15.8903  -53.8517 H         1 UNK         0.0600 
    240 H240       -5.6500  -18.4089  -53.0318 H         1 UNK         0.3000 
    241 H241       -7.3794  -16.0501  -53.3035 H         1 UNK         0.0600 
    242 H242       -7.2701  -18.3593  -55.4895 H         1 UNK         0.3800 
    243 H243       -8.9701  -18.6957  -55.6935 H         1 UNK         0.3800 
    244 H244       -7.5611  -18.3849  -51.3618 H         1 UNK         0.0800 
    245 H245       -8.5759  -16.9714  -51.3383 H         1 UNK         0.0800 
    246 H246       -5.9939  -17.5766  -48.5461 H         1 UNK         0.0800 
    247 H247       -5.9291  -18.6608  -49.9074 H         1 UNK         0.0800 
@<TRIPOS>BOND
     1    1    2 1    
     2    1  127 1    
     3    1  128 1    
     4    1  129 1    
     5    2    3 2    
     6    2    4 am   BACKBONE|DICT|INTERRES
     7    4    5 1    
     8    4  130 1    
     9    5    6 1    
    10    5   65 1    
    11    5  131 1    
    12    6    7 1    
    13    6  132 1    
    14    6  133 1    
    15    7    8 1    
    16    8    9 1    
    17    8  134 1    
    18    8  135 1    
    19    9   10 ar   
    20    9   14 ar   
    21   10   11 ar   
    22   10  136 1    
    23   11   12 ar   
    24   11  126 1    
    25   12   13 ar   
    26   12  137 1    
    27   13   14 ar   
    28   13   15 1    
    29   14  138 1    
    30   15   16 1    
    31   15  139 1    
    32   15  140 1    
    33   16   17 1    
    34   17   18 1    
    35   17  141 1    
    36   17  142 1    
    37   18   19 1    
    38   18   67 1    
    39   18  143 1    
    40   19   20 am   BACKBONE|DICT|INTERRES
    41   19  144 1    
    42   20   21 2    
    43   20   22 1    
    44   22   23 1    
    45   22   24 1    
    46   22  145 1    
    47   23  146 1    
    48   23  147 1    
    49   23  148 1    
    50   24   25 am   BACKBONE|DICT|INTERRES
    51   24  149 1    
    52   25   26 2    
    53   25   27 1    
    54   27   28 1    
    55   27   29 1    
    56   27  150 1    
    57   28  151 1    
    58   28  152 1    
    59   28  153 1    
    60   29   30 am   BACKBONE|DICT|INTERRES
    61   29  154 1    
    62   30   31 2    
    63   30   32 1    
    64   32   33 1    
    65   32   34 1    
    66   32  155 1    
    67   33  156 1    
    68   33  157 1    
    69   33  158 1    
    70   34   35 am   BACKBONE|DICT|INTERRES
    71   34  159 1    
    72   35   36 2    
    73   35   37 1    
    74   37   38 1    
    75   37   39 1    
    76   37  160 1    
    77   38  161 1    
    78   38  162 1    
    79   38  163 1    
    80   39   40 am   BACKBONE|DICT|INTERRES
    81   39  164 1    
    82   40   41 2    
    83   40   42 1    
    84   42   43 1    
    85   42   44 1    
    86   42  165 1    
    87   43  166 1    
    88   43  167 1    
    89   43  168 1    
    90   44   45 am   BACKBONE|DICT|INTERRES
    91   44  169 1    
    92   45   46 2    
    93   45   47 1    
    94   47   48 1    
    95   47   49 1    
    96   47  170 1    
    97   48  171 1    
    98   48  172 1    
    99   48  173 1    
   100   49   50 am   BACKBONE|DICT|INTERRES
   101   49  174 1    
   102   50   51 2    
   103   50   52 1    
   104   52   53 1    
   105   52   54 1    
   106   52  175 1    
   107   53  176 1    
   108   53  177 1    
   109   53  178 1    
   110   54   55 am   BACKBONE|DICT|INTERRES
   111   54  179 1    
   112   55   56 2    
   113   55   57 1    
   114   57   58 1    
   115   57   59 1    
   116   57  180 1    
   117   58  181 1    
   118   58  182 1    
   119   58  183 1    
   120   59   60 am   BACKBONE|DICT|INTERRES
   121   59  184 1    
   122   60   61 2    
   123   60   62 1    
   124   62   63 1    
   125   62   64 1    
   126   62  185 1    
   127   63  186 1    
   128   63  187 1    
   129   63  188 1    
   130   64   65 am   BACKBONE|DICT|INTERRES
   131   64  189 1    
   132   65   66 2    
   133   67   68 2    
   134   67   69 am   BACKBONE|DICT|INTERRES
   135   69   70 1    
   136   69  190 1    
   137   70   71 1    
   138   70   72 1    
   139   70  191 1    
   140   71  192 1    
   141   71  193 1    
   142   71  194 1    
   143   72   73 2    
   144   72   74 am   BACKBONE|DICT|INTERRES
   145   74   75 1    
   146   74  195 1    
   147   75   76 1    
   148   75   77 1    
   149   75  196 1    
   150   76  197 1    
   151   76  198 1    
   152   76  199 1    
   153   77   78 2    
   154   77   79 am   BACKBONE|DICT|INTERRES
   155   79   80 1    
   156   79  200 1    
   157   80   81 1    
   158   80   82 1    
   159   80  201 1    
   160   81  202 1    
   161   81  203 1    
   162   81  204 1    
   163   82   83 2    
   164   82   84 am   BACKBONE|DICT|INTERRES
   165   84   85 1    
   166   84  205 1    
   167   85   86 1    
   168   85   87 1    
   169   85  206 1    
   170   86  207 1    
   171   86  208 1    
   172   86  209 1    
   173   87   88 2    
   174   87   89 am   BACKBONE|DICT|INTERRES
   175   89   90 1    
   176   89  210 1    
   177   90   91 1    
   178   90   92 1    
   179   90  211 1    
   180   91  212 1    
   181   91  213 1    
   182   91  214 1    
   183   92   93 2    
   184   92   94 am   BACKBONE|DICT|INTERRES
   185   94   95 1    
   186   94  215 1    
   187   95   96 1    
   188   95   97 1    
   189   95  216 1    
   190   96  217 1    
   191   96  218 1    
   192   96  219 1    
   193   97   98 2    
   194   97   99 am   BACKBONE|DICT|INTERRES
   195   99  100 1    
   196   99  220 1    
   197  100  101 1    
   198  100  102 1    
   199  100  221 1    
   200  101  222 1    
   201  101  223 1    
   202  101  224 1    
   203  102  103 2    
   204  102  104 am   BACKBONE|DICT|INTERRES
   205  104  105 1    
   206  104  225 1    
   207  105  106 1    
   208  105  107 1    
   209  105  226 1    
   210  106  227 1    
   211  106  228 1    
   212  106  229 1    
   213  107  108 2    
   214  107  109 am   BACKBONE|DICT|INTERRES
   215  109  110 1    
   216  109  230 1    
   217  110  111 1    
   218  110  112 1    
   219  110  231 1    
   220  111  232 1    
   221  111  233 1    
   222  111  234 1    
   223  112  113 2    
   224  112  114 am   BACKBONE|DICT|INTERRES
   225  114  115 1    
   226  114  235 1    
   227  115  116 1    
   228  115  117 1    
   229  115  236 1    
   230  116  237 1    
   231  116  238 1    
   232  116  239 1    
   233  117  118 2    
   234  117  119 am   BACKBONE|DICT|INTERRES
   235  119  120 1    
   236  119  240 1    
   237  120  121 1    
   238  120  124 1    
   239  120  241 1    
   240  121  122 am   BACKBONE|DICT|INTERRES
   241  121  123 2    
   242  122  242 1    
   243  122  243 1    
   244  124  125 1    
   245  124  244 1    
   246  124  245 1    
   247  125  126 1    
   248  126  246 1    
   249  126  247 1    
@<TRIPOS>SUBSTRUCTURE
     1 UNK         1 GROUP             0       ****    0 ROOT    
