@<TRIPOS>MOLECULE
3R540
247   249    1
SMALL
USER_CHARGES


@<TRIPOS>ATOM
      1 CA          4.4335  -18.6371  -48.7415 C.3       0 UNK        -0.1800 
      2 C           3.2316  -17.7229  -48.5577 C.2       0 UNK         0.5000 
      3 O           3.0928  -16.7550  -49.3053 O.2       0 UNK        -0.5000 
      4 N           2.3712  -18.0219  -47.5735 N.am      1 UNK        -0.5000 
      5 CA          1.1872  -17.2428  -47.1916 C.3       1 UNK         0.1400 
      6 C6          0.0325  -17.3562  -48.2254 C.3       23 UNK        -0.0398 
      7 S7         -0.7693  -18.9917  -48.1540 S.3       23 UNK        -0.2404 
      8 C8         -2.4227  -18.5078  -47.5639 C.3       23 UNK        -0.0205 
      9 C9         -3.2816  -19.7268  -47.2900 C.ar      23 UNK        -0.0193 
     10 C10        -3.9165  -20.3950  -48.3407 C.ar      23 UNK        -0.1150 
     11 C11        -4.6646  -21.5506  -48.0939 C.ar      23 UNK        -0.0193 
     12 C12        -4.7735  -22.0309  -46.7851 C.ar      23 UNK        -0.1150 
     13 C13        -4.1452  -21.3661  -45.7280 C.ar      23 UNK        -0.0193 
     14 C14        -3.4160  -20.2044  -45.9850 C.ar      23 UNK        -0.1150 
     15 C15        -4.2258  -21.9247  -44.3174 C.3       23 UNK        -0.0205 
     16 S16        -3.0350  -23.2814  -44.0813 S.3       23 UNK        -0.2404 
     17 C17        -1.4864  -22.3933  -43.6654 C.3       23 UNK        -0.0398 
     18 CA         -0.5434  -21.9441  -44.8228 C.3       11 UNK         0.1400 
     19 N           0.8251  -21.7564  -44.3366 N.am      11 UNK        -0.5000 
     20 C           1.8366  -21.2167  -45.0314 C.2       10 UNK         0.5000 
     21 O           1.7068  -20.6998  -46.1432 O.2       10 UNK        -0.5000 
     22 CA          3.2148  -21.2657  -44.3494 C.3       10 UNK         0.1400 
     23 CB          4.2789  -20.4211  -45.0726 C.3       10 UNK        -0.1800 
     24 N           3.0788  -20.7994  -42.9739 N.am      10 UNK        -0.5000 
     25 C           3.4237  -21.4778  -41.8747 C.2       9 UNK         0.5000 
     26 O           3.9732  -22.5797  -41.8928 O.2       9 UNK        -0.5000 
     27 CA          3.0701  -20.8316  -40.5212 C.3       9 UNK         0.1400 
     28 CB          4.2266  -19.9566  -40.0162 C.3       9 UNK        -0.1800 
     29 N           1.8368  -20.0396  -40.5465 N.am      9 UNK        -0.5000 
     30 C           0.6094  -20.5500  -40.7273 C.2       8 UNK         0.5000 
     31 O           0.3916  -21.7375  -40.9684 O.2       8 UNK        -0.5000 
     32 CA         -0.5714  -19.5725  -40.6249 C.3       8 UNK         0.1400 
     33 CB         -0.8545  -19.2122  -39.1579 C.3       8 UNK        -0.1800 
     34 N          -0.3043  -18.3511  -41.3779 N.am      8 UNK        -0.5000 
     35 C          -0.7169  -18.1261  -42.6325 C.2       7 UNK         0.5000 
     36 O          -1.4170  -18.9070  -43.2747 O.2       7 UNK        -0.5000 
     37 CA         -0.2794  -16.7995  -43.2854 C.3       7 UNK         0.1400 
     38 CB         -1.3232  -15.7146  -42.9828 C.3       7 UNK        -0.1800 
     39 N           1.0407  -16.3260  -42.8612 N.am      7 UNK        -0.5000 
     40 C           2.1834  -17.0235  -42.9231 C.2       6 UNK         0.5000 
     41 O           2.2718  -18.1452  -43.4175 O.2       6 UNK        -0.5000 
     42 CA          3.4121  -16.4130  -42.2193 C.3       6 UNK         0.1400 
     43 CB          4.2718  -15.5902  -43.1894 C.3       6 UNK        -0.1800 
     44 N           3.0769  -15.6109  -41.0351 N.am      6 UNK        -0.5000 
     45 C           2.4157  -16.0695  -39.9607 C.2       5 UNK         0.5000 
     46 O           2.0028  -17.2264  -39.8666 O.2       5 UNK        -0.5000 
     47 CA          2.1377  -15.0882  -38.8048 C.3       5 UNK         0.1400 
     48 CB          2.9145  -15.5212  -37.5520 C.3       5 UNK        -0.1800 
     49 N           2.4844  -13.6952  -39.1070 N.am      5 UNK        -0.5000 
     50 C           1.7603  -12.7814  -39.7703 C.2       4 UNK         0.5000 
     51 O           2.1780  -11.6320  -39.9165 O.2       4 UNK        -0.5000 
     52 CA          0.3674  -13.1472  -40.3422 C.3       4 UNK         0.1400 
     53 CB         -0.7373  -12.8425  -39.3188 C.3       4 UNK        -0.1800 
     54 N           0.0843  -12.4072  -41.5749 N.am      4 UNK        -0.5000 
     55 C           0.7554  -12.5795  -42.7201 C.2       3 UNK         0.5000 
     56 O           1.5983  -13.4643  -42.8725 O.2       3 UNK        -0.5000 
     57 CA          0.4511  -11.5871  -43.8586 C.3       3 UNK         0.1400 
     58 CB          1.0596  -10.2099  -43.5471 C.3       3 UNK        -0.1800 
     59 N           0.9858  -12.0455  -45.1421 N.am      3 UNK        -0.5000 
     60 C           0.4180  -12.9685  -45.9276 C.2       2 UNK         0.5000 
     61 O          -0.6750  -13.4853  -45.6870 O.2       2 UNK        -0.5000 
     62 CA          1.1552  -13.3493  -47.2313 C.3       2 UNK         0.1400 
     63 CB          2.6245  -12.8713  -47.3046 C.3       2 UNK        -0.1800 
     64 N           1.0393  -14.7841  -47.5149 N.am      2 UNK        -0.5000 
     65 C           1.5703  -15.7919  -46.8043 C.2       1 UNK         0.5000 
     66 O           2.3400  -15.6226  -45.8601 O.2       1 UNK        -0.5000 
     67 C          -0.5439  -22.8864  -46.0476 C.2       11 UNK         0.5000 
     68 O           0.0770  -23.9512  -46.0002 O.2       11 UNK        -0.5000 
     69 N          -1.2308  -22.4558  -47.1140 N.am      12 UNK        -0.5000 
     70 CA         -1.4165  -23.1369  -48.3979 C.3       12 UNK         0.1400 
     71 CB         -2.1966  -24.4553  -48.2156 C.3       12 UNK        -0.1800 
     72 C          -0.1230  -23.3214  -49.2169 C.2       12 UNK         0.5000 
     73 O          -0.1004  -24.1383  -50.1386 O.2       12 UNK        -0.5000 
     74 N           0.9263  -22.5539  -48.8942 N.am      13 UNK        -0.5000 
     75 CA          2.2006  -22.5762  -49.6110 C.3       13 UNK         0.1400 
     76 CB          3.3052  -22.0707  -48.6747 C.3       13 UNK        -0.1800 
     77 C           2.1675  -21.7531  -50.9131 C.2       13 UNK         0.5000 
     78 O           2.9776  -22.0112  -51.8041 O.2       13 UNK        -0.5000 
     79 N           1.2450  -20.7870  -51.0065 N.am      14 UNK        -0.5000 
     80 CA          1.0456  -19.9042  -52.1518 C.3       14 UNK         0.1400 
     81 CB          2.1901  -18.8693  -52.2446 C.3       14 UNK        -0.1800 
     82 C          -0.3482  -19.2588  -52.0449 C.2       14 UNK         0.5000 
     83 O          -1.2525  -19.8554  -51.4532 O.2       14 UNK        -0.5000 
     84 N          -0.4975  -18.0554  -52.6189 N.am      15 UNK        -0.5000 
     85 CA         -1.6942  -17.2094  -52.6155 C.3       15 UNK         0.1400 
     86 CB         -1.9078  -16.5943  -51.2154 C.3       15 UNK        -0.1800 
     87 C          -2.9204  -17.9588  -53.1702 C.2       15 UNK         0.5000 
     88 O          -2.8852  -18.3829  -54.3261 O.2       15 UNK        -0.5000 
     89 N          -3.9583  -18.1477  -52.3440 N.am      16 UNK        -0.5000 
     90 CA         -5.1995  -18.8420  -52.6884 C.3       16 UNK         0.1400 
     91 CB         -6.1577  -18.7950  -51.4894 C.3       16 UNK        -0.1800 
     92 C          -4.9973  -20.2947  -53.1553 C.2       16 UNK         0.5000 
     93 O          -5.7651  -20.7607  -53.9982 O.2       16 UNK        -0.5000 
     94 N          -3.9638  -20.9766  -52.6368 N.am      17 UNK        -0.5000 
     95 CA         -3.6084  -22.3416  -53.0331 C.3       17 UNK         0.1400 
     96 CB         -2.6168  -22.9394  -52.0269 C.3       17 UNK        -0.1800 
     97 C          -3.0357  -22.4179  -54.4584 C.2       17 UNK         0.5000 
     98 O          -3.2440  -23.4214  -55.1392 O.2       17 UNK        -0.5000 
     99 N          -2.3465  -21.3550  -54.8898 N.am      18 UNK        -0.5000 
    100 CA        -1.8191  -21.2206  -56.2445 C.3       18 UNK         0.1400 
    101 CB        -0.5849  -20.3044  -56.2183 C.3       18 UNK        -0.1800 
    102 C         -2.8886  -20.6759  -57.2060 C.2       18 UNK         0.5000 
    103 O         -2.9940  -21.1556  -58.3351 O.2       18 UNK        -0.5000 
    104 N         -3.6519  -19.6773  -56.7432 N.am      19 UNK        -0.5000 
    105 CA        -4.6250  -18.9393  -57.5434 C.3       19 UNK         0.1400 
    106 CB        -4.9590  -17.6175  -56.8349 C.3       19 UNK        -0.1800 
    107 C         -5.9140  -19.7214  -57.8472 C.2       19 UNK         0.5000 
    108 O         -6.4217  -19.6152  -58.9649 O.2       19 UNK        -0.5000 
    109 N         -6.4448  -20.4530  -56.8572 N.am      20 UNK        -0.5000 
    110 CA        -7.7893  -21.0352  -56.9228 C.3       20 UNK         0.1400 
    111 CB        -8.8089  -19.9916  -56.4232 C.3       20 UNK        -0.1800 
    112 C         -7.9158  -22.3658  -56.1604 C.2       20 UNK         0.5000 
    113 O         -9.0361  -22.7653  -55.8368 O.2       20 UNK        -0.5000 
    114 N         -6.7853  -23.0213  -55.8514 N.am      21 UNK        -0.5000 
    115 CA        -6.6853  -24.2744  -55.0841 C.3       21 UNK         0.1400 
    116 CB        -7.2212  -25.4579  -55.9161 C.3       21 UNK        -0.1800 
    117 C         -7.3309  -24.1922  -53.6797 C.2       21 UNK         0.5000 
    118 O         -7.8399  -25.1910  -53.1690 O.2       21 UNK        -0.5000 
    119 N         -7.3081  -22.9883  -53.0934 N.am      22 UNK        -0.5000 
    120 CA        -7.9783  -22.5997  -51.8439 C.3       22 UNK         0.1400 
    121 C         -9.5344  -22.5113  -51.9341 C.2       22 UNK         0.5000 
    122 N        -10.1419  -22.5544  -53.1147 N.am      22 UNK        -0.7600 
    123 O        -10.2102  -22.3701  -50.9188 O.2       22 UNK        -0.5000 
    124 C124       -7.4734  -23.4042  -50.6096 C.3       23 UNK        -0.0398 
    125 S125       -7.1065  -22.3319  -49.1772 S.3       23 UNK        -0.2404 
    126 C126       -5.2900  -22.3235  -49.2445 C.3       23 UNK        -0.0205 
    127 H127        4.2919  -19.2721  -49.6161 H         1 UNK         0.0600 
    128 H128        4.5952  -19.2707  -47.8709 H         1 UNK         0.0600 
    129 H129        5.3358  -18.0447  -48.8935 H         1 UNK         0.0600 
    130 H130        2.5136  -18.8558  -47.0157 H         1 UNK         0.3000 
    131 H131        0.8394  -17.6942  -46.2616 H         1 UNK         0.0600 
    132 H132        0.3954  -17.1894  -49.2403 H         1 UNK         0.0800 
    133 H133       -0.7363  -16.6032  -48.0482 H         1 UNK         0.0800 
    134 H134       -2.3229  -17.9075  -46.6577 H         1 UNK         0.0800 
    135 H135       -2.9119  -17.8741  -48.3040 H         1 UNK         0.0800 
    136 H136       -3.7958  -20.0318  -49.3515 H         1 UNK         0.1150 
    137 H137       -5.3289  -22.9383  -46.5931 H         1 UNK         0.1150 
    138 H138       -2.9275  -19.6884  -45.1715 H         1 UNK         0.1150 
    139 H139       -4.0594  -21.1418  -43.5756 H         1 UNK         0.0800 
    140 H140       -5.2325  -22.3052  -44.1382 H         1 UNK         0.0800 
    141 H141       -0.9418  -23.0761  -43.0115 H         1 UNK         0.0800 
    142 H142       -1.7286  -21.5362  -43.0378 H         1 UNK         0.0800 
    143 H143       -0.8812  -20.9631  -45.1601 H         1 UNK         0.0600 
    144 H144        1.0276  -22.1379  -43.4234 H         1 UNK         0.3000 
    145 H145        3.5370  -22.3085  -44.3720 H         1 UNK         0.0600 
    146 H146        5.2303  -20.4488  -44.5416 H         1 UNK         0.0600 
    147 H147        3.9764  -19.3772  -45.1623 H         1 UNK         0.0600 
    148 H148        4.4584  -20.8054  -46.0765 H         1 UNK         0.0600 
    149 H149        2.6373  -19.8865  -42.8812 H         1 UNK         0.3000 
    150 H150        2.9245  -21.6408  -39.8025 H         1 UNK         0.0600 
    151 H151        5.1392  -20.5436  -39.9059 H         1 UNK         0.0600 
    152 H152        3.9990  -19.5220  -39.0426 H         1 UNK         0.0600 
    153 H153        4.4445  -19.1417  -40.7046 H         1 UNK         0.0600 
    154 H154        1.9284  -19.0491  -40.3372 H         1 UNK         0.3000 
    155 H155       -1.4585  -20.0714  -41.0204 H         1 UNK         0.0600 
    156 H156       -1.0659  -20.1070  -38.5711 H         1 UNK         0.0600 
    157 H157       -1.7221  -18.5574  -39.0756 H         1 UNK         0.0600 
    158 H158       -0.0090  -18.7058  -38.6909 H         1 UNK         0.0600 
    159 H159        0.3211  -17.6841  -40.9423 H         1 UNK         0.3000 
    160 H160       -0.2458  -16.9540  -44.3639 H         1 UNK         0.0600 
    161 H161       -1.3959  -15.5108  -41.9139 H         1 UNK         0.0600 
    162 H162       -2.3127  -16.0174  -43.3278 H         1 UNK         0.0600 
    163 H163       -1.0812  -14.7802  -43.4843 H         1 UNK         0.0600 
    164 H164        1.1092  -15.3610  -42.5566 H         1 UNK         0.3000 
    165 H165        4.0247  -17.2466  -41.8762 H         1 UNK         0.0600 
    166 H166        5.1889  -15.2458  -42.7117 H         1 UNK         0.0600 
    167 H167        4.5601  -16.1900  -44.0537 H         1 UNK         0.0600 
    168 H168        3.7400  -14.7174  -43.5662 H         1 UNK         0.0600 
    169 H169        3.3540  -14.6400  -41.0564 H         1 UNK         0.3000 
    170 H170        1.0748  -15.1559  -38.5685 H         1 UNK         0.0600 
    171 H171        3.9926  -15.4874  -37.7141 H         1 UNK         0.0600 
    172 H172        2.6822  -14.8790  -36.7021 H         1 UNK         0.0600 
    173 H173        2.6585  -16.5418  -37.2631 H         1 UNK         0.0600 
    174 H174        3.3834  -13.4014  -38.7540 H         1 UNK         0.3000 
    175 H175        0.3292  -14.2081  -40.5876 H         1 UNK         0.0600 
    176 H176       -0.7725  -11.7810  -39.0701 H         1 UNK         0.0600 
    177 H177       -1.7174  -13.1308  -39.6993 H         1 UNK         0.0600 
    178 H178       -0.5777  -13.3895  -38.3891 H         1 UNK         0.0600 
    179 H179       -0.5690  -11.6414  -41.4986 H         1 UNK         0.3000 
    180 H180       -0.6327  -11.4816  -43.9417 H         1 UNK         0.0600 
    181 H181        0.8391   -9.4928  -44.3381 H         1 UNK         0.0600 
    182 H182        2.1435  -10.2654  -43.4364 H         1 UNK         0.0600 
    183 H183        0.6577   -9.7999  -42.6198 H         1 UNK         0.0600 
    184 H184        1.9022  -11.7038  -45.3903 H         1 UNK         0.3000 
    185 H185        0.6140  -12.8457  -48.0335 H         1 UNK         0.0600 
    186 H186        2.6853  -11.7826  -47.3114 H         1 UNK         0.0600 
    187 H187        3.2184  -13.2311  -46.4637 H         1 UNK         0.0600 
    188 H188        3.1026  -13.2216  -48.2196 H         1 UNK         0.0600 
    189 H189        0.4265  -15.0128  -48.2828 H         1 UNK         0.3000 
    190 H190       -1.6987  -21.5611  -47.0449 H         1 UNK         0.3000 
    191 H191       -2.0368  -22.4653  -48.9896 H         1 UNK         0.0600 
    192 H192       -1.5938  -25.2156  -47.7185 H         1 UNK         0.0600 
    193 H193       -2.5075  -24.8631  -49.1780 H         1 UNK         0.0600 
    194 H194       -3.0977  -24.3043  -47.6217 H         1 UNK         0.0600 
    195 H195        0.8483  -21.9137  -48.1140 H         1 UNK         0.3000 
    196 H196        2.4395  -23.6072  -49.8808 H         1 UNK         0.0600 
    197 H197        3.3939  -22.7030  -47.7911 H         1 UNK         0.0600 
    198 H198        3.0973  -21.0568  -48.3391 H         1 UNK         0.0600 
    199 H199        4.2755  -22.0643  -49.1727 H         1 UNK         0.0600 
    200 H200        0.5666  -20.6733  -50.2640 H         1 UNK         0.3000 
    201 H201        1.0435  -20.5132  -53.0578 H         1 UNK         0.0600 
    202 H202        3.1702  -19.3452  -52.2321 H         1 UNK         0.0600 
    203 H203        2.1561  -18.1642  -51.4143 H         1 UNK         0.0600 
    204 H204        2.1368  -18.2967  -53.1708 H         1 UNK         0.0600 
    205 H205        0.2968  -17.6685  -53.1078 H         1 UNK         0.3000 
    206 H206       -1.5016  -16.3911  -53.3106 H         1 UNK         0.0600 
    207 H207       -1.0378  -16.0116  -50.9135 H         1 UNK         0.0600 
    208 H208       -2.7622  -15.9165  -51.2041 H         1 UNK         0.0600 
    209 H209       -2.0726  -17.3585  -50.4570 H         1 UNK         0.0600 
    210 H210       -3.8894  -17.7876  -51.4040 H         1 UNK         0.3000 
    211 H211       -5.6613  -18.2958  -53.5126 H         1 UNK         0.0600 
    212 H212       -6.3390  -17.7693  -51.1677 H         1 UNK         0.0600 
    213 H213       -5.7689  -19.3509  -50.6357 H         1 UNK         0.0600 
    214 H214       -7.1259  -19.2247  -51.7478 H         1 UNK         0.0600 
    215 H215       -3.3295  -20.5061  -52.0016 H         1 UNK         0.3000 
    216 H216       -4.5123  -22.9514  -53.0070 H         1 UNK         0.0600 
    217 H217       -2.3660  -23.9679  -52.2899 H         1 UNK         0.0600 
    218 H218       -3.0371  -22.9614  -51.0244 H         1 UNK         0.0600 
    219 H219       -1.6828  -22.3789  -51.9919 H         1 UNK         0.0600 
    220 H220       -2.2795  -20.5420  -54.2921 H         1 UNK         0.3000 
    221 H221       -1.5013  -22.1993  -56.6110 H         1 UNK         0.0600 
    222 H222       -0.8256  -19.3059  -55.8519 H         1 UNK         0.0600 
    223 H223        0.1961  -20.7158  -55.5788 H         1 UNK         0.0600 
    224 H224       -0.1616  -20.1935  -57.2173 H         1 UNK         0.0600 
    225 H225       -3.4566  -19.3064  -55.8164 H         1 UNK         0.3000 
    226 H226       -4.1566  -18.6939  -58.4991 H         1 UNK         0.0600 
    227 H227       -4.0636  -17.0145  -56.6822 H         1 UNK         0.0600 
    228 H228       -5.6559  -17.0215  -57.4256 H         1 UNK         0.0600 
    229 H229       -5.4169  -17.7882  -55.8605 H         1 UNK         0.0600 
    230 H230       -5.9892  -20.4823  -55.9498 H         1 UNK         0.3000 
    231 H231       -8.0322  -21.2795  -57.9588 H         1 UNK         0.0600 
    232 H232       -9.8318  -20.3600  -56.5084 H         1 UNK         0.0600 
    233 H233       -8.7529  -19.0715  -57.0050 H         1 UNK         0.0600 
    234 H234       -8.6351  -19.7372  -55.3768 H         1 UNK         0.0600 
    235 H235       -5.9083  -22.6184  -56.1494 H         1 UNK         0.3000 
    236 H236       -5.6244  -24.4528  -54.9140 H         1 UNK         0.0600 
    237 H237       -8.2975  -25.3867  -56.0755 H         1 UNK         0.0600 
    238 H238       -6.7395  -25.5024  -56.8928 H         1 UNK         0.0600 
    239 H239       -7.0267  -26.4081  -55.4175 H         1 UNK         0.0600 
    240 H240       -6.8593  -22.2255  -53.5937 H         1 UNK         0.3000 
    241 H241       -7.6691  -21.5631  -51.7147 H         1 UNK         0.0600 
    242 H242      -11.1463  -22.4855  -53.1504 H         1 UNK         0.3800 
    243 H243       -9.6225  -22.6711  -53.9795 H         1 UNK         0.3800 
    244 H244       -6.5702  -23.9628  -50.8578 H         1 UNK         0.0800 
    245 H245       -8.1958  -24.1643  -50.3071 H         1 UNK         0.0800 
    246 H246       -4.9845  -21.9002  -50.2008 H         1 UNK         0.0800 
    247 H247       -4.9197  -23.3492  -49.2213 H         1 UNK         0.0800 
@<TRIPOS>BOND
     1    1    2 1    
     2    1  127 1    
     3    1  128 1    
     4    1  129 1    
     5    2    3 2    
     6    2    4 am   BACKBONE|DICT|INTERRES
     7    4    5 1    
     8    4  130 1    
     9    5    6 1    
    10    5   65 1    
    11    5  131 1    
    12    6    7 1    
    13    6  132 1    
    14    6  133 1    
    15    7    8 1    
    16    8    9 1    
    17    8  134 1    
    18    8  135 1    
    19    9   10 ar   
    20    9   14 ar   
    21   10   11 ar   
    22   10  136 1    
    23   11   12 ar   
    24   11  126 1    
    25   12   13 ar   
    26   12  137 1    
    27   13   14 ar   
    28   13   15 1    
    29   14  138 1    
    30   15   16 1    
    31   15  139 1    
    32   15  140 1    
    33   16   17 1    
    34   17   18 1    
    35   17  141 1    
    36   17  142 1    
    37   18   19 1    
    38   18   67 1    
    39   18  143 1    
    40   19   20 am   BACKBONE|DICT|INTERRES
    41   19  144 1    
    42   20   21 2    
    43   20   22 1    
    44   22   23 1    
    45   22   24 1    
    46   22  145 1    
    47   23  146 1    
    48   23  147 1    
    49   23  148 1    
    50   24   25 am   BACKBONE|DICT|INTERRES
    51   24  149 1    
    52   25   26 2    
    53   25   27 1    
    54   27   28 1    
    55   27   29 1    
    56   27  150 1    
    57   28  151 1    
    58   28  152 1    
    59   28  153 1    
    60   29   30 am   BACKBONE|DICT|INTERRES
    61   29  154 1    
    62   30   31 2    
    63   30   32 1    
    64   32   33 1    
    65   32   34 1    
    66   32  155 1    
    67   33  156 1    
    68   33  157 1    
    69   33  158 1    
    70   34   35 am   BACKBONE|DICT|INTERRES
    71   34  159 1    
    72   35   36 2    
    73   35   37 1    
    74   37   38 1    
    75   37   39 1    
    76   37  160 1    
    77   38  161 1    
    78   38  162 1    
    79   38  163 1    
    80   39   40 am   BACKBONE|DICT|INTERRES
    81   39  164 1    
    82   40   41 2    
    83   40   42 1    
    84   42   43 1    
    85   42   44 1    
    86   42  165 1    
    87   43  166 1    
    88   43  167 1    
    89   43  168 1    
    90   44   45 am   BACKBONE|DICT|INTERRES
    91   44  169 1    
    92   45   46 2    
    93   45   47 1    
    94   47   48 1    
    95   47   49 1    
    96   47  170 1    
    97   48  171 1    
    98   48  172 1    
    99   48  173 1    
   100   49   50 am   BACKBONE|DICT|INTERRES
   101   49  174 1    
   102   50   51 2    
   103   50   52 1    
   104   52   53 1    
   105   52   54 1    
   106   52  175 1    
   107   53  176 1    
   108   53  177 1    
   109   53  178 1    
   110   54   55 am   BACKBONE|DICT|INTERRES
   111   54  179 1    
   112   55   56 2    
   113   55   57 1    
   114   57   58 1    
   115   57   59 1    
   116   57  180 1    
   117   58  181 1    
   118   58  182 1    
   119   58  183 1    
   120   59   60 am   BACKBONE|DICT|INTERRES
   121   59  184 1    
   122   60   61 2    
   123   60   62 1    
   124   62   63 1    
   125   62   64 1    
   126   62  185 1    
   127   63  186 1    
   128   63  187 1    
   129   63  188 1    
   130   64   65 am   BACKBONE|DICT|INTERRES
   131   64  189 1    
   132   65   66 2    
   133   67   68 2    
   134   67   69 am   BACKBONE|DICT|INTERRES
   135   69   70 1    
   136   69  190 1    
   137   70   71 1    
   138   70   72 1    
   139   70  191 1    
   140   71  192 1    
   141   71  193 1    
   142   71  194 1    
   143   72   73 2    
   144   72   74 am   BACKBONE|DICT|INTERRES
   145   74   75 1    
   146   74  195 1    
   147   75   76 1    
   148   75   77 1    
   149   75  196 1    
   150   76  197 1    
   151   76  198 1    
   152   76  199 1    
   153   77   78 2    
   154   77   79 am   BACKBONE|DICT|INTERRES
   155   79   80 1    
   156   79  200 1    
   157   80   81 1    
   158   80   82 1    
   159   80  201 1    
   160   81  202 1    
   161   81  203 1    
   162   81  204 1    
   163   82   83 2    
   164   82   84 am   BACKBONE|DICT|INTERRES
   165   84   85 1    
   166   84  205 1    
   167   85   86 1    
   168   85   87 1    
   169   85  206 1    
   170   86  207 1    
   171   86  208 1    
   172   86  209 1    
   173   87   88 2    
   174   87   89 am   BACKBONE|DICT|INTERRES
   175   89   90 1    
   176   89  210 1    
   177   90   91 1    
   178   90   92 1    
   179   90  211 1    
   180   91  212 1    
   181   91  213 1    
   182   91  214 1    
   183   92   93 2    
   184   92   94 am   BACKBONE|DICT|INTERRES
   185   94   95 1    
   186   94  215 1    
   187   95   96 1    
   188   95   97 1    
   189   95  216 1    
   190   96  217 1    
   191   96  218 1    
   192   96  219 1    
   193   97   98 2    
   194   97   99 am   BACKBONE|DICT|INTERRES
   195   99  100 1    
   196   99  220 1    
   197  100  101 1    
   198  100  102 1    
   199  100  221 1    
   200  101  222 1    
   201  101  223 1    
   202  101  224 1    
   203  102  103 2    
   204  102  104 am   BACKBONE|DICT|INTERRES
   205  104  105 1    
   206  104  225 1    
   207  105  106 1    
   208  105  107 1    
   209  105  226 1    
   210  106  227 1    
   211  106  228 1    
   212  106  229 1    
   213  107  108 2    
   214  107  109 am   BACKBONE|DICT|INTERRES
   215  109  110 1    
   216  109  230 1    
   217  110  111 1    
   218  110  112 1    
   219  110  231 1    
   220  111  232 1    
   221  111  233 1    
   222  111  234 1    
   223  112  113 2    
   224  112  114 am   BACKBONE|DICT|INTERRES
   225  114  115 1    
   226  114  235 1    
   227  115  116 1    
   228  115  117 1    
   229  115  236 1    
   230  116  237 1    
   231  116  238 1    
   232  116  239 1    
   233  117  118 2    
   234  117  119 am   BACKBONE|DICT|INTERRES
   235  119  120 1    
   236  119  240 1    
   237  120  121 1    
   238  120  124 1    
   239  120  241 1    
   240  121  122 am   BACKBONE|DICT|INTERRES
   241  121  123 2    
   242  122  242 1    
   243  122  243 1    
   244  124  125 1    
   245  124  244 1    
   246  124  245 1    
   247  125  126 1    
   248  126  246 1    
   249  126  247 1    
@<TRIPOS>SUBSTRUCTURE
     1 UNK         1 GROUP             0       ****    0 ROOT    
