@<TRIPOS>MOLECULE
3R540
247   249    1
SMALL
USER_CHARGES


@<TRIPOS>ATOM
      1 CA         -5.3440  -15.9969  -45.4449 C.3       0 UNK        -0.1800 
      2 C          -3.8445  -15.8451  -45.2369 C.2       0 UNK         0.5000 
      3 O          -3.4102  -14.9357  -44.5307 O.2       0 UNK        -0.5000 
      4 N          -3.0505  -16.7472  -45.8289 N.am      1 UNK        -0.5000 
      5 CA         -1.5784  -16.7365  -45.8166 C.3       1 UNK         0.1400 
      6 C6         -0.9832  -17.7423  -46.8326 C.3       23 UNK        -0.0398 
      7 S7         -1.5652  -17.4398  -48.5389 S.3       23 UNK        -0.2404 
      8 C8         -0.1503  -16.5554  -49.2746 C.3       23 UNK        -0.0205 
      9 C9          0.7763  -17.5046  -50.0193 C.ar      23 UNK        -0.0193 
     10 C10         0.7659  -17.5620  -51.4165 C.ar      23 UNK        -0.1150 
     11 C11         1.6070  -18.4481  -52.0990 C.ar      23 UNK        -0.0193 
     12 C12         2.4381  -19.3071  -51.3703 C.ar      23 UNK        -0.1150 
     13 C13         2.4502  -19.2618  -49.9724 C.ar      23 UNK        -0.0193 
     14 C14         1.6446  -18.3342  -49.3093 C.ar      23 UNK        -0.1150 
     15 C15         3.3204  -20.2125  -49.1615 C.3       23 UNK        -0.0205 
     16 S16         2.4764  -21.7865  -48.7756 S.3       23 UNK        -0.2404 
     17 C17         0.9166  -21.2304  -48.0078 C.3       23 UNK        -0.0398 
     18 CA          0.0566  -22.4087  -47.4965 C.3       11 UNK         0.1400 
     19 N           0.5556  -22.9564  -46.2334 N.am      11 UNK        -0.5000 
     20 C           0.1805  -24.1351  -45.7173 C.2       10 UNK         0.5000 
     21 O          -0.5833  -24.9163  -46.2830 O.2       10 UNK        -0.5000 
     22 CA          0.7043  -24.4672  -44.3072 C.3       10 UNK         0.1400 
     23 CB          2.1275  -25.0403  -44.3779 C.3       10 UNK        -0.1800 
     24 N           0.6915  -23.3020  -43.4194 N.am      10 UNK        -0.5000 
     25 C          -0.4210  -22.6720  -43.0145 C.2       9 UNK         0.5000 
     26 O          -1.5564  -23.0586  -43.2878 O.2       9 UNK        -0.5000 
     27 CA         -0.2399  -21.3602  -42.2246 C.3       9 UNK         0.1400 
     28 CB         -0.2727  -21.6212  -40.7127 C.3       9 UNK        -0.1800 
     29 N           0.9838  -20.6295  -42.5674 N.am      9 UNK        -0.5000 
     30 C           1.2483  -20.1221  -43.7778 C.2       8 UNK         0.5000 
     31 O           0.4662  -20.1913  -44.7292 O.2       8 UNK        -0.5000 
     32 CA          2.6075  -19.4280  -43.9296 C.3       8 UNK         0.1400 
     33 CB          3.0481  -19.3057  -45.3970 C.3       8 UNK        -0.1800 
     34 N           2.5185  -18.0916  -43.3599 N.am      8 UNK        -0.5000 
     35 C           3.3173  -17.5905  -42.4125 C.2       7 UNK         0.5000 
     36 O           4.1776  -18.2510  -41.8267 O.2       7 UNK        -0.5000 
     37 CA          3.1269  -16.0925  -42.0863 C.3       7 UNK         0.1400 
     38 CB          4.2909  -15.4995  -41.2663 C.3       7 UNK        -0.1800 
     39 N           2.8693  -15.2680  -43.2732 N.am      7 UNK        -0.5000 
     40 C           3.6366  -15.1414  -44.3676 C.2       6 UNK         0.5000 
     41 O           4.7133  -15.7189  -44.5228 O.2       6 UNK        -0.5000 
     42 CA          3.1404  -14.1914  -45.4709 C.3       6 UNK         0.1400 
     43 CB          2.1868  -14.9029  -46.4446 C.3       6 UNK        -0.1800 
     44 N           2.4896  -13.0008  -44.9201 N.am      6 UNK        -0.5000 
     45 C           2.7191  -11.7466  -45.3346 C.2       5 UNK         0.5000 
     46 O           3.4660  -11.4626  -46.2723 O.2       5 UNK        -0.5000 
     47 CA          2.0056  -10.6033  -44.5799 C.3       5 UNK         0.1400 
     48 CB          0.7426  -10.1682  -45.3391 C.3       5 UNK        -0.1800 
     49 N           1.6331  -10.9450  -43.2067 N.am      5 UNK        -0.5000 
     50 C           2.4903  -11.2260  -42.2163 C.2       4 UNK         0.5000 
     51 O           3.7114  -11.1057  -42.3209 O.2       4 UNK        -0.5000 
     52 CA          1.8964  -11.7540  -40.8922 C.3       4 UNK         0.1400 
     53 CB          1.9956  -10.6803  -39.7972 C.3       4 UNK        -0.1800 
     54 N           0.5092  -12.2383  -40.9477 N.am      4 UNK        -0.5000 
     55 C           0.0283  -13.2008  -41.7461 C.2       3 UNK         0.5000 
     56 O           0.6676  -13.7125  -42.6685 O.2       3 UNK        -0.5000 
     57 CA         -1.4296  -13.6257  -41.4969 C.3       3 UNK         0.1400 
     58 CB         -2.3886  -12.6976  -42.2570 C.3       3 UNK        -0.1800 
     59 N          -1.6701  -15.0055  -41.9177 N.am      3 UNK        -0.5000 
     60 C          -1.1187  -16.0893  -41.3487 C.2       2 UNK         0.5000 
     61 O          -0.4218  -16.0475  -40.3340 O.2       2 UNK        -0.5000 
     62 CA         -1.3838  -17.4533  -42.0180 C.3       2 UNK         0.1400 
     63 CB         -2.4890  -18.2117  -41.2666 C.3       2 UNK        -0.1800 
     64 N          -1.7674  -17.3348  -43.4238 N.am      2 UNK        -0.5000 
     65 C          -0.9552  -16.9467  -44.4165 C.2       1 UNK         0.5000 
     66 O           0.2468  -16.7412  -44.2578 O.2       1 UNK        -0.5000 
     67 C          -1.4275  -22.0055  -47.3815 C.2       11 UNK         0.5000 
     68 O          -2.1854  -22.2288  -48.3253 O.2       11 UNK        -0.5000 
     69 N          -1.8350  -21.4613  -46.2255 N.am      12 UNK        -0.5000 
     70 CA         -3.2314  -21.1291  -45.9310 C.3       12 UNK         0.1400 
     71 CB         -3.3198  -20.3542  -44.6101 C.3       12 UNK        -0.1800 
     72 C          -4.1324  -22.3771  -45.9011 C.2       12 UNK         0.5000 
     73 O          -5.2006  -22.3666  -46.5122 O.2       12 UNK        -0.5000 
     74 N          -3.6555  -23.4468  -45.2481 N.am      13 UNK        -0.5000 
     75 CA         -4.3036  -24.7599  -45.2007 C.3       13 UNK         0.1400 
     76 CB         -3.5556  -25.6593  -44.2052 C.3       13 UNK        -0.1800 
     77 C          -4.4009  -25.4383  -46.5818 C.2       13 UNK         0.5000 
     78 O          -5.3956  -26.1083  -46.8603 O.2       13 UNK        -0.5000 
     79 N          -3.3872  -25.2238  -47.4315 N.am      14 UNK        -0.5000 
     80 CA         -3.3459  -25.6771  -48.8237 C.3       14 UNK         0.1400 
     81 CB         -1.8844  -25.6867  -49.3002 C.3       14 UNK        -0.1800 
     82 C          -4.2162  -24.8331  -49.7797 C.2       14 UNK         0.5000 
     83 O          -4.3774  -25.2296  -50.9337 O.2       14 UNK        -0.5000 
     84 N          -4.7453  -23.6960  -49.2996 N.am      15 UNK        -0.5000 
     85 CA         -5.5343  -22.6984  -50.0298 C.3       15 UNK         0.1400 
     86 CB         -6.8657  -23.3002  -50.5302 C.3       15 UNK        -0.1800 
     87 C          -4.7245  -22.0058  -51.1455 C.2       15 UNK         0.5000 
     88 O          -5.2562  -21.7622  -52.2299 O.2       15 UNK        -0.5000 
     89 N          -3.4513  -21.7010  -50.8518 N.am      16 UNK        -0.5000 
     90 CA         -2.4497  -21.1374  -51.7595 C.3       16 UNK         0.1400 
     91 CB         -1.1803  -20.8100  -50.9672 C.3       16 UNK        -0.1800 
     92 C          -2.9294  -19.9171  -52.5599 C.2       16 UNK         0.5000 
     93 O          -3.0602  -20.0145  -53.7779 O.2       16 UNK        -0.5000 
     94 N          -3.2115  -18.8070  -51.8680 N.am      17 UNK        -0.5000 
     95 CA         -3.7105  -17.5809  -52.4936 C.3       17 UNK         0.1400 
     96 CB         -3.4218  -16.3900  -51.5686 C.3       17 UNK        -0.1800 
     97 C          -5.2123  -17.6469  -52.8291 C.2       17 UNK         0.5000 
     98 O          -5.6580  -16.9541  -53.7439 O.2       17 UNK        -0.5000 
     99 N          -5.9661  -18.4561  -52.0728 N.am      18 UNK        -0.5000 
    100 CA        -7.4223  -18.5578  -52.1609 C.3       18 UNK         0.1400 
    101 CB        -7.9608  -19.2183  -50.8824 C.3       18 UNK        -0.1800 
    102 C         -7.9052  -19.3080  -53.4143 C.2       18 UNK         0.5000 
    103 O         -8.8309  -18.8402  -54.0785 O.2       18 UNK        -0.5000 
    104 N         -7.2751  -20.4509  -53.7110 N.am      19 UNK        -0.5000 
    105 CA        -7.6236  -21.3332  -54.8273 C.3       19 UNK         0.1400 
    106 CB        -7.7787  -22.7645  -54.2835 C.3       19 UNK        -0.1800 
    107 C         -6.5777  -21.2921  -55.9575 C.2       19 UNK         0.5000 
    108 O         -6.7300  -22.0246  -56.9358 O.2       19 UNK        -0.5000 
    109 N         -5.5284  -20.4691  -55.7984 N.am      20 UNK        -0.5000 
    110 CA        -4.3388  -20.3666  -56.6570 C.3       20 UNK         0.1400 
    111 CB        -4.7076  -19.9017  -58.0815 C.3       20 UNK        -0.1800 
    112 C         -3.4827  -21.6542  -56.6461 C.2       20 UNK         0.5000 
    113 O         -2.7499  -21.9208  -57.6011 O.2       20 UNK        -0.5000 
    114 N         -3.5801  -22.4291  -55.5554 N.am      21 UNK        -0.5000 
    115 CA        -2.9440  -23.7335  -55.3707 C.3       21 UNK         0.1400 
    116 CB        -3.5177  -24.3944  -54.1085 C.3       21 UNK        -0.1800 
    117 C         -1.4047  -23.6875  -55.3181 C.2       21 UNK         0.5000 
    118 O         -0.7692  -24.7095  -55.5805 O.2       21 UNK        -0.5000 
    119 N         -0.8310  -22.5169  -55.0079 N.am      22 UNK        -0.5000 
    120 CA         0.6150  -22.2579  -55.1000 C.3       22 UNK         0.1400 
    121 C          1.1290  -21.9694  -56.5442 C.2       22 UNK         0.5000 
    122 N          0.2745  -21.8578  -57.5562 N.am      22 UNK        -0.7600 
    123 O          2.3342  -21.8636  -56.7551 O.2       22 UNK        -0.5000 
    124 C124        1.0818  -21.1922  -54.0754 C.3       23 UNK        -0.0398 
    125 S125        0.3387  -19.5412  -54.3224 S.3       23 UNK        -0.2404 
    126 C126        1.6238  -18.4590  -53.6218 C.3       23 UNK        -0.0205 
    127 H127       -5.7468  -15.1056  -45.9261 H         1 UNK         0.0600 
    128 H128       -5.5819  -16.8584  -46.0696 H         1 UNK         0.0600 
    129 H129       -5.8447  -16.1235  -44.4849 H         1 UNK         0.0600 
    130 H130       -3.4681  -17.4574  -46.4126 H         1 UNK         0.3000 
    131 H131       -1.2697  -15.7365  -46.1285 H         1 UNK         0.0600 
    132 H132        0.1051  -17.7039  -46.8068 H         1 UNK         0.0800 
    133 H133       -1.2498  -18.7630  -46.5597 H         1 UNK         0.0800 
    134 H134        0.4034  -16.0171  -48.5051 H         1 UNK         0.0800 
    135 H135       -0.5302  -15.7920  -49.9542 H         1 UNK         0.0800 
    136 H136        0.1050  -16.9155  -51.9765 H         1 UNK         0.1150 
    137 H137        3.0737  -20.0107  -51.8889 H         1 UNK         0.1150 
    138 H138        1.6703  -18.2883  -48.2324 H         1 UNK         0.1150 
    139 H139        3.6345  -19.7336  -48.2337 H         1 UNK         0.0800 
    140 H140        4.2372  -20.4314  -49.7108 H         1 UNK         0.0800 
    141 H141        0.3753  -20.6640  -48.7615 H         1 UNK         0.0800 
    142 H142        1.1306  -20.5246  -47.2075 H         1 UNK         0.0800 
    143 H143        0.0998  -23.2037  -48.2438 H         1 UNK         0.0600 
    144 H144        1.1508  -22.3524  -45.6871 H         1 UNK         0.3000 
    145 H145        0.0489  -25.2285  -43.8786 H         1 UNK         0.0600 
    146 H146        2.1612  -25.9206  -45.0213 H         1 UNK         0.0600 
    147 H147        2.4786  -25.3463  -43.3922 H         1 UNK         0.0600 
    148 H148        2.8370  -24.3145  -44.7774 H         1 UNK         0.0600 
    149 H149        1.5862  -22.9283  -43.1402 H         1 UNK         0.3000 
    150 H150       -1.0838  -20.7172  -42.4763 H         1 UNK         0.0600 
    151 H151        0.5702  -22.2339  -40.3910 H         1 UNK         0.0600 
    152 H152       -1.1871  -22.1429  -40.4265 H         1 UNK         0.0600 
    153 H153       -0.2448  -20.6870  -40.1512 H         1 UNK         0.0600 
    154 H154        1.6664  -20.5166  -41.8314 H         1 UNK         0.3000 
    155 H155        3.3496  -20.0326  -43.4044 H         1 UNK         0.0600 
    156 H156        2.3469  -18.7078  -45.9792 H         1 UNK         0.0600 
    157 H157        3.1253  -20.2883  -45.8629 H         1 UNK         0.0600 
    158 H158        4.0272  -18.8323  -45.4731 H         1 UNK         0.0600 
    159 H159        1.7838  -17.4971  -43.7444 H         1 UNK         0.3000 
    160 H160        2.2264  -16.0285  -41.4740 H         1 UNK         0.0600 
    161 H161        5.2398  -15.5776  -41.7979 H         1 UNK         0.0600 
    162 H162        4.4041  -16.0191  -40.3143 H         1 UNK         0.0600 
    163 H163        4.1195  -14.4469  -41.0424 H         1 UNK         0.0600 
    164 H164        1.9785  -14.7762  -43.2434 H         1 UNK         0.3000 
    165 H165        4.0304  -13.8995  -46.0327 H         1 UNK         0.0600 
    166 H166        2.5919  -15.8625  -46.7691 H         1 UNK         0.0600 
    167 H167        1.2157  -15.0886  -45.9891 H         1 UNK         0.0600 
    168 H168        2.0221  -14.2994  -47.3372 H         1 UNK         0.0600 
    169 H169        1.8649  -13.1442  -44.1331 H         1 UNK         0.3000 
    170 H170        2.6931   -9.7559  -44.5408 H         1 UNK         0.0600 
    171 H171        0.2701   -9.3099  -44.8611 H         1 UNK         0.0600 
    172 H172        0.0076  -10.9727  -45.3899 H         1 UNK         0.0600 
    173 H173        0.9824   -9.8773  -46.3627 H         1 UNK         0.0600 
    174 H174        0.6495  -11.0803  -43.0273 H         1 UNK         0.3000 
    175 H175        2.5151  -12.6013  -40.5913 H         1 UNK         0.0600 
    176 H176        3.0192  -10.3179  -39.6924 H         1 UNK         0.0600 
    177 H177        1.3643   -9.8197  -40.0219 H         1 UNK         0.0600 
    178 H178        1.6943  -11.0753  -38.8268 H         1 UNK         0.0600 
    179 H179       -0.1084  -11.8527  -40.2478 H         1 UNK         0.3000 
    180 H180       -1.6402  -13.5546  -40.4279 H         1 UNK         0.0600 
    181 H181       -2.1997  -12.7187  -43.3313 H         1 UNK         0.0600 
    182 H182       -2.2828  -11.6640  -41.9253 H         1 UNK         0.0600 
    183 H183       -3.4277  -12.9854  -42.0957 H         1 UNK         0.0600 
    184 H184       -2.2034  -15.1222  -42.7716 H         1 UNK         0.3000 
    185 H185       -0.4625  -18.0367  -41.9618 H         1 UNK         0.0600 
    186 H186       -2.2025  -18.3900  -40.2293 H         1 UNK         0.0600 
    187 H187       -3.4246  -17.6510  -41.2571 H         1 UNK         0.0600 
    188 H188       -2.6888  -19.1823  -41.7189 H         1 UNK         0.0600 
    189 H189       -2.7455  -17.4585  -43.6376 H         1 UNK         0.3000 
    190 H190       -1.1463  -21.2673  -45.5075 H         1 UNK         0.3000 
    191 H191       -3.5865  -20.4748  -46.7303 H         1 UNK         0.0600 
    192 H192       -2.5897  -19.5501  -44.5847 H         1 UNK         0.0600 
    193 H193       -4.3078  -19.9099  -44.4857 H         1 UNK         0.0600 
    194 H194       -3.1406  -20.9934  -43.7465 H         1 UNK         0.0600 
    195 H195       -2.7894  -23.3505  -44.7243 H         1 UNK         0.3000 
    196 H196       -5.3209  -24.6151  -44.8316 H         1 UNK         0.0600 
    197 H197       -4.0320  -26.6373  -44.1269 H         1 UNK         0.0600 
    198 H198       -3.5468  -25.2202  -43.2074 H         1 UNK         0.0600 
    199 H199       -2.5205  -25.8204  -44.5078 H         1 UNK         0.0600 
    200 H200       -2.5765  -24.7149  -47.0992 H         1 UNK         0.3000 
    201 H201       -3.7206  -26.7019  -48.8636 H         1 UNK         0.0600 
    202 H202       -1.8040  -26.0930  -50.3092 H         1 UNK         0.0600 
    203 H203       -1.2602  -26.3024  -48.6525 H         1 UNK         0.0600 
    204 H204       -1.4623  -24.6823  -49.3194 H         1 UNK         0.0600 
    205 H205       -4.5397  -23.4565  -48.3377 H         1 UNK         0.3000 
    206 H206       -5.7790  -21.9188  -49.3073 H         1 UNK         0.0600 
    207 H207       -7.4148  -23.7720  -49.7154 H         1 UNK         0.0600 
    208 H208       -7.5128  -22.5328  -50.9543 H         1 UNK         0.0600 
    209 H209       -6.7083  -24.0489  -51.3068 H         1 UNK         0.0600 
    210 H210       -3.1068  -21.9464  -49.9259 H         1 UNK         0.3000 
    211 H211       -2.1936  -21.9121  -52.4822 H         1 UNK         0.0600 
    212 H212       -0.4526  -20.2817  -51.5785 H         1 UNK         0.0600 
    213 H213       -0.7006  -21.7204  -50.6085 H         1 UNK         0.0600 
    214 H214       -1.4001  -20.1738  -50.1100 H         1 UNK         0.0600 
    215 H215       -3.0645  -18.7922  -50.8692 H         1 UNK         0.3000 
    216 H216       -3.1708  -17.4165  -53.4291 H         1 UNK         0.0600 
    217 H217       -2.3507  -16.2697  -51.4137 H         1 UNK         0.0600 
    218 H218       -3.8934  -16.5111  -50.5927 H         1 UNK         0.0600 
    219 H219       -3.7913  -15.4588  -52.0000 H         1 UNK         0.0600 
    220 H220       -5.5090  -19.0103  -51.3654 H         1 UNK         0.3000 
    221 H221       -7.8305  -17.5458  -52.2080 H         1 UNK         0.0600 
    222 H222       -7.5330  -20.2080  -50.7288 H         1 UNK         0.0600 
    223 H223       -7.7323  -18.6160  -50.0030 H         1 UNK         0.0600 
    224 H224       -9.0450  -19.3306  -50.9256 H         1 UNK         0.0600 
    225 H225       -6.5231  -20.7821  -53.1085 H         1 UNK         0.3000 
    226 H226       -8.5779  -21.0371  -55.2670 H         1 UNK         0.0600 
    227 H227       -8.5138  -22.8035  -53.4796 H         1 UNK         0.0600 
    228 H228       -8.1165  -23.4475  -55.0637 H         1 UNK         0.0600 
    229 H229       -6.8370  -23.1531  -53.8945 H         1 UNK         0.0600 
    230 H230       -5.4935  -19.9232  -54.9488 H         1 UNK         0.3000 
    231 H231       -3.7157  -19.5843  -56.2234 H         1 UNK         0.0600 
    232 H232       -5.2459  -20.6701  -58.6364 H         1 UNK         0.0600 
    233 H233       -3.8122  -19.6573  -58.6541 H         1 UNK         0.0600 
    234 H234       -5.3290  -19.0065  -58.0559 H         1 UNK         0.0600 
    235 H235       -4.1563  -22.0952  -54.7949 H         1 UNK         0.3000 
    236 H236       -3.2162  -24.3523  -56.2281 H         1 UNK         0.0600 
    237 H237       -3.2904  -23.8217  -53.2105 H         1 UNK         0.0600 
    238 H238       -4.6013  -24.4962  -54.1710 H         1 UNK         0.0600 
    239 H239       -3.1069  -25.3949  -53.9678 H         1 UNK         0.0600 
    240 H240       -1.4200  -21.7131  -54.8366 H         1 UNK         0.3000 
    241 H241        1.1235  -23.1798  -54.8112 H         1 UNK         0.0600 
    242 H242       -0.7266  -21.9432  -57.4192 H         1 UNK         0.3800 
    243 H243        0.6315  -21.6786  -58.4812 H         1 UNK         0.3800 
    244 H244        0.8453  -21.5304  -53.0667 H         1 UNK         0.0800 
    245 H245        2.1690  -21.1055  -54.1037 H         1 UNK         0.0800 
    246 H246        2.6058  -18.7559  -53.9929 H         1 UNK         0.0800 
    247 H247        1.4602  -17.4457  -53.9913 H         1 UNK         0.0800 
@<TRIPOS>BOND
     1    1    2 1    
     2    1  127 1    
     3    1  128 1    
     4    1  129 1    
     5    2    3 2    
     6    2    4 am   BACKBONE|DICT|INTERRES
     7    4    5 1    
     8    4  130 1    
     9    5    6 1    
    10    5   65 1    
    11    5  131 1    
    12    6    7 1    
    13    6  132 1    
    14    6  133 1    
    15    7    8 1    
    16    8    9 1    
    17    8  134 1    
    18    8  135 1    
    19    9   10 ar   
    20    9   14 ar   
    21   10   11 ar   
    22   10  136 1    
    23   11   12 ar   
    24   11  126 1    
    25   12   13 ar   
    26   12  137 1    
    27   13   14 ar   
    28   13   15 1    
    29   14  138 1    
    30   15   16 1    
    31   15  139 1    
    32   15  140 1    
    33   16   17 1    
    34   17   18 1    
    35   17  141 1    
    36   17  142 1    
    37   18   19 1    
    38   18   67 1    
    39   18  143 1    
    40   19   20 am   BACKBONE|DICT|INTERRES
    41   19  144 1    
    42   20   21 2    
    43   20   22 1    
    44   22   23 1    
    45   22   24 1    
    46   22  145 1    
    47   23  146 1    
    48   23  147 1    
    49   23  148 1    
    50   24   25 am   BACKBONE|DICT|INTERRES
    51   24  149 1    
    52   25   26 2    
    53   25   27 1    
    54   27   28 1    
    55   27   29 1    
    56   27  150 1    
    57   28  151 1    
    58   28  152 1    
    59   28  153 1    
    60   29   30 am   BACKBONE|DICT|INTERRES
    61   29  154 1    
    62   30   31 2    
    63   30   32 1    
    64   32   33 1    
    65   32   34 1    
    66   32  155 1    
    67   33  156 1    
    68   33  157 1    
    69   33  158 1    
    70   34   35 am   BACKBONE|DICT|INTERRES
    71   34  159 1    
    72   35   36 2    
    73   35   37 1    
    74   37   38 1    
    75   37   39 1    
    76   37  160 1    
    77   38  161 1    
    78   38  162 1    
    79   38  163 1    
    80   39   40 am   BACKBONE|DICT|INTERRES
    81   39  164 1    
    82   40   41 2    
    83   40   42 1    
    84   42   43 1    
    85   42   44 1    
    86   42  165 1    
    87   43  166 1    
    88   43  167 1    
    89   43  168 1    
    90   44   45 am   BACKBONE|DICT|INTERRES
    91   44  169 1    
    92   45   46 2    
    93   45   47 1    
    94   47   48 1    
    95   47   49 1    
    96   47  170 1    
    97   48  171 1    
    98   48  172 1    
    99   48  173 1    
   100   49   50 am   BACKBONE|DICT|INTERRES
   101   49  174 1    
   102   50   51 2    
   103   50   52 1    
   104   52   53 1    
   105   52   54 1    
   106   52  175 1    
   107   53  176 1    
   108   53  177 1    
   109   53  178 1    
   110   54   55 am   BACKBONE|DICT|INTERRES
   111   54  179 1    
   112   55   56 2    
   113   55   57 1    
   114   57   58 1    
   115   57   59 1    
   116   57  180 1    
   117   58  181 1    
   118   58  182 1    
   119   58  183 1    
   120   59   60 am   BACKBONE|DICT|INTERRES
   121   59  184 1    
   122   60   61 2    
   123   60   62 1    
   124   62   63 1    
   125   62   64 1    
   126   62  185 1    
   127   63  186 1    
   128   63  187 1    
   129   63  188 1    
   130   64   65 am   BACKBONE|DICT|INTERRES
   131   64  189 1    
   132   65   66 2    
   133   67   68 2    
   134   67   69 am   BACKBONE|DICT|INTERRES
   135   69   70 1    
   136   69  190 1    
   137   70   71 1    
   138   70   72 1    
   139   70  191 1    
   140   71  192 1    
   141   71  193 1    
   142   71  194 1    
   143   72   73 2    
   144   72   74 am   BACKBONE|DICT|INTERRES
   145   74   75 1    
   146   74  195 1    
   147   75   76 1    
   148   75   77 1    
   149   75  196 1    
   150   76  197 1    
   151   76  198 1    
   152   76  199 1    
   153   77   78 2    
   154   77   79 am   BACKBONE|DICT|INTERRES
   155   79   80 1    
   156   79  200 1    
   157   80   81 1    
   158   80   82 1    
   159   80  201 1    
   160   81  202 1    
   161   81  203 1    
   162   81  204 1    
   163   82   83 2    
   164   82   84 am   BACKBONE|DICT|INTERRES
   165   84   85 1    
   166   84  205 1    
   167   85   86 1    
   168   85   87 1    
   169   85  206 1    
   170   86  207 1    
   171   86  208 1    
   172   86  209 1    
   173   87   88 2    
   174   87   89 am   BACKBONE|DICT|INTERRES
   175   89   90 1    
   176   89  210 1    
   177   90   91 1    
   178   90   92 1    
   179   90  211 1    
   180   91  212 1    
   181   91  213 1    
   182   91  214 1    
   183   92   93 2    
   184   92   94 am   BACKBONE|DICT|INTERRES
   185   94   95 1    
   186   94  215 1    
   187   95   96 1    
   188   95   97 1    
   189   95  216 1    
   190   96  217 1    
   191   96  218 1    
   192   96  219 1    
   193   97   98 2    
   194   97   99 am   BACKBONE|DICT|INTERRES
   195   99  100 1    
   196   99  220 1    
   197  100  101 1    
   198  100  102 1    
   199  100  221 1    
   200  101  222 1    
   201  101  223 1    
   202  101  224 1    
   203  102  103 2    
   204  102  104 am   BACKBONE|DICT|INTERRES
   205  104  105 1    
   206  104  225 1    
   207  105  106 1    
   208  105  107 1    
   209  105  226 1    
   210  106  227 1    
   211  106  228 1    
   212  106  229 1    
   213  107  108 2    
   214  107  109 am   BACKBONE|DICT|INTERRES
   215  109  110 1    
   216  109  230 1    
   217  110  111 1    
   218  110  112 1    
   219  110  231 1    
   220  111  232 1    
   221  111  233 1    
   222  111  234 1    
   223  112  113 2    
   224  112  114 am   BACKBONE|DICT|INTERRES
   225  114  115 1    
   226  114  235 1    
   227  115  116 1    
   228  115  117 1    
   229  115  236 1    
   230  116  237 1    
   231  116  238 1    
   232  116  239 1    
   233  117  118 2    
   234  117  119 am   BACKBONE|DICT|INTERRES
   235  119  120 1    
   236  119  240 1    
   237  120  121 1    
   238  120  124 1    
   239  120  241 1    
   240  121  122 am   BACKBONE|DICT|INTERRES
   241  121  123 2    
   242  122  242 1    
   243  122  243 1    
   244  124  125 1    
   245  124  244 1    
   246  124  245 1    
   247  125  126 1    
   248  126  246 1    
   249  126  247 1    
@<TRIPOS>SUBSTRUCTURE
     1 UNK         1 GROUP             0       ****    0 ROOT    
