@<TRIPOS>MOLECULE
3R540
247   249    1
SMALL
USER_CHARGES


@<TRIPOS>ATOM
      1 CA          6.4678  -14.6436  -43.8448 C.3       0 UNK        -0.1800 
      2 C           5.0624  -14.2688  -44.2909 C.2       0 UNK         0.5000 
      3 O           4.0925  -14.8261  -43.7780 O.2       0 UNK        -0.5000 
      4 N           4.9511  -13.3333  -45.2385 N.am      1 UNK        -0.5000 
      5 CA          3.6925  -12.8058  -45.7566 C.3       1 UNK         0.1400 
      6 C6          3.3714  -13.3200  -47.1829 C.3       23 UNK        -0.0398 
      7 S7          2.6160  -14.9741  -47.1873 S.3       23 UNK        -0.2404 
      8 C8          2.4926  -15.2366  -48.9821 C.3       23 UNK        -0.0205 
      9 C9          1.6612  -16.4622  -49.3273 C.ar      23 UNK        -0.0193 
     10 C10         0.2821  -16.3374  -49.5190 C.ar      23 UNK        -0.1150 
     11 C11        -0.4903  -17.4471  -49.8737 C.ar      23 UNK        -0.0193 
     12 C12         0.1320  -18.6838  -50.0572 C.ar      23 UNK        -0.1150 
     13 C13         1.5103  -18.8247  -49.8689 C.ar      23 UNK        -0.0193 
     14 C14         2.2691  -17.7109  -49.4938 C.ar      23 UNK        -0.1150 
     15 C15         2.1805  -20.1718  -50.1078 C.3       23 UNK        -0.0205 
     16 S16         2.2441  -21.1996  -48.6056 S.3       23 UNK        -0.2404 
     17 C17         0.4726  -21.5144  -48.3204 C.3       23 UNK        -0.0398 
     18 CA          0.2045  -22.6764  -47.3380 C.3       11 UNK         0.1400 
     19 N           0.6183  -22.3491  -45.9676 N.am      11 UNK        -0.5000 
     20 C           0.5919  -23.1902  -44.9235 C.2       10 UNK         0.5000 
     21 O           0.2289  -24.3636  -45.0033 O.2       10 UNK        -0.5000 
     22 CA          0.9882  -22.6120  -43.5522 C.3       10 UNK         0.1400 
     23 CB          2.5129  -22.4775  -43.4187 C.3       10 UNK        -0.1800 
     24 N           0.3475  -21.3201  -43.3036 N.am      10 UNK        -0.5000 
     25 C          -0.9583  -21.1692  -43.0390 C.2       9 UNK         0.5000 
     26 O          -1.7328  -22.1127  -42.8797 O.2       9 UNK        -0.5000 
     27 CA         -1.5036  -19.7285  -42.9723 C.3       9 UNK         0.1400 
     28 CB         -1.3849  -19.1612  -41.5500 C.3       9 UNK        -0.1800 
     29 N          -0.8472  -18.8204  -43.9127 N.am      9 UNK        -0.5000 
     30 C          -0.8985  -18.9339  -45.2471 C.2       8 UNK         0.5000 
     31 O          -1.5481  -19.7943  -45.8381 O.2       8 UNK        -0.5000 
     32 CA         -0.0284  -17.9555  -46.0528 C.3       8 UNK         0.1400 
     33 CB         -0.7532  -16.6126  -46.2248 C.3       8 UNK        -0.1800 
     34 N           1.2887  -17.7579  -45.4410 N.am      8 UNK        -0.5000 
     35 C           2.2003  -18.7309  -45.2976 C.2       7 UNK         0.5000 
     36 O           2.0237  -19.8855  -45.6767 O.2       7 UNK        -0.5000 
     37 CA          3.4870  -18.3903  -44.5290 C.3       7 UNK         0.1400 
     38 CB          4.5522  -17.7808  -45.4498 C.3       7 UNK        -0.1800 
     39 N           3.2278  -17.5126  -43.3877 N.am      7 UNK        -0.5000 
     40 C           2.5923  -17.9217  -42.2811 C.2       6 UNK         0.5000 
     41 O           2.2046  -19.0780  -42.1085 O.2       6 UNK        -0.5000 
     42 CA          2.3145  -16.8656  -41.1961 C.3       6 UNK         0.1400 
     43 CB          3.5506  -16.6775  -40.3037 C.3       6 UNK        -0.1800 
     44 N           1.8910  -15.5598  -41.7077 N.am      6 UNK        -0.5000 
     45 C           0.8304  -15.3261  -42.4913 C.2       5 UNK         0.5000 
     46 O           0.1169  -16.2188  -42.9504 O.2       5 UNK        -0.5000 
     47 CA          0.4893  -13.8590  -42.8102 C.3       5 UNK         0.1400 
     48 CB          1.5265  -12.8282  -42.3055 C.3       5 UNK        -0.1800 
     49 N           0.2554  -13.7108  -44.2469 N.am      5 UNK        -0.5000 
     50 C          -0.4756  -12.7372  -44.7999 C.2       4 UNK         0.5000 
     51 O          -1.0116  -11.8343  -44.1544 O.2       4 UNK        -0.5000 
     52 CA         -0.6205  -12.7456  -46.3278 C.3       4 UNK         0.1400 
     53 CB         -2.0368  -13.1556  -46.7658 C.3       4 UNK        -0.1800 
     54 N          -0.3114  -11.4008  -46.7939 N.am      4 UNK        -0.5000 
     55 C           0.1478  -11.0632  -48.0022 C.2       3 UNK         0.5000 
     56 O           0.2503  -11.8546  -48.9392 O.2       3 UNK        -0.5000 
     57 CA          0.6601   -9.6171  -48.1695 C.3       3 UNK         0.1400 
     58 CB         -0.4919   -8.5978  -48.2663 C.3       3 UNK        -0.1800 
     59 N           1.6524   -9.2678  -47.1405 N.am      3 UNK        -0.5000 
     60 C           1.4591   -9.0581  -45.8297 C.2       2 UNK         0.5000 
     61 O           0.3516   -8.9270  -45.3078 O.2       2 UNK        -0.5000 
     62 CA          2.7125   -9.1953  -44.9466 C.3       2 UNK         0.1400 
     63 CB          2.5001   -8.6594  -43.5196 C.3       2 UNK        -0.1800 
     64 N           3.0262  -10.6228  -44.8756 N.am      2 UNK        -0.5000 
     65 C           3.7990  -11.2751  -45.7517 C.2       1 UNK         0.5000 
     66 O           4.5305  -10.7143  -46.5696 O.2       1 UNK        -0.5000 
     67 C          -1.2773  -23.0987  -47.4278 C.2       11 UNK         0.5000 
     68 O          -1.6095  -23.9752  -48.2287 O.2       11 UNK        -0.5000 
     69 N          -2.1409  -22.4939  -46.5997 N.am      12 UNK        -0.5000 
     70 CA         -3.5763  -22.7712  -46.5119 C.3       12 UNK         0.1400 
     71 CB         -4.2312  -21.7963  -45.5231 C.3       12 UNK        -0.1800 
     72 C          -3.9251  -24.2277  -46.1472 C.2       12 UNK         0.5000 
     73 O          -5.0072  -24.6849  -46.5135 O.2       12 UNK        -0.5000 
     74 N          -2.9985  -24.9570  -45.5064 N.am      13 UNK        -0.5000 
     75 CA         -3.1199  -26.3928  -45.2288 C.3       13 UNK         0.1400 
     76 CB         -1.9832  -26.8277  -44.2925 C.3       13 UNK        -0.1800 
     77 C          -3.1325  -27.2636  -46.5044 C.2       13 UNK         0.5000 
     78 O          -3.7146  -28.3484  -46.4894 O.2       13 UNK        -0.5000 
     79 N          -2.5228  -26.7599  -47.5861 N.am      14 UNK        -0.5000 
     80 CA         -2.5478  -27.3378  -48.9317 C.3       14 UNK         0.1400 
     81 CB         -1.1033  -27.3935  -49.4591 C.3       14 UNK        -0.1800 
     82 C          -3.4444  -26.5118  -49.8781 C.2       14 UNK         0.5000 
     83 O          -3.3741  -26.6924  -51.0958 O.2       14 UNK        -0.5000 
     84 N          -4.2261  -25.5748  -49.3171 N.am      15 UNK        -0.5000 
     85 CA         -5.0558  -24.5776  -49.9988 C.3       15 UNK         0.1400 
     86 CB         -6.2813  -25.2483  -50.6510 C.3       15 UNK        -0.1800 
     87 C          -4.2587  -23.6996  -50.9857 C.2       15 UNK         0.5000 
     88 O          -4.7939  -23.3173  -52.0258 O.2       15 UNK        -0.5000 
     89 N          -2.9929  -23.4038  -50.6540 N.am      16 UNK        -0.5000 
     90 CA         -2.0051  -22.7137  -51.4927 C.3       16 UNK         0.1400 
     91 CB         -2.3879  -21.2337  -51.7054 C.3       16 UNK        -0.1800 
     92 C          -1.7018  -23.4733  -52.8014 C.2       16 UNK         0.5000 
     93 O          -1.5648  -22.8584  -53.8585 O.2       16 UNK        -0.5000 
     94 N          -1.6111  -24.8072  -52.6854 N.am      17 UNK        -0.5000 
     95 CA         -1.4580  -25.7896  -53.7621 C.3       17 UNK         0.1400 
     96 CB         -0.1265  -25.6002  -54.5198 C.3       17 UNK        -0.1800 
     97 C          -2.6977  -25.8118  -54.6773 C.2       17 UNK         0.5000 
     98 O          -2.5745  -25.7012  -55.8986 O.2       17 UNK        -0.5000 
     99 N          -3.8724  -25.9494  -54.0427 N.am      18 UNK        -0.5000 
    100 CA        -5.2090  -25.9738  -54.6481 C.3       18 UNK         0.1400 
    101 CB        -5.4003  -27.2488  -55.4961 C.3       18 UNK        -0.1800 
    102 C         -5.5495  -24.6755  -55.4130 C.2       18 UNK         0.5000 
    103 O         -6.0361  -24.7258  -56.5444 O.2       18 UNK        -0.5000 
    104 N         -5.2954  -23.5338  -54.7645 N.am      19 UNK        -0.5000 
    105 CA        -5.5710  -22.1829  -55.2544 C.3       19 UNK         0.1400 
    106 CB        -4.2394  -21.4606  -55.5219 C.3       19 UNK        -0.1800 
    107 C         -6.4639  -21.4201  -54.2555 C.2       19 UNK         0.5000 
    108 O         -6.3408  -20.2011  -54.1238 O.2       19 UNK        -0.5000 
    109 N         -7.3348  -22.1610  -53.5508 N.am      20 UNK        -0.5000 
    110 CA        -8.3498  -21.6965  -52.5945 C.3       20 UNK         0.1400 
    111 CB        -9.4579  -20.9206  -53.3369 C.3       20 UNK        -0.1800 
    112 C         -7.7898  -20.9085  -51.3882 C.2       20 UNK         0.5000 
    113 O         -8.5172  -20.1123  -50.7938 O.2       20 UNK        -0.5000 
    114 N         -6.5139  -21.1493  -51.0486 N.am      21 UNK        -0.5000 
    115 CA        -5.7200  -20.4418  -50.0360 C.3       21 UNK         0.1400 
    116 CB        -6.2772  -20.6778  -48.6162 C.3       21 UNK        -0.1800 
    117 C         -5.5062  -18.9493  -50.3761 C.2       21 UNK         0.5000 
    118 O         -5.4628  -18.1145  -49.4710 O.2       21 UNK        -0.5000 
    119 N         -5.3584  -18.6610  -51.6775 N.am      22 UNK        -0.5000 
    120 CA        -5.2394  -17.3311  -52.2995 C.3       22 UNK         0.1400 
    121 C         -6.5881  -16.5553  -52.3683 C.2       22 UNK         0.5000 
    122 N         -6.6677  -15.5251  -53.2009 N.am      22 UNK        -0.7600 
    123 O         -7.5639  -16.8569  -51.6857 O.2       22 UNK        -0.5000 
    124 C124       -4.1050  -16.4404  -51.7138 C.3       23 UNK        -0.0398 
    125 S125       -2.4424  -17.1902  -51.8147 S.3       23 UNK        -0.2404 
    126 C126       -1.9939  -17.3091  -50.0544 C.3       23 UNK        -0.0205 
    127 H127        6.5882  -14.4394  -42.7810 H         1 UNK         0.0600 
    128 H128        7.2292  -14.0839  -44.3884 H         1 UNK         0.0600 
    129 H129        6.6434  -15.7061  -44.0099 H         1 UNK         0.0600 
    130 H130        5.7816  -12.8880  -45.6053 H         1 UNK         0.3000 
    131 H131        2.8653  -13.0791  -45.1007 H         1 UNK         0.0600 
    132 H132        2.6671  -12.6572  -47.6880 H         1 UNK         0.0800 
    133 H133        4.2706  -13.3316  -47.8015 H         1 UNK         0.0800 
    134 H134        2.0492  -14.3542  -49.4470 H         1 UNK         0.0800 
    135 H135        3.4952  -15.3334  -49.4014 H         1 UNK         0.0800 
    136 H136       -0.1895  -15.3730  -49.3895 H         1 UNK         0.1150 
    137 H137       -0.4594  -19.5369  -50.3521 H         1 UNK         0.1150 
    138 H138        3.3356  -17.8117  -49.3492 H         1 UNK         0.1150 
    139 H139        1.6638  -20.7151  -50.9005 H         1 UNK         0.0800 
    140 H140        3.1991  -20.0160  -50.4661 H         1 UNK         0.0800 
    141 H141        0.0245  -21.7214  -49.2906 H         1 UNK         0.0800 
    142 H142        0.0073  -20.5980  -47.9567 H         1 UNK         0.0800 
    143 H143        0.7941  -23.5383  -47.6573 H         1 UNK         0.0600 
    144 H144        0.9925  -21.4122  -45.8282 H         1 UNK         0.3000 
    145 H145        0.6500  -23.3124  -42.7854 H         1 UNK         0.0600 
    146 H146        2.9986  -23.4472  -43.5341 H         1 UNK         0.0600 
    147 H147        2.9335  -21.8117  -44.1714 H         1 UNK         0.0600 
    148 H148        2.7893  -22.0888  -42.4384 H         1 UNK         0.0600 
    149 H149        0.9274  -20.4948  -43.3880 H         1 UNK         0.3000 
    150 H150       -2.5627  -19.7660  -43.2354 H         1 UNK         0.0600 
    151 H151       -1.8200  -18.1636  -41.4859 H         1 UNK         0.0600 
    152 H152       -0.3458  -19.0932  -41.2283 H         1 UNK         0.0600 
    153 H153       -1.9099  -19.7933  -40.8329 H         1 UNK         0.0600 
    154 H154       -0.3237  -18.0454  -43.5156 H         1 UNK         0.3000 
    155 H155        0.1328  -18.3816  -47.0443 H         1 UNK         0.0600 
    156 H156       -0.1402  -15.8955  -46.7657 H         1 UNK         0.0600 
    157 H157       -1.0302  -16.1692  -45.2694 H         1 UNK         0.0600 
    158 H158       -1.6723  -16.7454  -46.7967 H         1 UNK         0.0600 
    159 H159        1.4899  -16.8497  -45.0531 H         1 UNK         0.3000 
    160 H160        3.8915  -19.3304  -44.1473 H         1 UNK         0.0600 
    161 H161        4.7130  -18.4056  -46.3295 H         1 UNK         0.0600 
    162 H162        5.5083  -17.6915  -44.9350 H         1 UNK         0.0600 
    163 H163        4.2677  -16.7911  -45.7988 H         1 UNK         0.0600 
    164 H164        3.5086  -16.5366  -43.4712 H         1 UNK         0.3000 
    165 H165        1.5020  -17.2472  -40.5746 H         1 UNK         0.0600 
    166 H166        3.3340  -16.0194  -39.4621 H         1 UNK         0.0600 
    167 H167        3.8851  -17.6306  -39.8919 H         1 UNK         0.0600 
    168 H168        4.3850  -16.2484  -40.8605 H         1 UNK         0.0600 
    169 H169        2.4550  -14.7714  -41.4267 H         1 UNK         0.3000 
    170 H170       -0.4519  -13.6637  -42.2920 H         1 UNK         0.0600 
    171 H171        1.2087  -11.8083  -42.5209 H         1 UNK         0.0600 
    172 H172        1.6482  -12.8892  -41.2234 H         1 UNK         0.0600 
    173 H173        2.5059  -12.9741  -42.7581 H         1 UNK         0.0600 
    174 H174        0.6295  -14.4505  -44.8236 H         1 UNK         0.3000 
    175 H175        0.1016  -13.4450  -46.7515 H         1 UNK         0.0600 
    176 H176       -2.7857  -12.4447  -46.4148 H         1 UNK         0.0600 
    177 H177       -2.1125  -13.2137  -47.8517 H         1 UNK         0.0600 
    178 H178       -2.3030  -14.1352  -46.3685 H         1 UNK         0.0600 
    179 H179       -0.3519  -10.6816  -46.0756 H         1 UNK         0.3000 
    180 H180        1.1993   -9.5819  -49.1176 H         1 UNK         0.0600 
    181 H181       -0.1116   -7.5817  -48.3710 H         1 UNK         0.0600 
    182 H182       -1.1456   -8.6243  -47.3945 H         1 UNK         0.0600 
    183 H183       -1.1136   -8.8041  -49.1382 H         1 UNK         0.0600 
    184 H184        2.6121   -9.3927  -47.4368 H         1 UNK         0.3000 
    185 H185        3.5308   -8.6364  -45.4060 H         1 UNK         0.0600 
    186 H186        1.7026   -9.1903  -42.9980 H         1 UNK         0.0600 
    187 H187        3.4088   -8.7574  -42.9255 H         1 UNK         0.0600 
    188 H188        2.2350   -7.6016  -43.5372 H         1 UNK         0.0600 
    189 H189        2.4606  -11.1569  -44.2328 H         1 UNK         0.3000 
    190 H190       -1.8016  -21.7168  -46.0396 H         1 UNK         0.3000 
    191 H191       -3.9981  -22.5794  -47.5001 H         1 UNK         0.0600 
    192 H192       -3.8349  -21.9190  -44.5155 H         1 UNK         0.0600 
    193 H193       -5.3092  -21.9554  -45.4730 H         1 UNK         0.0600 
    194 H194       -4.0728  -20.7607  -45.8233 H         1 UNK         0.0600 
    195 H195       -2.1209  -24.5195  -45.2547 H         1 UNK         0.3000 
    196 H196       -4.0676  -26.5531  -44.7107 H         1 UNK         0.0600 
    197 H197       -2.1019  -27.8700  -43.9943 H         1 UNK         0.0600 
    198 H198       -1.9672  -26.2280  -43.3822 H         1 UNK         0.0600 
    199 H199       -1.0090  -26.7351  -44.7736 H         1 UNK         0.0600 
    200 H200       -2.0826  -25.8486  -47.5151 H         1 UNK         0.3000 
    201 H201       -2.9480  -28.3531  -48.9102 H         1 UNK         0.0600 
    202 H202       -0.4656  -27.9768  -48.7948 H         1 UNK         0.0600 
    203 H203       -0.6691  -26.3968  -49.5487 H         1 UNK         0.0600 
    204 H204       -1.0584  -27.8632  -50.4426 H         1 UNK         0.0600 
    205 H205       -4.2414  -25.5215  -48.3060 H         1 UNK         0.3000 
    206 H206       -5.4245  -23.9013  -49.2273 H         1 UNK         0.0600 
    207 H207       -6.9543  -24.5082  -51.0856 H         1 UNK         0.0600 
    208 H208       -5.9913  -25.9375  -51.4432 H         1 UNK         0.0600 
    209 H209       -6.8554  -25.8111  -49.9151 H         1 UNK         0.0600 
    210 H210       -2.6314  -23.7581  -49.7712 H         1 UNK         0.3000 
    211 H211       -1.0696  -22.7335  -50.9366 H         1 UNK         0.0600 
    212 H212       -3.3252  -21.1257  -52.2501 H         1 UNK         0.0600 
    213 H213       -1.6211  -20.7061  -52.2737 H         1 UNK         0.0600 
    214 H214       -2.4919  -20.7158  -50.7529 H         1 UNK         0.0600 
    215 H215       -1.8059  -25.2085  -51.7781 H         1 UNK         0.3000 
    216 H216       -1.4183  -26.7671  -53.2787 H         1 UNK         0.0600 
    217 H217        0.0346  -26.4144  -55.2272 H         1 UNK         0.0600 
    218 H218        0.7199  -25.5945  -53.8332 H         1 UNK         0.0600 
    219 H219       -0.1050  -24.6698  -55.0874 H         1 UNK         0.0600 
    220 H220       -3.8443  -26.0509  -53.0333 H         1 UNK         0.3000 
    221 H221       -5.9175  -26.0278  -53.8214 H         1 UNK         0.0600 
    222 H222       -4.7541  -27.2546  -56.3743 H         1 UNK         0.0600 
    223 H223       -5.1833  -28.1446  -54.9142 H         1 UNK         0.0600 
    224 H224       -6.4292  -27.3330  -55.8475 H         1 UNK         0.0600 
    225 H225       -4.9339  -23.5783  -53.8128 H         1 UNK         0.3000 
    226 H226       -6.1276  -22.2252  -56.1923 H         1 UNK         0.0600 
    227 H227       -3.6089  -22.0349  -56.2010 H         1 UNK         0.0600 
    228 H228       -4.4053  -20.4842  -55.9784 H         1 UNK         0.0600 
    229 H229       -3.6785  -21.3025  -54.6013 H         1 UNK         0.0600 
    230 H230       -7.3166  -23.1578  -53.7112 H         1 UNK         0.3000 
    231 H231       -8.8028  -22.5960  -52.1756 H         1 UNK         0.0600 
    232 H232       -9.0910  -19.9707  -53.7273 H         1 UNK         0.0600 
    233 H233       -9.8517  -21.4979  -54.1734 H         1 UNK         0.0600 
    234 H234      -10.2965  -20.7004  -52.6754 H         1 UNK         0.0600 
    235 H235       -6.0069  -21.8322  -51.6037 H         1 UNK         0.3000 
    236 H236       -4.7295  -20.8929  -50.0603 H         1 UNK         0.0600 
    237 H237       -7.2394  -20.1867  -48.4700 H         1 UNK         0.0600 
    238 H238       -6.4082  -21.7399  -48.4113 H         1 UNK         0.0600 
    239 H239       -5.5958  -20.2836  -47.8617 H         1 UNK         0.0600 
    240 H240       -5.4972  -19.4118  -52.3435 H         1 UNK         0.3000 
    241 H241       -4.9793  -17.5476  -53.3366 H         1 UNK         0.0600 
    242 H242       -7.5335  -15.0111  -53.2569 H         1 UNK         0.3800 
    243 H243       -5.8959  -15.2545  -53.7907 H         1 UNK         0.3800 
    244 H244       -4.0469  -15.4995  -52.2626 H         1 UNK         0.0800 
    245 H245       -4.3314  -16.1566  -50.6860 H         1 UNK         0.0800 
    246 H246       -2.5044  -18.1626  -49.6060 H         1 UNK         0.0800 
    247 H247       -2.3461  -16.4250  -49.5208 H         1 UNK         0.0800 
@<TRIPOS>BOND
     1    1    2 1    
     2    1  127 1    
     3    1  128 1    
     4    1  129 1    
     5    2    3 2    
     6    2    4 am   BACKBONE|DICT|INTERRES
     7    4    5 1    
     8    4  130 1    
     9    5    6 1    
    10    5   65 1    
    11    5  131 1    
    12    6    7 1    
    13    6  132 1    
    14    6  133 1    
    15    7    8 1    
    16    8    9 1    
    17    8  134 1    
    18    8  135 1    
    19    9   10 ar   
    20    9   14 ar   
    21   10   11 ar   
    22   10  136 1    
    23   11   12 ar   
    24   11  126 1    
    25   12   13 ar   
    26   12  137 1    
    27   13   14 ar   
    28   13   15 1    
    29   14  138 1    
    30   15   16 1    
    31   15  139 1    
    32   15  140 1    
    33   16   17 1    
    34   17   18 1    
    35   17  141 1    
    36   17  142 1    
    37   18   19 1    
    38   18   67 1    
    39   18  143 1    
    40   19   20 am   BACKBONE|DICT|INTERRES
    41   19  144 1    
    42   20   21 2    
    43   20   22 1    
    44   22   23 1    
    45   22   24 1    
    46   22  145 1    
    47   23  146 1    
    48   23  147 1    
    49   23  148 1    
    50   24   25 am   BACKBONE|DICT|INTERRES
    51   24  149 1    
    52   25   26 2    
    53   25   27 1    
    54   27   28 1    
    55   27   29 1    
    56   27  150 1    
    57   28  151 1    
    58   28  152 1    
    59   28  153 1    
    60   29   30 am   BACKBONE|DICT|INTERRES
    61   29  154 1    
    62   30   31 2    
    63   30   32 1    
    64   32   33 1    
    65   32   34 1    
    66   32  155 1    
    67   33  156 1    
    68   33  157 1    
    69   33  158 1    
    70   34   35 am   BACKBONE|DICT|INTERRES
    71   34  159 1    
    72   35   36 2    
    73   35   37 1    
    74   37   38 1    
    75   37   39 1    
    76   37  160 1    
    77   38  161 1    
    78   38  162 1    
    79   38  163 1    
    80   39   40 am   BACKBONE|DICT|INTERRES
    81   39  164 1    
    82   40   41 2    
    83   40   42 1    
    84   42   43 1    
    85   42   44 1    
    86   42  165 1    
    87   43  166 1    
    88   43  167 1    
    89   43  168 1    
    90   44   45 am   BACKBONE|DICT|INTERRES
    91   44  169 1    
    92   45   46 2    
    93   45   47 1    
    94   47   48 1    
    95   47   49 1    
    96   47  170 1    
    97   48  171 1    
    98   48  172 1    
    99   48  173 1    
   100   49   50 am   BACKBONE|DICT|INTERRES
   101   49  174 1    
   102   50   51 2    
   103   50   52 1    
   104   52   53 1    
   105   52   54 1    
   106   52  175 1    
   107   53  176 1    
   108   53  177 1    
   109   53  178 1    
   110   54   55 am   BACKBONE|DICT|INTERRES
   111   54  179 1    
   112   55   56 2    
   113   55   57 1    
   114   57   58 1    
   115   57   59 1    
   116   57  180 1    
   117   58  181 1    
   118   58  182 1    
   119   58  183 1    
   120   59   60 am   BACKBONE|DICT|INTERRES
   121   59  184 1    
   122   60   61 2    
   123   60   62 1    
   124   62   63 1    
   125   62   64 1    
   126   62  185 1    
   127   63  186 1    
   128   63  187 1    
   129   63  188 1    
   130   64   65 am   BACKBONE|DICT|INTERRES
   131   64  189 1    
   132   65   66 2    
   133   67   68 2    
   134   67   69 am   BACKBONE|DICT|INTERRES
   135   69   70 1    
   136   69  190 1    
   137   70   71 1    
   138   70   72 1    
   139   70  191 1    
   140   71  192 1    
   141   71  193 1    
   142   71  194 1    
   143   72   73 2    
   144   72   74 am   BACKBONE|DICT|INTERRES
   145   74   75 1    
   146   74  195 1    
   147   75   76 1    
   148   75   77 1    
   149   75  196 1    
   150   76  197 1    
   151   76  198 1    
   152   76  199 1    
   153   77   78 2    
   154   77   79 am   BACKBONE|DICT|INTERRES
   155   79   80 1    
   156   79  200 1    
   157   80   81 1    
   158   80   82 1    
   159   80  201 1    
   160   81  202 1    
   161   81  203 1    
   162   81  204 1    
   163   82   83 2    
   164   82   84 am   BACKBONE|DICT|INTERRES
   165   84   85 1    
   166   84  205 1    
   167   85   86 1    
   168   85   87 1    
   169   85  206 1    
   170   86  207 1    
   171   86  208 1    
   172   86  209 1    
   173   87   88 2    
   174   87   89 am   BACKBONE|DICT|INTERRES
   175   89   90 1    
   176   89  210 1    
   177   90   91 1    
   178   90   92 1    
   179   90  211 1    
   180   91  212 1    
   181   91  213 1    
   182   91  214 1    
   183   92   93 2    
   184   92   94 am   BACKBONE|DICT|INTERRES
   185   94   95 1    
   186   94  215 1    
   187   95   96 1    
   188   95   97 1    
   189   95  216 1    
   190   96  217 1    
   191   96  218 1    
   192   96  219 1    
   193   97   98 2    
   194   97   99 am   BACKBONE|DICT|INTERRES
   195   99  100 1    
   196   99  220 1    
   197  100  101 1    
   198  100  102 1    
   199  100  221 1    
   200  101  222 1    
   201  101  223 1    
   202  101  224 1    
   203  102  103 2    
   204  102  104 am   BACKBONE|DICT|INTERRES
   205  104  105 1    
   206  104  225 1    
   207  105  106 1    
   208  105  107 1    
   209  105  226 1    
   210  106  227 1    
   211  106  228 1    
   212  106  229 1    
   213  107  108 2    
   214  107  109 am   BACKBONE|DICT|INTERRES
   215  109  110 1    
   216  109  230 1    
   217  110  111 1    
   218  110  112 1    
   219  110  231 1    
   220  111  232 1    
   221  111  233 1    
   222  111  234 1    
   223  112  113 2    
   224  112  114 am   BACKBONE|DICT|INTERRES
   225  114  115 1    
   226  114  235 1    
   227  115  116 1    
   228  115  117 1    
   229  115  236 1    
   230  116  237 1    
   231  116  238 1    
   232  116  239 1    
   233  117  118 2    
   234  117  119 am   BACKBONE|DICT|INTERRES
   235  119  120 1    
   236  119  240 1    
   237  120  121 1    
   238  120  124 1    
   239  120  241 1    
   240  121  122 am   BACKBONE|DICT|INTERRES
   241  121  123 2    
   242  122  242 1    
   243  122  243 1    
   244  124  125 1    
   245  124  244 1    
   246  124  245 1    
   247  125  126 1    
   248  126  246 1    
   249  126  247 1    
@<TRIPOS>SUBSTRUCTURE
     1 UNK         1 GROUP             0       ****    0 ROOT    
