@<TRIPOS>MOLECULE
3R540
247   249    1
SMALL
USER_CHARGES


@<TRIPOS>ATOM
      1 CA          2.3993  -11.3124  -44.5486 C.3       0 UNK        -0.1800 
      2 C           3.2852  -11.7877  -45.6904 C.2       0 UNK         0.5000 
      3 O           4.0100  -10.9860  -46.2809 O.2       0 UNK        -0.5000 
      4 N           3.2388  -13.0884  -46.0020 N.am      1 UNK        -0.5000 
      5 CA          3.9779  -13.7332  -47.0953 C.3       1 UNK         0.1400 
      6 C6          3.2600  -15.0109  -47.6011 C.3       23 UNK        -0.0398 
      7 S7          1.6532  -14.5965  -48.3654 S.3       23 UNK        -0.2404 
      8 C8          1.9391  -14.9544  -50.1267 C.3       23 UNK        -0.0205 
      9 C9          1.2362  -16.2363  -50.5435 C.ar      23 UNK        -0.0193 
     10 C10        -0.0287  -16.1779  -51.1348 C.ar      23 UNK        -0.1150 
     11 C11        -0.6851  -17.3466  -51.5284 C.ar      23 UNK        -0.0193 
     12 C12        -0.0748  -18.5845  -51.3042 C.ar      23 UNK        -0.1150 
     13 C13         1.1914  -18.6601  -50.7120 C.ar      23 UNK        -0.0193 
     14 C14         1.8469  -17.4776  -50.3467 C.ar      23 UNK        -0.1150 
     15 C15         1.8450  -20.0267  -50.5198 C.3       23 UNK        -0.0205 
     16 S16         2.8013  -20.2257  -48.9743 S.3       23 UNK        -0.2404 
     17 C17         1.5974  -19.8042  -47.6690 C.3       23 UNK        -0.0398 
     18 CA          0.7421  -21.0106  -47.2026 C.3       11 UNK         0.1400 
     19 N           0.3858  -20.9247  -45.7821 N.am      11 UNK        -0.5000 
     20 C          -0.2583  -21.8734  -45.0857 C.2       10 UNK         0.5000 
     21 O          -0.5916  -22.9607  -45.5540 O.2       10 UNK        -0.5000 
     22 CA         -0.6484  -21.5328  -43.6361 C.3       10 UNK         0.1400 
     23 CB          0.5515  -21.6795  -42.6890 C.3       10 UNK        -0.1800 
     24 N          -1.2228  -20.1927  -43.5153 N.am      10 UNK        -0.5000 
     25 C          -2.3711  -19.8127  -44.0945 C.2       9 UNK         0.5000 
     26 O          -3.0969  -20.5741  -44.7352 O.2       9 UNK        -0.5000 
     27 CA         -2.7510  -18.3248  -43.9772 C.3       9 UNK         0.1400 
     28 CB         -3.4239  -18.0363  -42.6272 C.3       9 UNK        -0.1800 
     29 N          -1.6079  -17.4286  -44.1568 N.am      9 UNK        -0.5000 
     30 C          -0.8784  -17.3366  -45.2782 C.2       8 UNK         0.5000 
     31 O          -1.1062  -17.9803  -46.3009 O.2       8 UNK        -0.5000 
     32 CA          0.3521  -16.4155  -45.2274 C.3       8 UNK         0.1400 
     33 CB         -0.0681  -14.9408  -45.3194 C.3       8 UNK        -0.1800 
     34 N           1.1608  -16.6334  -44.0261 N.am      8 UNK        -0.5000 
     35 C           1.7464  -17.7973  -43.7053 C.2       7 UNK         0.5000 
     36 O           1.7294  -18.7926  -44.4264 O.2       7 UNK        -0.5000 
     37 CA          2.4125  -17.8868  -42.3228 C.3       7 UNK         0.1400 
     38 CB          3.8405  -17.3278  -42.3633 C.3       7 UNK        -0.1800 
     39 N           1.6331  -17.1899  -41.3012 N.am      7 UNK        -0.5000 
     40 C           0.4467  -17.6130  -40.8413 C.2       6 UNK         0.5000 
     41 O          -0.0887  -18.6637  -41.1944 O.2       6 UNK        -0.5000 
     42 CA         -0.2821  -16.6762  -39.8604 C.3       6 UNK         0.1400 
     43 CB          0.2353  -16.8800  -38.4288 C.3       6 UNK        -0.1800 
     44 N          -0.1398  -15.2673  -40.2331 N.am      6 UNK        -0.5000 
     45 C          -0.6651  -14.7231  -41.3402 C.2       5 UNK         0.5000 
     46 O          -1.3870  -15.3404  -42.1222 O.2       5 UNK        -0.5000 
     47 CA         -0.2780  -13.2637  -41.6517 C.3       5 UNK         0.1400 
     48 CB         -1.2932  -12.2925  -41.0323 C.3       5 UNK        -0.1800 
     49 N           1.0702  -12.9156  -41.1923 N.am      5 UNK        -0.5000 
     50 C           2.1991  -13.4567  -41.6674 C.2       4 UNK         0.5000 
     51 O           2.2290  -14.2845  -42.5829 O.2       4 UNK        -0.5000 
     52 CA          3.4992  -13.0333  -40.9715 C.3       4 UNK         0.1400 
     53 CB          3.5612  -13.6240  -39.5479 C.3       4 UNK        -0.1800 
     54 N           4.6463  -13.4967  -41.7488 N.am      4 UNK        -0.5000 
     55 C           5.9007  -13.0517  -41.6085 C.2       3 UNK         0.5000 
     56 O           6.2181  -12.1230  -40.8645 O.2       3 UNK        -0.5000 
     57 CA          6.9820  -13.7489  -42.4431 C.3       3 UNK         0.1400 
     58 CB          6.9027  -15.2870  -42.3672 C.3       3 UNK        -0.1800 
     59 N           6.9016  -13.2950  -43.8264 N.am      3 UNK        -0.5000 
     60 C           7.9015  -13.3636  -44.7139 C.2       2 UNK         0.5000 
     61 O           9.0174  -13.8129  -44.4447 O.2       2 UNK        -0.5000 
     62 CA          7.6113  -12.8255  -46.1323 C.3       2 UNK         0.1400 
     63 CB          8.5041  -13.4724  -47.2124 C.3       2 UNK        -0.1800 
     64 N           6.1961  -12.8983  -46.5159 N.am      2 UNK        -0.5000 
     65 C           5.4381  -13.9937  -46.6714 C.2       1 UNK         0.5000 
     66 O           5.8323  -15.1432  -46.4704 O.2       1 UNK        -0.5000 
     67 C          -0.5062  -21.1772  -48.0902 C.2       11 UNK         0.5000 
     68 O          -0.5439  -22.0830  -48.9216 O.2       11 UNK        -0.5000 
     69 N          -1.5162  -20.3263  -47.8612 N.am      12 UNK        -0.5000 
     70 CA         -2.8062  -20.3280  -48.5492 C.3       12 UNK         0.1400 
     71 CB         -3.6667  -19.1834  -47.9925 C.3       12 UNK        -0.1800 
     72 C          -3.5477  -21.6714  -48.4339 C.2       12 UNK         0.5000 
     73 O          -4.0749  -22.1602  -49.4335 O.2       12 UNK        -0.5000 
     74 N          -3.5425  -22.2517  -47.2254 N.am      13 UNK        -0.5000 
     75 CA         -4.0936  -23.5725  -46.9359 C.3       13 UNK         0.1400 
     76 CB         -4.1846  -23.7691  -45.4150 C.3       13 UNK        -0.1800 
     77 C          -3.2829  -24.7039  -47.5930 C.2       13 UNK         0.5000 
     78 O          -3.8693  -25.5512  -48.2682 O.2       13 UNK        -0.5000 
     79 N          -1.9538  -24.6872  -47.4075 N.am      14 UNK        -0.5000 
     80 CA         -1.0131  -25.6867  -47.9278 C.3       14 UNK         0.1400 
     81 CB          0.3920  -25.4068  -47.3739 C.3       14 UNK        -0.1800 
     82 C          -0.9747  -25.7665  -49.4648 C.2       14 UNK         0.5000 
     83 O          -0.7594  -26.8481  -50.0126 O.2       14 UNK        -0.5000 
     84 N          -1.2226  -24.6321  -50.1301 N.am      15 UNK        -0.5000 
     85 CA         -1.3567  -24.5080  -51.5810 C.3       15 UNK         0.1400 
     86 CB         -1.1973  -23.0262  -51.9570 C.3       15 UNK        -0.1800 
     87 C          -2.6719  -25.0902  -52.1487 C.2       15 UNK         0.5000 
     88 O          -2.8275  -25.0958  -53.3693 O.2       15 UNK        -0.5000 
     89 N          -3.5705  -25.5725  -51.2742 N.am      16 UNK        -0.5000 
     90 CA         -4.9106  -26.1015  -51.5393 C.3       16 UNK         0.1400 
     91 CB         -4.9006  -27.2503  -52.5706 C.3       16 UNK        -0.1800 
     92 C          -5.8736  -24.9608  -51.9024 C.2       16 UNK         0.5000 
     93 O          -6.1600  -24.7272  -53.0774 O.2       16 UNK        -0.5000 
     94 N          -6.3281  -24.2468  -50.8645 N.am      17 UNK        -0.5000 
     95 CA         -7.2207  -23.0900  -50.9399 C.3       17 UNK         0.1400 
     96 CB         -7.6093  -22.6636  -49.5149 C.3       17 UNK        -0.1800 
     97 C          -8.4836  -23.3378  -51.7861 C.2       17 UNK         0.5000 
     98 O          -9.1641  -24.3458  -51.5849 O.2       17 UNK        -0.5000 
     99 N          -8.7456  -22.4152  -52.7209 N.am      18 UNK        -0.5000 
    100 CA        -9.8248  -22.4041  -53.7146 C.3       18 UNK         0.1400 
    101 CB       -11.2156  -22.5236  -53.0583 C.3       18 UNK        -0.1800 
    102 C         -9.6449  -23.4030  -54.8780 C.2       18 UNK         0.5000 
    103 O        -10.4135  -23.3311  -55.8378 O.2       18 UNK        -0.5000 
    104 N         -8.6221  -24.2683  -54.8320 N.am      19 UNK        -0.5000 
    105 CA        -8.2346  -25.1688  -55.9180 C.3       19 UNK         0.1400 
    106 CB        -7.9343  -26.5660  -55.3447 C.3       19 UNK        -0.1800 
    107 C         -7.0428  -24.5489  -56.6693 C.2       19 UNK         0.5000 
    108 O         -5.9531  -25.1224  -56.6984 O.2       19 UNK        -0.5000 
    109 N         -7.2852  -23.3592  -57.2403 N.am      20 UNK        -0.5000 
    110 CA        -6.3275  -22.4906  -57.9350 C.3       20 UNK         0.1400 
    111 CB        -5.7566  -23.1756  -59.1955 C.3       20 UNK        -0.1800 
    112 C         -5.2374  -21.9172  -57.0020 C.2       20 UNK         0.5000 
    113 O         -4.0957  -21.7296  -57.4270 O.2       20 UNK        -0.5000 
    114 N         -5.6187  -21.6150  -55.7552 N.am      21 UNK        -0.5000 
    115 CA        -4.7968  -20.9363  -54.7583 C.3       21 UNK         0.1400 
    116 CB        -3.9781  -21.9551  -53.9550 C.3       21 UNK        -0.1800 
    117 C         -5.7037  -20.1135  -53.8352 C.2       21 UNK         0.5000 
    118 O         -6.9008  -20.4002  -53.7340 O.2       21 UNK        -0.5000 
    119 N         -5.1071  -19.1100  -53.1826 N.am      22 UNK        -0.5000 
    120 CA        -5.7866  -18.1065  -52.3471 C.3       22 UNK         0.1400 
    121 C         -6.4876  -18.6345  -51.0611 C.2       22 UNK         0.5000 
    122 N         -6.1538  -19.8171  -50.5644 N.am      22 UNK        -0.7600 
    123 O         -7.3551  -17.9606  -50.5126 O.2       22 UNK        -0.5000 
    124 C124       -4.8539  -16.9043  -52.0424 C.3       23 UNK        -0.0398 
    125 S125       -3.3976  -17.3156  -51.0114 S.3       23 UNK        -0.2404 
    126 C126       -2.0395  -17.2618  -52.2172 C.3       23 UNK        -0.0205 
    127 H127        1.6411  -12.0525  -44.2932 H         1 UNK         0.0600 
    128 H128        1.8870  -10.3920  -44.8282 H         1 UNK         0.0600 
    129 H129        3.0025  -11.1130  -43.6631 H         1 UNK         0.0600 
    130 H130        2.6525  -13.7021  -45.4554 H         1 UNK         0.3000 
    131 H131        4.0238  -13.0399  -47.9385 H         1 UNK         0.0600 
    132 H132        3.8787  -15.5466  -48.3225 H         1 UNK         0.0800 
    133 H133        3.0910  -15.7073  -46.7786 H         1 UNK         0.0800 
    134 H134        3.0045  -15.0152  -50.3513 H         1 UNK         0.0800 
    135 H135        1.5608  -14.1162  -50.7140 H         1 UNK         0.0800 
    136 H136       -0.5023  -15.2194  -51.2950 H         1 UNK         0.1150 
    137 H137       -0.5834  -19.4904  -51.6037 H         1 UNK         0.1150 
    138 H138        2.8302  -17.5203  -49.9005 H         1 UNK         0.1150 
    139 H139        1.0957  -20.8165  -50.5680 H         1 UNK         0.0800 
    140 H140        2.5170  -20.2014  -51.3607 H         1 UNK         0.0800 
    141 H141        0.9856  -18.9493  -47.9624 H         1 UNK         0.0800 
    142 H142        2.2044  -19.4437  -46.8395 H         1 UNK         0.0800 
    143 H143        1.3399  -21.9187  -47.3054 H         1 UNK         0.0600 
    144 H144        0.6593  -20.0720  -45.3001 H         1 UNK         0.3000 
    145 H145       -1.4116  -22.2483  -43.3227 H         1 UNK         0.0600 
    146 H146        0.2626  -21.4915  -41.6548 H         1 UNK         0.0600 
    147 H147        0.9609  -22.6893  -42.7344 H         1 UNK         0.0600 
    148 H148        1.3554  -20.9893  -42.9420 H         1 UNK         0.0600 
    149 H149       -0.7072  -19.5206  -42.9574 H         1 UNK         0.3000 
    150 H150       -3.4703  -18.1037  -44.7681 H         1 UNK         0.0600 
    151 H151       -4.2951  -18.6758  -42.4804 H         1 UNK         0.0600 
    152 H152       -3.7651  -17.0025  -42.5705 H         1 UNK         0.0600 
    153 H153       -2.7442  -18.2091  -41.7925 H         1 UNK         0.0600 
    154 H154       -1.3759  -16.8250  -43.3730 H         1 UNK         0.3000 
    155 H155        0.9757  -16.6499  -46.0919 H         1 UNK         0.0600 
    156 H156       -0.7650  -14.6625  -44.5314 H         1 UNK         0.0600 
    157 H157       -0.5660  -14.7418  -46.2689 H         1 UNK         0.0600 
    158 H158        0.7912  -14.2761  -45.2557 H         1 UNK         0.0600 
    159 H159        1.2714  -15.8475  -43.3949 H         1 UNK         0.3000 
    160 H160        2.4717  -18.9411  -42.0446 H         1 UNK         0.0600 
    161 H161        4.3187  -17.3850  -41.3854 H         1 UNK         0.0600 
    162 H162        3.8547  -16.2886  -42.6861 H         1 UNK         0.0600 
    163 H163        4.4582  -17.8934  -43.0621 H         1 UNK         0.0600 
    164 H164        1.9813  -16.2941  -40.9965 H         1 UNK         0.3000 
    165 H165       -1.3440  -16.9306  -39.8814 H         1 UNK         0.0600 
    166 H166       -0.3247  -16.2727  -37.7174 H         1 UNK         0.0600 
    167 H167        0.1284  -17.9210  -38.1205 H         1 UNK         0.0600 
    168 H168        1.2900  -16.6171  -38.3380 H         1 UNK         0.0600 
    169 H169        0.4286  -14.6888  -39.6330 H         1 UNK         0.3000 
    170 H170       -0.3054  -13.1374  -42.7355 H         1 UNK         0.0600 
    171 H171       -2.3045  -12.5139  -41.3761 H         1 UNK         0.0600 
    172 H172       -1.2961  -12.3517  -39.9432 H         1 UNK         0.0600 
    173 H173       -1.0746  -11.2620  -41.3129 H         1 UNK         0.0600 
    174 H174        1.1269  -12.2391  -40.4444 H         1 UNK         0.3000 
    175 H175        3.5158  -11.9426  -40.9221 H         1 UNK         0.0600 
    176 H176        3.5592  -14.7146  -39.5662 H         1 UNK         0.0600 
    177 H177        4.4607  -13.3037  -39.0223 H         1 UNK         0.0600 
    178 H178        2.7124  -13.3027  -38.9435 H         1 UNK         0.0600 
    179 H179        4.4293  -14.2226  -42.4189 H         1 UNK         0.3000 
    180 H180        7.9430  -13.4400  -42.0256 H         1 UNK         0.0600 
    181 H181        6.0985  -15.6794  -42.9877 H         1 UNK         0.0600 
    182 H182        6.7390  -15.6291  -41.3444 H         1 UNK         0.0600 
    183 H183        7.8304  -15.7420  -42.7143 H         1 UNK         0.0600 
    184 H184        6.0275  -12.8768  -44.1113 H         1 UNK         0.3000 
    185 H185        7.8578  -11.7634  -46.1008 H         1 UNK         0.0600 
    186 H186        9.5597  -13.2836  -47.0137 H         1 UNK         0.0600 
    187 H187        8.3689  -14.5535  -47.2557 H         1 UNK         0.0600 
    188 H188        8.2853  -13.0667  -48.2001 H         1 UNK         0.0600 
    189 H189        5.7293  -12.0043  -46.6383 H         1 UNK         0.3000 
    190 H190       -1.3812  -19.5860  -47.1754 H         1 UNK         0.3000 
    191 H191       -2.6163  -20.1374  -49.6073 H         1 UNK         0.0600 
    192 H192       -3.8802  -19.3149  -46.9327 H         1 UNK         0.0600 
    193 H193       -4.6225  -19.1171  -48.5082 H         1 UNK         0.0600 
    194 H194       -3.1685  -18.2216  -48.1135 H         1 UNK         0.0600 
    195 H195       -3.1169  -21.7547  -46.4499 H         1 UNK         0.3000 
    196 H196       -5.1069  -23.6109  -47.3406 H         1 UNK         0.0600 
    197 H197       -4.6022  -24.7466  -45.1710 H         1 UNK         0.0600 
    198 H198       -4.8288  -23.0164  -44.9601 H         1 UNK         0.0600 
    199 H199       -3.2063  -23.6999  -44.9382 H         1 UNK         0.0600 
    200 H200       -1.5479  -23.9544  -46.8295 H         1 UNK         0.3000 
    201 H201       -1.3356  -26.6624  -47.5593 H         1 UNK         0.0600 
    202 H202        0.4029  -25.4528  -46.2849 H         1 UNK         0.0600 
    203 H203        0.7500  -24.4207  -47.6720 H         1 UNK         0.0600 
    204 H204        1.1112  -26.1422  -47.7367 H         1 UNK         0.0600 
    205 H205       -1.3071  -23.7709  -49.5968 H         1 UNK         0.3000 
    206 H206       -0.5389  -25.0619  -52.0461 H         1 UNK         0.0600 
    207 H207       -0.2258  -22.6448  -51.6434 H         1 UNK         0.0600 
    208 H208       -1.2645  -22.8816  -53.0356 H         1 UNK         0.0600 
    209 H209       -1.9653  -22.4112  -51.4863 H         1 UNK         0.0600 
    210 H210       -3.3450  -25.4919  -50.2891 H         1 UNK         0.3000 
    211 H211       -5.2559  -26.5294  -50.5968 H         1 UNK         0.0600 
    212 H212       -4.6452  -26.9081  -53.5737 H         1 UNK         0.0600 
    213 H213       -5.8849  -27.7153  -52.6335 H         1 UNK         0.0600 
    214 H214       -4.1901  -28.0273  -52.2889 H         1 UNK         0.0600 
    215 H215       -6.0091  -24.4957  -49.9400 H         1 UNK         0.3000 
    216 H216       -6.6456  -22.2894  -51.4052 H         1 UNK         0.0600 
    217 H217       -8.2680  -21.7944  -49.5329 H         1 UNK         0.0600 
    218 H218       -6.7331  -22.3961  -48.9252 H         1 UNK         0.0600 
    219 H219       -8.1353  -23.4611  -48.9885 H         1 UNK         0.0600 
    220 H220       -8.0870  -21.6477  -52.8320 H         1 UNK         0.3000 
    221 H221       -9.7725  -21.4147  -54.1714 H         1 UNK         0.0600 
    222 H222      -11.3945  -23.5205  -52.6555 H         1 UNK         0.0600 
    223 H223      -11.3336  -21.8049  -52.2473 H         1 UNK         0.0600 
    224 H224      -12.0049  -22.3248  -53.7842 H         1 UNK         0.0600 
    225 H225       -7.9911  -24.2525  -54.0375 H         1 UNK         0.3000 
    226 H226       -9.0498  -25.2821  -56.6355 H         1 UNK         0.0600 
    227 H227       -8.7941  -26.9627  -54.8050 H         1 UNK         0.0600 
    228 H228       -7.6979  -27.2698  -56.1434 H         1 UNK         0.0600 
    229 H229       -7.0871  -26.5547  -54.6603 H         1 UNK         0.0600 
    230 H230       -8.2222  -22.9885  -57.1549 H         1 UNK         0.3000 
    231 H231       -6.9035  -21.6287  -58.2747 H         1 UNK         0.0600 
    232 H232       -6.5537  -23.5637  -59.8295 H         1 UNK         0.0600 
    233 H233       -5.0929  -24.0033  -58.9449 H         1 UNK         0.0600 
    234 H234       -5.1816  -22.4697  -59.7958 H         1 UNK         0.0600 
    235 H235       -6.5806  -21.7561  -55.4779 H         1 UNK         0.3000 
    236 H236       -4.1172  -20.2463  -55.2632 H         1 UNK         0.0600 
    237 H237       -3.3293  -21.4512  -53.2390 H         1 UNK         0.0600 
    238 H238       -4.6196  -22.6331  -53.3943 H         1 UNK         0.0600 
    239 H239       -3.3435  -22.5570  -54.6055 H         1 UNK         0.0600 
    240 H240       -4.1142  -18.9773  -53.2960 H         1 UNK         0.3000 
    241 H241       -6.5990  -17.7163  -52.9634 H         1 UNK         0.0600 
    242 H242       -6.6100  -20.1357  -49.7268 H         1 UNK         0.3800 
    243 H243       -5.4128  -20.3601  -50.9765 H         1 UNK         0.3800 
    244 H244       -5.4133  -16.1190  -51.5309 H         1 UNK         0.0800 
    245 H245       -4.5210  -16.4528  -52.9777 H         1 UNK         0.0800 
    246 H246       -2.1482  -18.0795  -52.9304 H         1 UNK         0.0800 
    247 H247       -2.0998  -16.3376  -52.7942 H         1 UNK         0.0800 
@<TRIPOS>BOND
     1    1    2 1    
     2    1  127 1    
     3    1  128 1    
     4    1  129 1    
     5    2    3 2    
     6    2    4 am   BACKBONE|DICT|INTERRES
     7    4    5 1    
     8    4  130 1    
     9    5    6 1    
    10    5   65 1    
    11    5  131 1    
    12    6    7 1    
    13    6  132 1    
    14    6  133 1    
    15    7    8 1    
    16    8    9 1    
    17    8  134 1    
    18    8  135 1    
    19    9   10 ar   
    20    9   14 ar   
    21   10   11 ar   
    22   10  136 1    
    23   11   12 ar   
    24   11  126 1    
    25   12   13 ar   
    26   12  137 1    
    27   13   14 ar   
    28   13   15 1    
    29   14  138 1    
    30   15   16 1    
    31   15  139 1    
    32   15  140 1    
    33   16   17 1    
    34   17   18 1    
    35   17  141 1    
    36   17  142 1    
    37   18   19 1    
    38   18   67 1    
    39   18  143 1    
    40   19   20 am   BACKBONE|DICT|INTERRES
    41   19  144 1    
    42   20   21 2    
    43   20   22 1    
    44   22   23 1    
    45   22   24 1    
    46   22  145 1    
    47   23  146 1    
    48   23  147 1    
    49   23  148 1    
    50   24   25 am   BACKBONE|DICT|INTERRES
    51   24  149 1    
    52   25   26 2    
    53   25   27 1    
    54   27   28 1    
    55   27   29 1    
    56   27  150 1    
    57   28  151 1    
    58   28  152 1    
    59   28  153 1    
    60   29   30 am   BACKBONE|DICT|INTERRES
    61   29  154 1    
    62   30   31 2    
    63   30   32 1    
    64   32   33 1    
    65   32   34 1    
    66   32  155 1    
    67   33  156 1    
    68   33  157 1    
    69   33  158 1    
    70   34   35 am   BACKBONE|DICT|INTERRES
    71   34  159 1    
    72   35   36 2    
    73   35   37 1    
    74   37   38 1    
    75   37   39 1    
    76   37  160 1    
    77   38  161 1    
    78   38  162 1    
    79   38  163 1    
    80   39   40 am   BACKBONE|DICT|INTERRES
    81   39  164 1    
    82   40   41 2    
    83   40   42 1    
    84   42   43 1    
    85   42   44 1    
    86   42  165 1    
    87   43  166 1    
    88   43  167 1    
    89   43  168 1    
    90   44   45 am   BACKBONE|DICT|INTERRES
    91   44  169 1    
    92   45   46 2    
    93   45   47 1    
    94   47   48 1    
    95   47   49 1    
    96   47  170 1    
    97   48  171 1    
    98   48  172 1    
    99   48  173 1    
   100   49   50 am   BACKBONE|DICT|INTERRES
   101   49  174 1    
   102   50   51 2    
   103   50   52 1    
   104   52   53 1    
   105   52   54 1    
   106   52  175 1    
   107   53  176 1    
   108   53  177 1    
   109   53  178 1    
   110   54   55 am   BACKBONE|DICT|INTERRES
   111   54  179 1    
   112   55   56 2    
   113   55   57 1    
   114   57   58 1    
   115   57   59 1    
   116   57  180 1    
   117   58  181 1    
   118   58  182 1    
   119   58  183 1    
   120   59   60 am   BACKBONE|DICT|INTERRES
   121   59  184 1    
   122   60   61 2    
   123   60   62 1    
   124   62   63 1    
   125   62   64 1    
   126   62  185 1    
   127   63  186 1    
   128   63  187 1    
   129   63  188 1    
   130   64   65 am   BACKBONE|DICT|INTERRES
   131   64  189 1    
   132   65   66 2    
   133   67   68 2    
   134   67   69 am   BACKBONE|DICT|INTERRES
   135   69   70 1    
   136   69  190 1    
   137   70   71 1    
   138   70   72 1    
   139   70  191 1    
   140   71  192 1    
   141   71  193 1    
   142   71  194 1    
   143   72   73 2    
   144   72   74 am   BACKBONE|DICT|INTERRES
   145   74   75 1    
   146   74  195 1    
   147   75   76 1    
   148   75   77 1    
   149   75  196 1    
   150   76  197 1    
   151   76  198 1    
   152   76  199 1    
   153   77   78 2    
   154   77   79 am   BACKBONE|DICT|INTERRES
   155   79   80 1    
   156   79  200 1    
   157   80   81 1    
   158   80   82 1    
   159   80  201 1    
   160   81  202 1    
   161   81  203 1    
   162   81  204 1    
   163   82   83 2    
   164   82   84 am   BACKBONE|DICT|INTERRES
   165   84   85 1    
   166   84  205 1    
   167   85   86 1    
   168   85   87 1    
   169   85  206 1    
   170   86  207 1    
   171   86  208 1    
   172   86  209 1    
   173   87   88 2    
   174   87   89 am   BACKBONE|DICT|INTERRES
   175   89   90 1    
   176   89  210 1    
   177   90   91 1    
   178   90   92 1    
   179   90  211 1    
   180   91  212 1    
   181   91  213 1    
   182   91  214 1    
   183   92   93 2    
   184   92   94 am   BACKBONE|DICT|INTERRES
   185   94   95 1    
   186   94  215 1    
   187   95   96 1    
   188   95   97 1    
   189   95  216 1    
   190   96  217 1    
   191   96  218 1    
   192   96  219 1    
   193   97   98 2    
   194   97   99 am   BACKBONE|DICT|INTERRES
   195   99  100 1    
   196   99  220 1    
   197  100  101 1    
   198  100  102 1    
   199  100  221 1    
   200  101  222 1    
   201  101  223 1    
   202  101  224 1    
   203  102  103 2    
   204  102  104 am   BACKBONE|DICT|INTERRES
   205  104  105 1    
   206  104  225 1    
   207  105  106 1    
   208  105  107 1    
   209  105  226 1    
   210  106  227 1    
   211  106  228 1    
   212  106  229 1    
   213  107  108 2    
   214  107  109 am   BACKBONE|DICT|INTERRES
   215  109  110 1    
   216  109  230 1    
   217  110  111 1    
   218  110  112 1    
   219  110  231 1    
   220  111  232 1    
   221  111  233 1    
   222  111  234 1    
   223  112  113 2    
   224  112  114 am   BACKBONE|DICT|INTERRES
   225  114  115 1    
   226  114  235 1    
   227  115  116 1    
   228  115  117 1    
   229  115  236 1    
   230  116  237 1    
   231  116  238 1    
   232  116  239 1    
   233  117  118 2    
   234  117  119 am   BACKBONE|DICT|INTERRES
   235  119  120 1    
   236  119  240 1    
   237  120  121 1    
   238  120  124 1    
   239  120  241 1    
   240  121  122 am   BACKBONE|DICT|INTERRES
   241  121  123 2    
   242  122  242 1    
   243  122  243 1    
   244  124  125 1    
   245  124  244 1    
   246  124  245 1    
   247  125  126 1    
   248  126  246 1    
   249  126  247 1    
@<TRIPOS>SUBSTRUCTURE
     1 UNK         1 GROUP             0       ****    0 ROOT    
