@<TRIPOS>MOLECULE
3R540
247   249    1
SMALL
USER_CHARGES


@<TRIPOS>ATOM
      1 CA          8.4640  -15.1325  -52.4044 C.3       0 UNK        -0.1800 
      2 C           8.1423  -16.5708  -52.0221 C.2       0 UNK         0.5000 
      3 O           9.0320  -17.4223  -52.0437 O.2       0 UNK        -0.5000 
      4 N           6.8759  -16.8396  -51.6842 N.am      1 UNK        -0.5000 
      5 CA          6.3720  -18.1358  -51.2209 C.3       1 UNK         0.1400 
      6 C6          4.9720  -18.4402  -51.8226 C.3       23 UNK        -0.0398 
      7 S7          3.6603  -17.2602  -51.3375 S.3       23 UNK        -0.2404 
      8 C8          2.3024  -18.4112  -50.9683 C.3       23 UNK        -0.0205 
      9 C9          1.0910  -17.6880  -50.4137 C.ar      23 UNK        -0.0193 
     10 C10        -0.0304  -17.4516  -51.2124 C.ar      23 UNK        -0.1150 
     11 C11        -1.1444  -16.7860  -50.6912 C.ar      23 UNK        -0.0193 
     12 C12        -1.1352  -16.3735  -49.3537 C.ar      23 UNK        -0.1150 
     13 C13        -0.0127  -16.6029  -48.5490 C.ar      23 UNK        -0.0193 
     14 C14         1.0951  -17.2574  -49.0875 C.ar      23 UNK        -0.1150 
     15 C15         0.0281  -16.1076  -47.1132 C.3       23 UNK        -0.0205 
     16 S16        -0.5515  -17.3595  -45.9295 S.3       23 UNK        -0.2404 
     17 C17         0.8809  -18.4775  -45.7335 C.3       23 UNK        -0.0398 
     18 CA          0.5523  -19.9800  -45.9193 C.3       11 UNK         0.1400 
     19 N          -0.4261  -20.4635  -44.9366 N.am      11 UNK        -0.5000 
     20 C          -0.7172  -21.7576  -44.7402 C.2       10 UNK         0.5000 
     21 O          -0.1752  -22.6808  -45.3475 O.2       10 UNK        -0.5000 
     22 CA         -1.8252  -22.0769  -43.7277 C.3       10 UNK         0.1400 
     23 CB         -1.2833  -22.0115  -42.2926 C.3       10 UNK        -0.1800 
     24 N          -2.9779  -21.1879  -43.8637 N.am      10 UNK        -0.5000 
     25 C          -3.8666  -21.2434  -44.8645 C.2       9 UNK         0.5000 
     26 O          -3.7610  -21.9998  -45.8285 O.2       9 UNK        -0.5000 
     27 CA         -5.0773  -20.2984  -44.7754 C.3       9 UNK         0.1400 
     28 CB         -6.1858  -20.9224  -43.9148 C.3       9 UNK        -0.1800 
     29 N          -4.7214  -18.9892  -44.2318 N.am      9 UNK        -0.5000 
     30 C          -4.1133  -18.0361  -44.9485 C.2       8 UNK         0.5000 
     31 O          -3.8589  -18.1484  -46.1471 O.2       8 UNK        -0.5000 
     32 CA         -3.7268  -16.7404  -44.2086 C.3       8 UNK         0.1400 
     33 CB         -4.8888  -15.7372  -44.2671 C.3       8 UNK        -0.1800 
     34 N          -3.3032  -16.8972  -42.8113 N.am      8 UNK        -0.5000 
     35 C          -2.3738  -17.7389  -42.3334 C.2       7 UNK         0.5000 
     36 O          -1.8308  -18.6239  -42.9964 O.2       7 UNK        -0.5000 
     37 CA         -1.9655  -17.5036  -40.8697 C.3       7 UNK         0.1400 
     38 CB         -1.0025  -18.5753  -40.3301 C.3       7 UNK        -0.1800 
     39 N          -1.3078  -16.2045  -40.8077 N.am      7 UNK        -0.5000 
     40 C          -1.7141  -15.1477  -40.0924 C.2       6 UNK         0.5000 
     41 O          -2.6540  -15.1801  -39.2975 O.2       6 UNK        -0.5000 
     42 CA         -0.9651  -13.8167  -40.3253 C.3       6 UNK         0.1400 
     43 CB          0.1339  -13.6263  -39.2691 C.3       6 UNK        -0.1800 
     44 N          -0.3643  -13.7222  -41.6582 N.am      6 UNK        -0.5000 
     45 C          -1.0507  -13.7112  -42.8093 C.2       5 UNK         0.5000 
     46 O          -2.2760  -13.6050  -42.8638 O.2       5 UNK        -0.5000 
     47 CA         -0.2547  -13.8869  -44.1191 C.3       5 UNK         0.1400 
     48 CB         -0.2462  -12.5833  -44.9312 C.3       5 UNK        -0.1800 
     49 N           1.1285  -14.3584  -43.9749 N.am      5 UNK        -0.5000 
     50 C           1.5402  -15.5006  -43.4102 C.2       4 UNK         0.5000 
     51 O           0.7818  -16.2877  -42.8432 O.2       4 UNK        -0.5000 
     52 CA          3.0551  -15.7930  -43.4805 C.3       4 UNK         0.1400 
     53 CB          3.4505  -17.0426  -42.6726 C.3       4 UNK        -0.1800 
     54 N           3.5579  -15.9480  -44.8487 N.am      4 UNK        -0.5000 
     55 C           3.7393  -14.9750  -45.7493 C.2       3 UNK         0.5000 
     56 O           3.4133  -13.8049  -45.5421 O.2       3 UNK        -0.5000 
     57 CA          4.3824  -15.3334  -47.1106 C.3       3 UNK         0.1400 
     58 CB          5.7413  -14.6246  -47.2690 C.3       3 UNK        -0.1800 
     59 N           4.5274  -16.7592  -47.4511 N.am      3 UNK        -0.5000 
     60 C           5.2304  -17.7147  -46.8220 C.2       2 UNK         0.5000 
     61 O           5.7366  -17.5819  -45.7090 O.2       2 UNK        -0.5000 
     62 CA          5.4051  -19.0502  -47.5739 C.3       2 UNK         0.1400 
     63 CB          4.2471  -20.0038  -47.2458 C.3       2 UNK        -0.1800 
     64 N           5.5005  -18.8986  -49.0300 N.am      2 UNK        -0.5000 
     65 C           6.4674  -18.2279  -49.6759 C.2       1 UNK         0.5000 
     66 O           7.4155  -17.6984  -49.0907 O.2       1 UNK        -0.5000 
     67 C           0.1324  -20.3244  -47.3643 C.2       11 UNK         0.5000 
     68 O           0.9706  -20.7179  -48.1763 O.2       11 UNK        -0.5000 
     69 N          -1.1747  -20.2250  -47.6301 N.am      12 UNK        -0.5000 
     70 CA         -1.7931  -20.5873  -48.8950 C.3       12 UNK         0.1400 
     71 CB         -3.2176  -20.0358  -48.9113 C.3       12 UNK        -0.1800 
     72 C          -1.8002  -22.1054  -49.1251 C.2       12 UNK         0.5000 
     73 O          -1.5302  -22.5476  -50.2417 O.2       12 UNK        -0.5000 
     74 N          -2.1174  -22.8834  -48.0802 N.am      13 UNK        -0.5000 
     75 CA         -2.1224  -24.3474  -48.1085 C.3       13 UNK         0.1400 
     76 CB         -2.7664  -24.8959  -46.8279 C.3       13 UNK        -0.1800 
     77 C          -0.7190  -24.9424  -48.3109 C.2       13 UNK         0.5000 
     78 O          -0.5819  -25.9136  -49.0538 O.2       13 UNK        -0.5000 
     79 N           0.3023  -24.3205  -47.7038 N.am      14 UNK        -0.5000 
     80 CA          1.7165  -24.6721  -47.8674 C.3       14 UNK         0.1400 
     81 CB          2.5653  -23.8215  -46.9100 C.3       14 UNK        -0.1800 
     82 C           2.2210  -24.5188  -49.3166 C.2       14 UNK         0.5000 
     83 O           3.0804  -25.2888  -49.7461 O.2       14 UNK        -0.5000 
     84 N           1.6539  -23.5511  -50.0477 N.am      15 UNK        -0.5000 
     85 CA          1.9085  -23.3085  -51.4681 C.3       15 UNK         0.1400 
     86 CB          1.8047  -21.7984  -51.7177 C.3       15 UNK        -0.1800 
     87 C           0.9545  -24.0861  -52.3987 C.2       15 UNK         0.5000 
     88 O           1.0894  -23.9752  -53.6177 O.2       15 UNK        -0.5000 
     89 N           0.0039  -24.8370  -51.8212 N.am      16 UNK        -0.5000 
     90 CA         -1.0592  -25.6081  -52.4770 C.3       16 UNK         0.1400 
     91 CB         -0.4697  -26.7387  -53.3460 C.3       16 UNK        -0.1800 
     92 C          -2.0913  -24.7439  -53.2365 C.2       16 UNK         0.5000 
     93 O          -2.8061  -25.2626  -54.0958 O.2       16 UNK        -0.5000 
     94 N          -2.1759  -23.4519  -52.8938 N.am      17 UNK        -0.5000 
     95 CA         -3.1789  -22.5173  -53.4034 C.3       17 UNK         0.1400 
     96 CB         -2.6209  -21.0869  -53.3245 C.3       17 UNK        -0.1800 
     97 C          -4.4907  -22.6348  -52.6088 C.2       17 UNK         0.5000 
     98 O          -5.5673  -22.6294  -53.2055 O.2       17 UNK        -0.5000 
     99 N          -4.3501  -22.7735  -51.2815 N.am      18 UNK        -0.5000 
    100 CA        -5.3916  -22.8650  -50.2535 C.3       18 UNK         0.1400 
    101 CB        -6.2931  -24.0928  -50.4952 C.3       18 UNK        -0.1800 
    102 C         -6.2243  -21.5764  -50.0814 C.2       18 UNK         0.5000 
    103 O         -6.1678  -20.6528  -50.8991 O.2       18 UNK        -0.5000 
    104 N         -7.0050  -21.5414  -48.9928 N.am      19 UNK        -0.5000 
    105 CA        -7.8832  -20.4273  -48.6189 C.3       19 UNK         0.1400 
    106 CB        -8.4946  -20.7132  -47.2394 C.3       19 UNK        -0.1800 
    107 C         -8.9926  -20.1348  -49.6489 C.2       19 UNK         0.5000 
    108 O         -9.4761  -19.0053  -49.7116 O.2       19 UNK        -0.5000 
    109 N         -9.3456  -21.1378  -50.4650 N.am      20 UNK        -0.5000 
    110 CA       -10.2661  -21.0179  -51.5958 C.3       20 UNK         0.1400 
    111 CB       -10.5165  -22.4149  -52.1842 C.3       20 UNK        -0.1800 
    112 C         -9.7698  -20.0518  -52.6914 C.2       20 UNK         0.5000 
    113 O        -10.5971  -19.4270  -53.3567 O.2       20 UNK        -0.5000 
    114 N         -8.4437  -19.9360  -52.8503 N.am      21 UNK        -0.5000 
    115 CA        -7.8056  -18.9907  -53.7624 C.3       21 UNK         0.1400 
    116 CB        -6.5746  -19.6495  -54.4047 C.3       21 UNK        -0.1800 
    117 C         -7.4011  -17.7054  -53.0248 C.2       21 UNK         0.5000 
    118 O         -7.6902  -16.6110  -53.5108 O.2       21 UNK        -0.5000 
    119 N         -6.7199  -17.8608  -51.8828 N.am      22 UNK        -0.5000 
    120 CA        -6.0803  -16.7560  -51.1479 C.3       22 UNK         0.1400 
    121 C         -7.0120  -15.9705  -50.1820 C.2       22 UNK         0.5000 
    122 N         -8.2173  -16.4296  -49.8746 N.am      22 UNK        -0.7600 
    123 O         -6.6363  -14.9009  -49.7103 O.2       22 UNK        -0.5000 
    124 C124       -4.7986  -17.2361  -50.4258 C.3       23 UNK        -0.0398 
    125 S125       -3.5446  -17.8323  -51.6158 S.3       23 UNK        -0.2404 
    126 C126       -2.3293  -16.4791  -51.5962 C.3       23 UNK        -0.0205 
    127 H127        8.8546  -15.0924  -53.4213 H         1 UNK         0.0600 
    128 H128        7.5830  -14.4921  -52.3533 H         1 UNK         0.0600 
    129 H129        9.2189  -14.7258  -51.7315 H         1 UNK         0.0600 
    130 H130        6.1985  -16.0903  -51.6705 H         1 UNK         0.3000 
    131 H131        7.0359  -18.9189  -51.5928 H         1 UNK         0.0600 
    132 H132        4.6710  -19.4615  -51.5846 H         1 UNK         0.0800 
    133 H133        5.0409  -18.4184  -52.9112 H         1 UNK         0.0800 
    134 H134        2.6305  -19.1505  -50.2372 H         1 UNK         0.0800 
    135 H135        2.0379  -18.9535  -51.8769 H         1 UNK         0.0800 
    136 H136       -0.0335  -17.7752  -52.2438 H         1 UNK         0.1150 
    137 H137       -1.9924  -15.8580  -48.9445 H         1 UNK         0.1150 
    138 H138        1.9691  -17.4293  -48.4800 H         1 UNK         0.1150 
    139 H139        1.0340  -15.7838  -46.8453 H         1 UNK         0.0800 
    140 H140       -0.6053  -15.2247  -47.0211 H         1 UNK         0.0800 
    141 H141        1.2683  -18.3256  -44.7263 H         1 UNK         0.0800 
    142 H142        1.6885  -18.1772  -46.3982 H         1 UNK         0.0800 
    143 H143        1.4768  -20.5304  -45.7318 H         1 UNK         0.0600 
    144 H144       -0.9174  -19.7588  -44.3921 H         1 UNK         0.3000 
    145 H145       -2.1638  -23.0987  -43.9113 H         1 UNK         0.0600 
    146 H146       -2.0630  -22.2285  -41.5624 H         1 UNK         0.0600 
    147 H147       -0.4868  -22.7420  -42.1461 H         1 UNK         0.0600 
    148 H148       -0.8689  -21.0299  -42.0645 H         1 UNK         0.0600 
    149 H149       -3.0595  -20.4492  -43.1789 H         1 UNK         0.3000 
    150 H150       -5.4693  -20.1675  -45.7865 H         1 UNK         0.0600 
    151 H151       -6.4819  -21.8964  -44.3069 H         1 UNK         0.0600 
    152 H152       -7.0762  -20.2936  -43.9033 H         1 UNK         0.0600 
    153 H153       -5.8636  -21.0681  -42.8830 H         1 UNK         0.0600 
    154 H154       -4.9078  -18.8209  -43.2544 H         1 UNK         0.3000 
    155 H155       -2.8875  -16.2969  -44.7434 H         1 UNK         0.0600 
    156 H156       -5.7526  -16.0891  -43.7020 H         1 UNK         0.0600 
    157 H157       -5.2131  -15.5732  -45.2959 H         1 UNK         0.0600 
    158 H158       -4.5957  -14.7676  -43.8643 H         1 UNK         0.0600 
    159 H159       -3.6597  -16.1979  -42.1761 H         1 UNK         0.3000 
    160 H160       -2.8733  -17.5176  -40.2633 H         1 UNK         0.0600 
    161 H161       -0.7018  -18.3524  -39.3064 H         1 UNK         0.0600 
    162 H162       -0.0973  -18.6479  -40.9350 H         1 UNK         0.0600 
    163 H163       -1.4797  -19.5552  -40.3206 H         1 UNK         0.0600 
    164 H164       -0.5461  -16.0859  -41.4724 H         1 UNK         0.3000 
    165 H165       -1.6891  -13.0059  -40.2215 H         1 UNK         0.0600 
    166 H166        0.6252  -12.6594  -39.3799 H         1 UNK         0.0600 
    167 H167       -0.2823  -13.6646  -38.2615 H         1 UNK         0.0600 
    168 H168        0.8973  -14.4024  -39.3387 H         1 UNK         0.0600 
    169 H169        0.6396  -13.8081  -41.7099 H         1 UNK         0.3000 
    170 H170       -0.7926  -14.6405  -44.6944 H         1 UNK         0.0600 
    171 H171       -1.2599  -12.2178  -45.1009 H         1 UNK         0.0600 
    172 H172        0.3066  -11.7960  -44.4174 H         1 UNK         0.0600 
    173 H173        0.2115  -12.7317  -45.9096 H         1 UNK         0.0600 
    174 H174        1.8399  -13.8090  -44.4494 H         1 UNK         0.3000 
    175 H175        3.5629  -14.9386  -43.0286 H         1 UNK         0.0600 
    176 H176        3.0002  -17.9482  -43.0798 H         1 UNK         0.0600 
    177 H177        4.5318  -17.1814  -42.6671 H         1 UNK         0.0600 
    178 H178        3.1308  -16.9556  -41.6333 H         1 UNK         0.0600 
    179 H179        3.9504  -16.8519  -45.0793 H         1 UNK         0.3000 
    180 H180        3.7108  -14.9232  -47.8665 H         1 UNK         0.0600 
    181 H181        6.4673  -14.9769  -46.5355 H         1 UNK         0.0600 
    182 H182        5.6423  -13.5462  -47.1391 H         1 UNK         0.0600 
    183 H183        6.1604  -14.7935  -48.2613 H         1 UNK         0.0600 
    184 H184        4.1632  -17.0054  -48.3601 H         1 UNK         0.3000 
    185 H185        6.3339  -19.5051  -47.2235 H         1 UNK         0.0600 
    186 H186        4.1449  -20.1454  -46.1690 H         1 UNK         0.0600 
    187 H187        3.2995  -19.6187  -47.6202 H         1 UNK         0.0600 
    188 H188        4.4056  -20.9876  -47.6881 H         1 UNK         0.0600 
    189 H189        4.7648  -19.3269  -49.5696 H         1 UNK         0.3000 
    190 H190       -1.7858  -19.8670  -46.9093 H         1 UNK         0.3000 
    191 H191       -1.2288  -20.1164  -49.7033 H         1 UNK         0.0600 
    192 H192       -3.6760  -20.1952  -49.8859 H         1 UNK         0.0600 
    193 H193       -3.8534  -20.5028  -48.1586 H         1 UNK         0.0600 
    194 H194       -3.2096  -18.9633  -48.7200 H         1 UNK         0.0600 
    195 H195       -2.4014  -22.4499  -47.2071 H         1 UNK         0.3000 
    196 H196       -2.7368  -24.6627  -48.9546 H         1 UNK         0.0600 
    197 H197       -2.7732  -25.9866  -46.8289 H         1 UNK         0.0600 
    198 H198       -3.8013  -24.5666  -46.7357 H         1 UNK         0.0600 
    199 H199       -2.2292  -24.5711  -45.9367 H         1 UNK         0.0600 
    200 H200        0.0960  -23.5654  -47.0550 H         1 UNK         0.3000 
    201 H201        1.8321  -25.7211  -47.5878 H         1 UNK         0.0600 
    202 H202        2.2788  -23.9920  -45.8721 H         1 UNK         0.0600 
    203 H203        2.4573  -22.7562  -47.1154 H         1 UNK         0.0600 
    204 H204        3.6240  -24.0680  -46.9995 H         1 UNK         0.0600 
    205 H205        0.9665  -22.9544  -49.6063 H         1 UNK         0.3000 
    206 H206        2.9245  -23.6211  -51.7171 H         1 UNK         0.0600 
    207 H207        2.5514  -21.2715  -51.1265 H         1 UNK         0.0600 
    208 H208        1.9866  -21.5523  -52.7645 H         1 UNK         0.0600 
    209 H209        0.8214  -21.4087  -51.4500 H         1 UNK         0.0600 
    210 H210       -0.0115  -24.8759  -50.8092 H         1 UNK         0.3000 
    211 H211       -1.6172  -26.0817  -51.6682 H         1 UNK         0.0600 
    212 H212        0.0363  -26.3503  -54.2301 H         1 UNK         0.0600 
    213 H213       -1.2519  -27.4160  -53.6907 H         1 UNK         0.0600 
    214 H214        0.2475  -27.3354  -52.7825 H         1 UNK         0.0600 
    215 H215       -1.5952  -23.1214  -52.1300 H         1 UNK         0.3000 
    216 H216       -3.3899  -22.7436  -54.4507 H         1 UNK         0.0600 
    217 H217       -3.3402  -20.3656  -53.7143 H         1 UNK         0.0600 
    218 H218       -1.7085  -20.9870  -53.9124 H         1 UNK         0.0600 
    219 H219       -2.3902  -20.7953  -52.2991 H         1 UNK         0.0600 
    220 H220       -3.3996  -22.7583  -50.9312 H         1 UNK         0.3000 
    221 H221       -4.8615  -23.0205  -49.3128 H         1 UNK         0.0600 
    222 H222       -6.9304  -23.9655  -51.3708 H         1 UNK         0.0600 
    223 H223       -5.6978  -24.9939  -50.6440 H         1 UNK         0.0600 
    224 H224       -6.9473  -24.2793  -49.6432 H         1 UNK         0.0600 
    225 H225       -7.0017  -22.3315  -48.3641 H         1 UNK         0.3000 
    226 H226       -7.2655  -19.5297  -48.5420 H         1 UNK         0.0600 
    227 H227       -9.1218  -21.6054  -47.2545 H         1 UNK         0.0600 
    228 H228       -9.1160  -19.8803  -46.9074 H         1 UNK         0.0600 
    229 H229       -7.7219  -20.8597  -46.4860 H         1 UNK         0.0600 
    230 H230       -8.9002  -22.0338  -50.3375 H         1 UNK         0.3000 
    231 H231      -11.2133  -20.6289  -51.2165 H         1 UNK         0.0600 
    232 H232      -10.9432  -23.0870  -51.4394 H         1 UNK         0.0600 
    233 H233       -9.5952  -22.8653  -52.5563 H         1 UNK         0.0600 
    234 H234      -11.2188  -22.3675  -53.0176 H         1 UNK         0.0600 
    235 H235       -7.8249  -20.4622  -52.2446 H         1 UNK         0.3000 
    236 H236       -8.4927  -18.7192  -54.5666 H         1 UNK         0.0600 
    237 H237       -6.8486  -20.5556  -54.9452 H         1 UNK         0.0600 
    238 H238       -6.0974  -18.9751  -55.1166 H         1 UNK         0.0600 
    239 H239       -5.8266  -19.9199  -53.6588 H         1 UNK         0.0600 
    240 H240       -6.5059  -18.7984  -51.5579 H         1 UNK         0.3000 
    241 H241       -5.7605  -16.0146  -51.8831 H         1 UNK         0.0600 
    242 H242       -8.7999  -15.8888  -49.2563 H         1 UNK         0.3800 
    243 H243       -8.5486  -17.3332  -50.1933 H         1 UNK         0.3800 
    244 H244       -5.0514  -18.0454  -49.7407 H         1 UNK         0.0800 
    245 H245       -4.3650  -16.4458  -49.8110 H         1 UNK         0.0800 
    246 H246       -2.8025  -15.5407  -51.3041 H         1 UNK         0.0800 
    247 H247       -1.9747  -16.3241  -52.6163 H         1 UNK         0.0800 
@<TRIPOS>BOND
     1    1    2 1    
     2    1  127 1    
     3    1  128 1    
     4    1  129 1    
     5    2    3 2    
     6    2    4 am   BACKBONE|DICT|INTERRES
     7    4    5 1    
     8    4  130 1    
     9    5    6 1    
    10    5   65 1    
    11    5  131 1    
    12    6    7 1    
    13    6  132 1    
    14    6  133 1    
    15    7    8 1    
    16    8    9 1    
    17    8  134 1    
    18    8  135 1    
    19    9   10 ar   
    20    9   14 ar   
    21   10   11 ar   
    22   10  136 1    
    23   11   12 ar   
    24   11  126 1    
    25   12   13 ar   
    26   12  137 1    
    27   13   14 ar   
    28   13   15 1    
    29   14  138 1    
    30   15   16 1    
    31   15  139 1    
    32   15  140 1    
    33   16   17 1    
    34   17   18 1    
    35   17  141 1    
    36   17  142 1    
    37   18   19 1    
    38   18   67 1    
    39   18  143 1    
    40   19   20 am   BACKBONE|DICT|INTERRES
    41   19  144 1    
    42   20   21 2    
    43   20   22 1    
    44   22   23 1    
    45   22   24 1    
    46   22  145 1    
    47   23  146 1    
    48   23  147 1    
    49   23  148 1    
    50   24   25 am   BACKBONE|DICT|INTERRES
    51   24  149 1    
    52   25   26 2    
    53   25   27 1    
    54   27   28 1    
    55   27   29 1    
    56   27  150 1    
    57   28  151 1    
    58   28  152 1    
    59   28  153 1    
    60   29   30 am   BACKBONE|DICT|INTERRES
    61   29  154 1    
    62   30   31 2    
    63   30   32 1    
    64   32   33 1    
    65   32   34 1    
    66   32  155 1    
    67   33  156 1    
    68   33  157 1    
    69   33  158 1    
    70   34   35 am   BACKBONE|DICT|INTERRES
    71   34  159 1    
    72   35   36 2    
    73   35   37 1    
    74   37   38 1    
    75   37   39 1    
    76   37  160 1    
    77   38  161 1    
    78   38  162 1    
    79   38  163 1    
    80   39   40 am   BACKBONE|DICT|INTERRES
    81   39  164 1    
    82   40   41 2    
    83   40   42 1    
    84   42   43 1    
    85   42   44 1    
    86   42  165 1    
    87   43  166 1    
    88   43  167 1    
    89   43  168 1    
    90   44   45 am   BACKBONE|DICT|INTERRES
    91   44  169 1    
    92   45   46 2    
    93   45   47 1    
    94   47   48 1    
    95   47   49 1    
    96   47  170 1    
    97   48  171 1    
    98   48  172 1    
    99   48  173 1    
   100   49   50 am   BACKBONE|DICT|INTERRES
   101   49  174 1    
   102   50   51 2    
   103   50   52 1    
   104   52   53 1    
   105   52   54 1    
   106   52  175 1    
   107   53  176 1    
   108   53  177 1    
   109   53  178 1    
   110   54   55 am   BACKBONE|DICT|INTERRES
   111   54  179 1    
   112   55   56 2    
   113   55   57 1    
   114   57   58 1    
   115   57   59 1    
   116   57  180 1    
   117   58  181 1    
   118   58  182 1    
   119   58  183 1    
   120   59   60 am   BACKBONE|DICT|INTERRES
   121   59  184 1    
   122   60   61 2    
   123   60   62 1    
   124   62   63 1    
   125   62   64 1    
   126   62  185 1    
   127   63  186 1    
   128   63  187 1    
   129   63  188 1    
   130   64   65 am   BACKBONE|DICT|INTERRES
   131   64  189 1    
   132   65   66 2    
   133   67   68 2    
   134   67   69 am   BACKBONE|DICT|INTERRES
   135   69   70 1    
   136   69  190 1    
   137   70   71 1    
   138   70   72 1    
   139   70  191 1    
   140   71  192 1    
   141   71  193 1    
   142   71  194 1    
   143   72   73 2    
   144   72   74 am   BACKBONE|DICT|INTERRES
   145   74   75 1    
   146   74  195 1    
   147   75   76 1    
   148   75   77 1    
   149   75  196 1    
   150   76  197 1    
   151   76  198 1    
   152   76  199 1    
   153   77   78 2    
   154   77   79 am   BACKBONE|DICT|INTERRES
   155   79   80 1    
   156   79  200 1    
   157   80   81 1    
   158   80   82 1    
   159   80  201 1    
   160   81  202 1    
   161   81  203 1    
   162   81  204 1    
   163   82   83 2    
   164   82   84 am   BACKBONE|DICT|INTERRES
   165   84   85 1    
   166   84  205 1    
   167   85   86 1    
   168   85   87 1    
   169   85  206 1    
   170   86  207 1    
   171   86  208 1    
   172   86  209 1    
   173   87   88 2    
   174   87   89 am   BACKBONE|DICT|INTERRES
   175   89   90 1    
   176   89  210 1    
   177   90   91 1    
   178   90   92 1    
   179   90  211 1    
   180   91  212 1    
   181   91  213 1    
   182   91  214 1    
   183   92   93 2    
   184   92   94 am   BACKBONE|DICT|INTERRES
   185   94   95 1    
   186   94  215 1    
   187   95   96 1    
   188   95   97 1    
   189   95  216 1    
   190   96  217 1    
   191   96  218 1    
   192   96  219 1    
   193   97   98 2    
   194   97   99 am   BACKBONE|DICT|INTERRES
   195   99  100 1    
   196   99  220 1    
   197  100  101 1    
   198  100  102 1    
   199  100  221 1    
   200  101  222 1    
   201  101  223 1    
   202  101  224 1    
   203  102  103 2    
   204  102  104 am   BACKBONE|DICT|INTERRES
   205  104  105 1    
   206  104  225 1    
   207  105  106 1    
   208  105  107 1    
   209  105  226 1    
   210  106  227 1    
   211  106  228 1    
   212  106  229 1    
   213  107  108 2    
   214  107  109 am   BACKBONE|DICT|INTERRES
   215  109  110 1    
   216  109  230 1    
   217  110  111 1    
   218  110  112 1    
   219  110  231 1    
   220  111  232 1    
   221  111  233 1    
   222  111  234 1    
   223  112  113 2    
   224  112  114 am   BACKBONE|DICT|INTERRES
   225  114  115 1    
   226  114  235 1    
   227  115  116 1    
   228  115  117 1    
   229  115  236 1    
   230  116  237 1    
   231  116  238 1    
   232  116  239 1    
   233  117  118 2    
   234  117  119 am   BACKBONE|DICT|INTERRES
   235  119  120 1    
   236  119  240 1    
   237  120  121 1    
   238  120  124 1    
   239  120  241 1    
   240  121  122 am   BACKBONE|DICT|INTERRES
   241  121  123 2    
   242  122  242 1    
   243  122  243 1    
   244  124  125 1    
   245  124  244 1    
   246  124  245 1    
   247  125  126 1    
   248  126  246 1    
   249  126  247 1    
@<TRIPOS>SUBSTRUCTURE
     1 UNK         1 GROUP             0       ****    0 ROOT    
