@<TRIPOS>MOLECULE
3R540
247   249    1
SMALL
USER_CHARGES


@<TRIPOS>ATOM
      1 CA          5.1718  -11.7966  -46.6999 C.3       0 UNK        -0.1800 
      2 C           3.7783  -12.3702  -46.9090 C.2       0 UNK         0.5000 
      3 O           3.1816  -12.8907  -45.9673 O.2       0 UNK        -0.5000 
      4 N           3.2446  -12.2617  -48.1341 N.am      1 UNK        -0.5000 
      5 CA          1.9280  -12.7835  -48.5328 C.3       1 UNK         0.1400 
      6 C6          1.7264  -12.7047  -50.0679 C.3       23 UNK        -0.0398 
      7 S7          0.7301  -14.0973  -50.6894 S.3       23 UNK        -0.2404 
      8 C8          2.0534  -15.2596  -51.1395 C.3       23 UNK        -0.0205 
      9 C9          1.5022  -16.6613  -51.3218 C.ar      23 UNK        -0.0193 
     10 C10         0.9534  -17.0490  -52.5476 C.ar      23 UNK        -0.1150 
     11 C11         0.4292  -18.3335  -52.7101 C.ar      23 UNK        -0.0193 
     12 C12         0.4720  -19.2344  -51.6430 C.ar      23 UNK        -0.1150 
     13 C13         1.0091  -18.8546  -50.4106 C.ar      23 UNK        -0.0193 
     14 C14         1.5250  -17.5660  -50.2561 C.ar      23 UNK        -0.1150 
     15 C15         0.9897  -19.8209  -49.2387 C.3       23 UNK        -0.0205 
     16 S16         2.5339  -20.7771  -49.1090 S.3       23 UNK        -0.2404 
     17 C17         1.8952  -22.3707  -48.4937 C.3       23 UNK        -0.0398 
     18 CA          2.8772  -23.1328  -47.5682 C.3       11 UNK         0.1400 
     19 N           3.1201  -22.4247  -46.3030 N.am      11 UNK        -0.5000 
     20 C           4.0749  -22.7477  -45.4175 C.2       10 UNK         0.5000 
     21 O           4.9104  -23.6323  -45.6074 O.2       10 UNK        -0.5000 
     22 CA          4.0767  -21.9838  -44.0801 C.3       10 UNK         0.1400 
     23 CB          4.8570  -20.6648  -44.1936 C.3       10 UNK        -0.1800 
     24 N           2.7188  -21.7199  -43.6000 N.am      10 UNK        -0.5000 
     25 C           1.9367  -22.6360  -43.0095 C.2       9 UNK         0.5000 
     26 O           2.3037  -23.7833  -42.7557 O.2       9 UNK        -0.5000 
     27 CA          0.4910  -22.2186  -42.6708 C.3       9 UNK         0.1400 
     28 CB          0.4207  -21.5952  -41.2690 C.3       9 UNK        -0.1800 
     29 N          -0.0832  -21.2887  -43.6429 N.am      9 UNK        -0.5000 
     30 C          -0.3084  -21.5784  -44.9307 C.2       8 UNK         0.5000 
     31 O          -0.1222  -22.6879  -45.4287 O.2       8 UNK        -0.5000 
     32 CA         -0.7613  -20.4231  -45.8348 C.3       8 UNK         0.1400 
     33 CB         -2.2821  -20.2842  -45.8119 C.3       8 UNK        -0.1800 
     34 N          -0.1543  -19.1349  -45.5013 N.am      8 UNK        -0.5000 
     35 C           1.1605  -18.8774  -45.4875 C.2       7 UNK         0.5000 
     36 O           2.0169  -19.7069  -45.7887 O.2       7 UNK        -0.5000 
     37 CA          1.5807  -17.4831  -44.9929 C.3       7 UNK         0.1400 
     38 CB          1.3990  -16.4253  -46.0954 C.3       7 UNK        -0.1800 
     39 N           0.8237  -17.1179  -43.7919 N.am      7 UNK        -0.5000 
     40 C           1.0500  -17.6591  -42.5839 C.2       6 UNK         0.5000 
     41 O           2.0062  -18.3959  -42.3424 O.2       6 UNK        -0.5000 
     42 CA          0.0184  -17.3884  -41.4710 C.3       6 UNK         0.1400 
     43 CB          0.4787  -16.2775  -40.5174 C.3       6 UNK        -0.1800 
     44 N          -1.3087  -17.0664  -41.9969 N.am      6 UNK        -0.5000 
     45 C          -2.1705  -17.9890  -42.4463 C.2       5 UNK         0.5000 
     46 O          -1.9376  -19.1973  -42.4275 O.2       5 UNK        -0.5000 
     47 CA         -3.4909  -17.4800  -43.0594 C.3       5 UNK         0.1400 
     48 CB         -4.5699  -17.3348  -41.9775 C.3       5 UNK        -0.1800 
     49 N          -3.3486  -16.2087  -43.7708 N.am      5 UNK        -0.5000 
     50 C          -2.5692  -16.0114  -44.8422 C.2       4 UNK         0.5000 
     51 O          -1.9128  -16.9068  -45.3718 O.2       4 UNK        -0.5000 
     52 CA         -2.4768  -14.5780  -45.3984 C.3       4 UNK         0.1400 
     53 CB         -3.7263  -13.7219  -45.1012 C.3       4 UNK        -0.1800 
     54 N          -1.2723  -13.8656  -44.9580 N.am      4 UNK        -0.5000 
     55 C          -0.8480  -13.6504  -43.6998 C.2       3 UNK         0.5000 
     56 O          -1.3511  -14.1797  -42.7081 O.2       3 UNK        -0.5000 
     57 CA          0.3193  -12.6567  -43.4983 C.3       3 UNK         0.1400 
     58 CB          1.6242  -13.3870  -43.1478 C.3       3 UNK        -0.1800 
     59 N           0.5567  -11.7993  -44.6602 N.am      3 UNK        -0.5000 
     60 C          -0.2650  -10.8198  -45.0699 C.2       2 UNK         0.5000 
     61 O          -1.2591  -10.4610  -44.4378 O.2       2 UNK        -0.5000 
     62 CA          0.0490  -10.1418  -46.4214 C.3       2 UNK         0.1400 
     63 CB          0.6342   -8.7392  -46.1958 C.3       2 UNK        -0.1800 
     64 N           0.9638  -10.8993  -47.2798 N.am      2 UNK        -0.5000 
     65 C           0.7526  -12.1312  -47.7679 C.2       1 UNK         0.5000 
     66 O          -0.2853  -12.7667  -47.5783 O.2       1 UNK        -0.5000 
     67 C           2.3435  -24.5692  -47.3558 C.2       11 UNK         0.5000 
     68 O           2.5307  -25.4110  -48.2348 O.2       11 UNK        -0.5000 
     69 N           1.6529  -24.7996  -46.2276 N.am      12 UNK        -0.5000 
     70 CA          0.8082  -25.9596  -45.9160 C.3       12 UNK         0.1400 
     71 CB          1.6302  -27.2635  -45.8469 C.3       12 UNK        -0.1800 
     72 C          -0.4048  -26.0371  -46.8701 C.2       12 UNK         0.5000 
     73 O          -0.7504  -27.1102  -47.3685 O.2       12 UNK        -0.5000 
     74 N          -1.0009  -24.8677  -47.1303 N.am      13 UNK        -0.5000 
     75 CA         -2.1206  -24.6619  -48.0437 C.3       13 UNK         0.1400 
     76 CB         -2.0752  -23.2051  -48.5166 C.3       13 UNK        -0.1800 
     77 C          -3.4800  -24.9747  -47.3942 C.2       13 UNK         0.5000 
     78 O          -3.5809  -25.0530  -46.1671 O.2       13 UNK        -0.5000 
     79 N          -4.5099  -25.1186  -48.2382 N.am      14 UNK        -0.5000 
     80 CA         -5.8913  -25.3763  -47.8258 C.3       14 UNK         0.1400 
     81 CB         -6.5439  -26.3125  -48.8553 C.3       14 UNK        -0.1800 
     82 C          -6.7180  -24.0844  -47.6636 C.2       14 UNK         0.5000 
     83 O          -7.8237  -24.1467  -47.1237 O.2       14 UNK        -0.5000 
     84 N          -6.1869  -22.9460  -48.1237 N.am      15 UNK        -0.5000 
     85 CA         -6.7990  -21.6237  -48.0390 C.3       15 UNK         0.1400 
     86 CB         -7.5413  -21.3259  -49.3495 C.3       15 UNK        -0.1800 
     87 C          -5.7110  -20.5743  -47.7753 C.2       15 UNK         0.5000 
     88 O          -4.5280  -20.8512  -47.9900 O.2       15 UNK        -0.5000 
     89 N          -6.1364  -19.3890  -47.3180 N.am      16 UNK        -0.5000 
     90 CA         -5.3088  -18.2374  -46.9457 C.3       16 UNK         0.1400 
     91 CB         -6.1701  -17.2705  -46.1130 C.3       16 UNK        -0.1800 
     92 C          -4.6345  -17.5464  -48.1545 C.2       16 UNK         0.5000 
     93 O          -4.9362  -16.3875  -48.4463 O.2       16 UNK        -0.5000 
     94 N          -3.7405  -18.2848  -48.8259 N.am      17 UNK        -0.5000 
     95 CA         -3.0156  -17.9483  -50.0563 C.3       17 UNK         0.1400 
     96 CB         -2.1839  -16.6579  -49.8858 C.3       17 UNK        -0.1800 
     97 C          -3.9327  -17.9206  -51.3015 C.2       17 UNK         0.5000 
     98 O          -5.1257  -18.2151  -51.2033 O.2       17 UNK        -0.5000 
     99 N          -3.3409  -17.5964  -52.4613 N.am      18 UNK        -0.5000 
    100 CA        -3.9596  -17.5698  -53.7932 C.3       18 UNK         0.1400 
    101 CB        -5.0355  -16.4633  -53.8820 C.3       18 UNK        -0.1800 
    102 C         -4.4382  -18.9697  -54.2433 C.2       18 UNK         0.5000 
    103 O         -3.6383  -19.9074  -54.2252 O.2       18 UNK        -0.5000 
    104 N         -5.7009  -19.0960  -54.6732 N.am      19 UNK        -0.5000 
    105 CA        -6.3196  -20.3618  -55.0734 C.3       19 UNK         0.1400 
    106 CB        -7.6927  -20.0752  -55.6998 C.3       19 UNK        -0.1800 
    107 C         -6.4552  -21.3277  -53.8808 C.2       19 UNK         0.5000 
    108 O         -6.7860  -20.8851  -52.7807 O.2       19 UNK        -0.5000 
    109 N         -6.1964  -22.6202  -54.1289 N.am      20 UNK        -0.5000 
    110 CA        -6.0906  -23.7032  -53.1364 C.3       20 UNK         0.1400 
    111 CB        -7.4191  -23.9272  -52.3852 C.3       20 UNK        -0.1800 
    112 C         -4.8728  -23.5411  -52.1965 C.2       20 UNK         0.5000 
    113 O         -4.8697  -24.0477  -51.0713 O.2       20 UNK        -0.5000 
    114 N         -3.8414  -22.8606  -52.7053 N.am      21 UNK        -0.5000 
    115 CA        -2.5388  -22.6797  -52.0815 C.3       21 UNK         0.1400 
    116 CB        -2.5037  -21.3439  -51.3206 C.3       21 UNK        -0.1800 
    117 C         -1.4776  -22.7586  -53.1850 C.2       21 UNK         0.5000 
    118 O         -0.5853  -23.6035  -53.1126 O.2       21 UNK        -0.5000 
    119 N         -1.6495  -21.9298  -54.2204 N.am      22 UNK        -0.5000 
    120 CA        -0.9727  -22.0410  -55.5182 C.3       22 UNK         0.1400 
    121 C         -1.9131  -22.7167  -56.5549 C.2       22 UNK         0.5000 
    122 N         -1.3617  -23.2776  -57.6223 N.am      22 UNK        -0.7600 
    123 O         -3.1364  -22.7261  -56.4163 O.2       22 UNK        -0.5000 
    124 C124       -0.4887  -20.6605  -56.0317 C.3       23 UNK        -0.0398 
    125 S125        0.7842  -19.9284  -54.9468 S.3       23 UNK        -0.2404 
    126 C126       -0.2287  -18.7425  -54.0159 C.3       23 UNK        -0.0205 
    127 H127        5.8518  -12.5795  -46.3646 H         1 UNK         0.0600 
    128 H128        5.1454  -11.0174  -45.9384 H         1 UNK         0.0600 
    129 H129        5.5747  -11.3648  -47.6162 H         1 UNK         0.0600 
    130 H130        3.7805  -11.8112  -48.8625 H         1 UNK         0.3000 
    131 H131        1.9349  -13.8362  -48.2398 H         1 UNK         0.0600 
    132 H132        1.2565  -11.7656  -50.3667 H         1 UNK         0.0800 
    133 H133        2.6862  -12.7233  -50.5864 H         1 UNK         0.0800 
    134 H134        2.8216  -15.2630  -50.3643 H         1 UNK         0.0800 
    135 H135        2.5394  -14.9229  -52.0565 H         1 UNK         0.0800 
    136 H136        0.9209  -16.3441  -53.3666 H         1 UNK         0.1150 
    137 H137        0.0809  -20.2316  -51.7765 H         1 UNK         0.1150 
    138 H138        1.9368  -17.2652  -49.3036 H         1 UNK         0.1150 
    139 H139        0.8324  -19.2665  -48.3150 H         1 UNK         0.0800 
    140 H140        0.1375  -20.4926  -49.3397 H         1 UNK         0.0800 
    141 H141        0.9521  -22.2098  -47.9714 H         1 UNK         0.0800 
    142 H142        1.6529  -22.9673  -49.3758 H         1 UNK         0.0800 
    143 H143        3.8337  -23.2222  -48.0876 H         1 UNK         0.0600 
    144 H144        2.5341  -21.6189  -46.1085 H         1 UNK         0.3000 
    145 H145        4.5880  -22.6062  -43.3425 H         1 UNK         0.0600 
    146 H146        4.8570  -20.1238  -43.2472 H         1 UNK         0.0600 
    147 H147        4.4414  -20.0059  -44.9553 H         1 UNK         0.0600 
    148 H148        5.8973  -20.8535  -44.4612 H         1 UNK         0.0600 
    149 H149        2.3351  -20.8079  -43.8098 H         1 UNK         0.3000 
    150 H150       -0.1231  -23.1216  -42.6734 H         1 UNK         0.0600 
    151 H151        0.7938  -22.2889  -40.5147 H         1 UNK         0.0600 
    152 H152       -0.6051  -21.3424  -40.9998 H         1 UNK         0.0600 
    153 H153        1.0188  -20.6862  -41.2024 H         1 UNK         0.0600 
    154 H154       -0.3463  -20.3723  -43.3014 H         1 UNK         0.3000 
    155 H155       -0.4652  -20.6767  -46.8522 H         1 UNK         0.0600 
    156 H156       -2.7809  -21.2416  -45.9612 H         1 UNK         0.0600 
    157 H157       -2.5962  -19.6166  -46.6100 H         1 UNK         0.0600 
    158 H158       -2.6405  -19.8828  -44.8672 H         1 UNK         0.0600 
    159 H159       -0.7972  -18.3722  -45.3008 H         1 UNK         0.3000 
    160 H160        2.6426  -17.5219  -44.7403 H         1 UNK         0.0600 
    161 H161        0.3647  -16.3416  -46.4268 H         1 UNK         0.0600 
    162 H162        1.9984  -16.6781  -46.9702 H         1 UNK         0.0600 
    163 H163        1.7232  -15.4404  -45.7634 H         1 UNK         0.0600 
    164 H164       -0.0127  -16.5695  -43.9289 H         1 UNK         0.3000 
    165 H165       -0.0521  -18.3057  -40.8821 H         1 UNK         0.0600 
    166 H166       -0.1296  -16.2680  -39.6129 H         1 UNK         0.0600 
    167 H167        1.5153  -16.4209  -40.2095 H         1 UNK         0.0600 
    168 H168        0.3980  -15.2939  -40.9731 H         1 UNK         0.0600 
    169 H169       -1.5421  -16.0815  -42.0858 H         1 UNK         0.3000 
    170 H170       -3.8347  -18.2249  -43.7784 H         1 UNK         0.0600 
    171 H171       -4.3021  -16.5761  -41.2410 H         1 UNK         0.0600 
    172 H172       -5.5300  -17.0573  -42.4131 H         1 UNK         0.0600 
    173 H173       -4.7161  -18.2746  -41.4433 H         1 UNK         0.0600 
    174 H174       -3.8175  -15.4103  -43.3682 H         1 UNK         0.3000 
    175 H175       -2.3970  -14.6776  -46.4823 H         1 UNK         0.0600 
    176 H176       -3.8378  -13.5040  -44.0385 H         1 UNK         0.0600 
    177 H177       -3.6710  -12.7671  -45.6244 H         1 UNK         0.0600 
    178 H178       -4.6361  -14.2185  -45.4393 H         1 UNK         0.0600 
    179 H179       -0.7657  -13.4087  -45.7095 H         1 UNK         0.3000 
    180 H180        0.0576  -12.0135  -42.6558 H         1 UNK         0.0600 
    181 H181        2.4633  -12.6931  -43.0928 H         1 UNK         0.0600 
    182 H182        1.8733  -14.1512  -43.8825 H         1 UNK         0.0600 
    183 H183        1.5551  -13.8735  -42.1777 H         1 UNK         0.0600 
    184 H184        1.3644  -12.0321  -45.2275 H         1 UNK         0.3000 
    185 H185       -0.8968  -10.0386  -46.9570 H         1 UNK         0.0600 
    186 H186        0.7796   -8.2146  -47.1404 H         1 UNK         0.0600 
    187 H187       -0.0345   -8.1286  -45.5874 H         1 UNK         0.0600 
    188 H188        1.5959   -8.7833  -45.6830 H         1 UNK         0.0600 
    189 H189        1.8568  -10.4677  -47.4687 H         1 UNK         0.3000 
    190 H190        1.5139  -24.0052  -45.6147 H         1 UNK         0.3000 
    191 H191        0.4008  -25.7767  -44.9206 H         1 UNK         0.0600 
    192 H192        1.0211  -28.0849  -45.4683 H         1 UNK         0.0600 
    193 H193        2.4830  -27.1555  -45.1767 H         1 UNK         0.0600 
    194 H194        2.0066  -27.5640  -46.8248 H         1 UNK         0.0600 
    195 H195       -0.6952  -24.0546  -46.6029 H         1 UNK         0.3000 
    196 H196       -2.0004  -25.3146  -48.9112 H         1 UNK         0.0600 
    197 H197       -2.9478  -22.9620  -49.1209 H         1 UNK         0.0600 
    198 H198       -1.1864  -23.0190  -49.1184 H         1 UNK         0.0600 
    199 H199       -2.0635  -22.5109  -47.6797 H         1 UNK         0.0600 
    200 H200       -4.3720  -24.9770  -49.2340 H         1 UNK         0.3000 
    201 H201       -5.8991  -25.8873  -46.8607 H         1 UNK         0.0600 
    202 H202       -6.0053  -27.2576  -48.9245 H         1 UNK         0.0600 
    203 H203       -6.5629  -25.8651  -49.8485 H         1 UNK         0.0600 
    204 H204       -7.5732  -26.5452  -48.5794 H         1 UNK         0.0600 
    205 H205       -5.2532  -22.9557  -48.5121 H         1 UNK         0.3000 
    206 H206       -7.5039  -21.5918  -47.2055 H         1 UNK         0.0600 
    207 H207       -8.3202  -22.0641  -49.5399 H         1 UNK         0.0600 
    208 H208       -8.0199  -20.3465  -49.3233 H         1 UNK         0.0600 
    209 H209       -6.8550  -21.3326  -50.1965 H         1 UNK         0.0600 
    210 H210       -7.1314  -19.2524  -47.2154 H         1 UNK         0.3000 
    211 H211       -4.5154  -18.5876  -46.2873 H         1 UNK         0.0600 
    212 H212       -7.0204  -16.8941  -46.6830 H         1 UNK         0.0600 
    213 H213       -5.5872  -16.4100  -45.7857 H         1 UNK         0.0600 
    214 H214       -6.5540  -17.7563  -45.2158 H         1 UNK         0.0600 
    215 H215       -3.6850  -19.2614  -48.5481 H         1 UNK         0.3000 
    216 H216       -2.3103  -18.7650  -50.2075 H         1 UNK         0.0600 
    217 H217       -1.4788  -16.5299  -50.7068 H         1 UNK         0.0600 
    218 H218       -1.5971  -16.6849  -48.9670 H         1 UNK         0.0600 
    219 H219       -2.8107  -15.7666  -49.8573 H         1 UNK         0.0600 
    220 H220       -2.3535  -17.3877  -52.4437 H         1 UNK         0.3000 
    221 H221       -3.1629  -17.2975  -54.4866 H         1 UNK         0.0600 
    222 H222       -5.8952  -16.6693  -53.2436 H         1 UNK         0.0600 
    223 H223       -4.6260  -15.4994  -53.5796 H         1 UNK         0.0600 
    224 H224       -5.3987  -16.3469  -54.9038 H         1 UNK         0.0600 
    225 H225       -6.3100  -18.2934  -54.6213 H         1 UNK         0.3000 
    226 H226       -5.6817  -20.8227  -55.8310 H         1 UNK         0.0600 
    227 H227       -7.6022  -19.4255  -56.5705 H         1 UNK         0.0600 
    228 H228       -8.1705  -20.9979  -56.0314 H         1 UNK         0.0600 
    229 H229       -8.3661  -19.5942  -54.9890 H         1 UNK         0.0600 
    230 H230       -5.9465  -22.8809  -55.0736 H         1 UNK         0.3000 
    231 H231       -5.8945  -24.6091  -53.7114 H         1 UNK         0.0600 
    232 H232       -7.3883  -24.8511  -51.8085 H         1 UNK         0.0600 
    233 H233       -8.2560  -24.0082  -53.0786 H         1 UNK         0.0600 
    234 H234       -7.6367  -23.1184  -51.6896 H         1 UNK         0.0600 
    235 H235       -3.9289  -22.5001  -53.6457 H         1 UNK         0.3000 
    236 H236       -2.3541  -23.4986  -51.3840 H         1 UNK         0.0600 
    237 H237       -2.4846  -20.4894  -51.9938 H         1 UNK         0.0600 
    238 H238       -3.3739  -21.2300  -50.6735 H         1 UNK         0.0600 
    239 H239       -1.6196  -21.2831  -50.6902 H         1 UNK         0.0600 
    240 H240       -2.4125  -21.2557  -54.1966 H         1 UNK         0.3000 
    241 H241       -0.0976  -22.6857  -55.4157 H         1 UNK         0.0600 
    242 H242       -1.9597  -23.7143  -58.3067 H         1 UNK         0.3800 
    243 H243       -0.3628  -23.2891  -57.7618 H         1 UNK         0.3800 
    244 H244       -1.3282  -19.9716  -56.1426 H         1 UNK         0.0800 
    245 H245       -0.0460  -20.7572  -57.0244 H         1 UNK         0.0800 
    246 H246       -0.4338  -17.8734  -54.6427 H         1 UNK         0.0800 
    247 H247       -1.1923  -19.1922  -53.7842 H         1 UNK         0.0800 
@<TRIPOS>BOND
     1    1    2 1    
     2    1  127 1    
     3    1  128 1    
     4    1  129 1    
     5    2    3 2    
     6    2    4 am   BACKBONE|DICT|INTERRES
     7    4    5 1    
     8    4  130 1    
     9    5    6 1    
    10    5   65 1    
    11    5  131 1    
    12    6    7 1    
    13    6  132 1    
    14    6  133 1    
    15    7    8 1    
    16    8    9 1    
    17    8  134 1    
    18    8  135 1    
    19    9   10 ar   
    20    9   14 ar   
    21   10   11 ar   
    22   10  136 1    
    23   11   12 ar   
    24   11  126 1    
    25   12   13 ar   
    26   12  137 1    
    27   13   14 ar   
    28   13   15 1    
    29   14  138 1    
    30   15   16 1    
    31   15  139 1    
    32   15  140 1    
    33   16   17 1    
    34   17   18 1    
    35   17  141 1    
    36   17  142 1    
    37   18   19 1    
    38   18   67 1    
    39   18  143 1    
    40   19   20 am   BACKBONE|DICT|INTERRES
    41   19  144 1    
    42   20   21 2    
    43   20   22 1    
    44   22   23 1    
    45   22   24 1    
    46   22  145 1    
    47   23  146 1    
    48   23  147 1    
    49   23  148 1    
    50   24   25 am   BACKBONE|DICT|INTERRES
    51   24  149 1    
    52   25   26 2    
    53   25   27 1    
    54   27   28 1    
    55   27   29 1    
    56   27  150 1    
    57   28  151 1    
    58   28  152 1    
    59   28  153 1    
    60   29   30 am   BACKBONE|DICT|INTERRES
    61   29  154 1    
    62   30   31 2    
    63   30   32 1    
    64   32   33 1    
    65   32   34 1    
    66   32  155 1    
    67   33  156 1    
    68   33  157 1    
    69   33  158 1    
    70   34   35 am   BACKBONE|DICT|INTERRES
    71   34  159 1    
    72   35   36 2    
    73   35   37 1    
    74   37   38 1    
    75   37   39 1    
    76   37  160 1    
    77   38  161 1    
    78   38  162 1    
    79   38  163 1    
    80   39   40 am   BACKBONE|DICT|INTERRES
    81   39  164 1    
    82   40   41 2    
    83   40   42 1    
    84   42   43 1    
    85   42   44 1    
    86   42  165 1    
    87   43  166 1    
    88   43  167 1    
    89   43  168 1    
    90   44   45 am   BACKBONE|DICT|INTERRES
    91   44  169 1    
    92   45   46 2    
    93   45   47 1    
    94   47   48 1    
    95   47   49 1    
    96   47  170 1    
    97   48  171 1    
    98   48  172 1    
    99   48  173 1    
   100   49   50 am   BACKBONE|DICT|INTERRES
   101   49  174 1    
   102   50   51 2    
   103   50   52 1    
   104   52   53 1    
   105   52   54 1    
   106   52  175 1    
   107   53  176 1    
   108   53  177 1    
   109   53  178 1    
   110   54   55 am   BACKBONE|DICT|INTERRES
   111   54  179 1    
   112   55   56 2    
   113   55   57 1    
   114   57   58 1    
   115   57   59 1    
   116   57  180 1    
   117   58  181 1    
   118   58  182 1    
   119   58  183 1    
   120   59   60 am   BACKBONE|DICT|INTERRES
   121   59  184 1    
   122   60   61 2    
   123   60   62 1    
   124   62   63 1    
   125   62   64 1    
   126   62  185 1    
   127   63  186 1    
   128   63  187 1    
   129   63  188 1    
   130   64   65 am   BACKBONE|DICT|INTERRES
   131   64  189 1    
   132   65   66 2    
   133   67   68 2    
   134   67   69 am   BACKBONE|DICT|INTERRES
   135   69   70 1    
   136   69  190 1    
   137   70   71 1    
   138   70   72 1    
   139   70  191 1    
   140   71  192 1    
   141   71  193 1    
   142   71  194 1    
   143   72   73 2    
   144   72   74 am   BACKBONE|DICT|INTERRES
   145   74   75 1    
   146   74  195 1    
   147   75   76 1    
   148   75   77 1    
   149   75  196 1    
   150   76  197 1    
   151   76  198 1    
   152   76  199 1    
   153   77   78 2    
   154   77   79 am   BACKBONE|DICT|INTERRES
   155   79   80 1    
   156   79  200 1    
   157   80   81 1    
   158   80   82 1    
   159   80  201 1    
   160   81  202 1    
   161   81  203 1    
   162   81  204 1    
   163   82   83 2    
   164   82   84 am   BACKBONE|DICT|INTERRES
   165   84   85 1    
   166   84  205 1    
   167   85   86 1    
   168   85   87 1    
   169   85  206 1    
   170   86  207 1    
   171   86  208 1    
   172   86  209 1    
   173   87   88 2    
   174   87   89 am   BACKBONE|DICT|INTERRES
   175   89   90 1    
   176   89  210 1    
   177   90   91 1    
   178   90   92 1    
   179   90  211 1    
   180   91  212 1    
   181   91  213 1    
   182   91  214 1    
   183   92   93 2    
   184   92   94 am   BACKBONE|DICT|INTERRES
   185   94   95 1    
   186   94  215 1    
   187   95   96 1    
   188   95   97 1    
   189   95  216 1    
   190   96  217 1    
   191   96  218 1    
   192   96  219 1    
   193   97   98 2    
   194   97   99 am   BACKBONE|DICT|INTERRES
   195   99  100 1    
   196   99  220 1    
   197  100  101 1    
   198  100  102 1    
   199  100  221 1    
   200  101  222 1    
   201  101  223 1    
   202  101  224 1    
   203  102  103 2    
   204  102  104 am   BACKBONE|DICT|INTERRES
   205  104  105 1    
   206  104  225 1    
   207  105  106 1    
   208  105  107 1    
   209  105  226 1    
   210  106  227 1    
   211  106  228 1    
   212  106  229 1    
   213  107  108 2    
   214  107  109 am   BACKBONE|DICT|INTERRES
   215  109  110 1    
   216  109  230 1    
   217  110  111 1    
   218  110  112 1    
   219  110  231 1    
   220  111  232 1    
   221  111  233 1    
   222  111  234 1    
   223  112  113 2    
   224  112  114 am   BACKBONE|DICT|INTERRES
   225  114  115 1    
   226  114  235 1    
   227  115  116 1    
   228  115  117 1    
   229  115  236 1    
   230  116  237 1    
   231  116  238 1    
   232  116  239 1    
   233  117  118 2    
   234  117  119 am   BACKBONE|DICT|INTERRES
   235  119  120 1    
   236  119  240 1    
   237  120  121 1    
   238  120  124 1    
   239  120  241 1    
   240  121  122 am   BACKBONE|DICT|INTERRES
   241  121  123 2    
   242  122  242 1    
   243  122  243 1    
   244  124  125 1    
   245  124  244 1    
   246  124  245 1    
   247  125  126 1    
   248  126  246 1    
   249  126  247 1    
@<TRIPOS>SUBSTRUCTURE
     1 UNK         1 GROUP             0       ****    0 ROOT    
