@<TRIPOS>MOLECULE
3R540
247   249    1
SMALL
USER_CHARGES


@<TRIPOS>ATOM
      1 CA         -3.3953  -11.5587  -49.8023 C.3       0 UNK        -0.1800 
      2 C          -2.9824  -12.7369  -48.9323 C.2       0 UNK         0.5000 
      3 O          -3.5561  -12.9365  -47.8624 O.2       0 UNK        -0.5000 
      4 N          -1.9736  -13.4986  -49.3761 N.am      1 UNK        -0.5000 
      5 CA         -1.4091  -14.7184  -48.7732 C.3       1 UNK         0.1400 
      6 C6         -2.4436  -15.8643  -48.5720 C.3       23 UNK        -0.0398 
      7 S7         -3.2330  -16.5957  -50.0589 S.3       23 UNK        -0.2404 
      8 C8         -2.1265  -16.2501  -51.4761 C.3       23 UNK        -0.0205 
      9 C9         -0.7214  -16.8582  -51.4319 C.ar      23 UNK        -0.0193 
     10 C10         0.1560  -16.5516  -52.4762 C.ar      23 UNK        -0.1150 
     11 C11         1.4676  -17.0342  -52.4798 C.ar      23 UNK        -0.0193 
     12 C12         1.9181  -17.8074  -51.4075 C.ar      23 UNK        -0.1150 
     13 C13         1.0518  -18.1368  -50.3632 C.ar      23 UNK        -0.0193 
     14 C14        -0.2674  -17.6794  -50.3908 C.ar      23 UNK        -0.1150 
     15 C15         1.5520  -18.9553  -49.1861 C.3       23 UNK        -0.0205 
     16 S16         1.1655  -20.7242  -49.3588 S.3       23 UNK        -0.2404 
     17 C17        -0.5215  -20.8505  -48.6669 C.3       23 UNK        -0.0398 
     18 CA         -0.6355  -22.0709  -47.7202 C.3       11 UNK         0.1400 
     19 N           0.0572  -21.8753  -46.4442 N.am      11 UNK        -0.5000 
     20 C           0.4499  -22.8831  -45.6539 C.2       10 UNK         0.5000 
     21 O           0.2550  -24.0695  -45.9212 O.2       10 UNK        -0.5000 
     22 CA          1.1330  -22.5049  -44.3269 C.3       10 UNK         0.1400 
     23 CB          2.5631  -21.9977  -44.5664 C.3       10 UNK        -0.1800 
     24 N           0.3774  -21.5098  -43.5649 N.am      10 UNK        -0.5000 
     25 C          -0.8512  -21.7088  -43.0663 C.2       9 UNK         0.5000 
     26 O          -1.4805  -22.7591  -43.1928 O.2       9 UNK        -0.5000 
     27 CA         -1.5063  -20.5178  -42.3447 C.3       9 UNK         0.1400 
     28 CB         -0.9896  -20.3898  -40.9038 C.3       9 UNK        -0.1800 
     29 N          -1.2956  -19.2599  -43.0597 N.am      9 UNK        -0.5000 
     30 C          -1.8255  -18.9843  -44.2595 C.2       8 UNK         0.5000 
     31 O          -2.5781  -19.7403  -44.8673 O.2       8 UNK        -0.5000 
     32 CA         -1.3961  -17.6699  -44.9247 C.3       8 UNK         0.1400 
     33 CB         -2.2575  -16.5019  -44.4232 C.3       8 UNK        -0.1800 
     34 N           0.0296  -17.3928  -44.7382 N.am      8 UNK        -0.5000 
     35 C           0.9987  -18.1685  -45.2512 C.2       7 UNK         0.5000 
     36 O           0.7748  -19.1788  -45.9165 O.2       7 UNK        -0.5000 
     37 CA          2.4581  -17.8086  -44.9215 C.3       7 UNK         0.1400 
     38 CB          3.0284  -16.8466  -45.9683 C.3       7 UNK        -0.1800 
     39 N           2.6271  -17.2451  -43.5823 N.am      7 UNK        -0.5000 
     40 C           2.3457  -17.9109  -42.4531 C.2       6 UNK         0.5000 
     41 O           1.9407  -19.0750  -42.4345 O.2       6 UNK        -0.5000 
     42 CA          2.5104  -17.1523  -41.1239 C.3       6 UNK         0.1400 
     43 CB          3.8991  -17.4209  -40.5260 C.3       6 UNK        -0.1800 
     44 N           2.3021  -15.7041  -41.2033 N.am      6 UNK        -0.5000 
     45 C           1.1965  -15.0747  -41.6194 C.2       5 UNK         0.5000 
     46 O           0.2345  -15.6492  -42.1297 O.2       5 UNK        -0.5000 
     47 CA          1.1567  -13.5432  -41.4461 C.3       5 UNK         0.1400 
     48 CB          0.9068  -13.1512  -39.9779 C.3       5 UNK        -0.1800 
     49 N           2.3165  -12.8383  -42.0054 N.am      5 UNK        -0.5000 
     50 C           3.6069  -12.8881  -41.6363 C.2       4 UNK         0.5000 
     51 O           4.0156  -13.5264  -40.6643 O.2       4 UNK        -0.5000 
     52 CA          4.6064  -12.1135  -42.5282 C.3       4 UNK         0.1400 
     53 CB          6.0400  -12.6788  -42.4468 C.3       4 UNK        -0.1800 
     54 N           4.1663  -12.0075  -43.9270 N.am      4 UNK        -0.5000 
     55 C           3.9045  -13.0229  -44.7634 C.2       3 UNK         0.5000 
     56 O           4.0806  -14.2104  -44.4852 O.2       3 UNK        -0.5000 
     57 CA          3.2365  -12.6441  -46.0989 C.3       3 UNK         0.1400 
     58 CB          3.9435  -13.2975  -47.2972 C.3       3 UNK        -0.1800 
     59 N           1.8278  -13.0410  -46.0909 N.am      3 UNK        -0.5000 
     60 C           0.8885  -12.5486  -45.2739 C.2       2 UNK         0.5000 
     61 O           1.1020  -11.6209  -44.4903 O.2       2 UNK        -0.5000 
     62 CA         -0.5003  -13.2242  -45.3026 C.3       2 UNK         0.1400 
     63 CB         -1.5688  -12.4188  -44.5412 C.3       2 UNK        -0.1800 
     64 N          -1.0179  -13.5132  -46.6429 N.am      2 UNK        -0.5000 
     65 C          -0.6171  -14.4882  -47.4658 C.2       1 UNK         0.5000 
     66 O           0.3502  -15.2085  -47.2249 O.2       1 UNK        -0.5000 
     67 C          -2.0926  -22.5445  -47.5326 C.2       11 UNK         0.5000 
     68 O          -2.6080  -23.2154  -48.4268 O.2       11 UNK        -0.5000 
     69 N          -2.7343  -22.2433  -46.3929 N.am      12 UNK        -0.5000 
     70 CA         -4.0375  -22.8066  -46.0240 C.3       12 UNK         0.1400 
     71 CB         -4.6789  -22.0069  -44.8818 C.3       12 UNK        -0.1800 
     72 C          -3.9405  -24.2951  -45.6562 C.2       12 UNK         0.5000 
     73 O          -4.7836  -25.0750  -46.0972 O.2       12 UNK        -0.5000 
     74 N          -2.8947  -24.6786  -44.9088 N.am      13 UNK        -0.5000 
     75 CA         -2.5877  -26.0721  -44.5689 C.3       13 UNK         0.1400 
     76 CB         -1.4476  -26.1154  -43.5406 C.3       13 UNK        -0.1800 
     77 C          -2.2481  -26.9269  -45.8062 C.2       13 UNK         0.5000 
     78 O          -2.6160  -28.1008  -45.8563 O.2       13 UNK        -0.5000 
     79 N          -1.5994  -26.3067  -46.8013 N.am      14 UNK        -0.5000 
     80 CA         -1.3322  -26.8838  -48.1208 C.3       14 UNK         0.1400 
     81 CB         -0.2048  -26.0793  -48.7873 C.3       14 UNK        -0.1800 
     82 C          -2.5713  -26.9246  -49.0433 C.2       14 UNK         0.5000 
     83 O          -2.5015  -27.5466  -50.1037 O.2       14 UNK        -0.5000 
     84 N          -3.6607  -26.2452  -48.6483 N.am      15 UNK        -0.5000 
     85 CA         -4.9167  -26.0402  -49.3828 C.3       15 UNK         0.1400 
     86 CB         -5.6512  -27.3768  -49.6134 C.3       15 UNK        -0.1800 
     87 C          -4.7493  -25.2148  -50.6780 C.2       15 UNK         0.5000 
     88 O          -5.5861  -25.3011  -51.5777 O.2       15 UNK        -0.5000 
     89 N          -3.6807  -24.4126  -50.7417 N.am      16 UNK        -0.5000 
     90 CA         -3.3404  -23.5428  -51.8620 C.3       16 UNK         0.1400 
     91 CB         -1.8123  -23.4168  -51.9434 C.3       16 UNK        -0.1800 
     92 C          -4.0011  -22.1641  -51.7115 C.2       16 UNK         0.5000 
     93 O          -4.5194  -21.6299  -52.6933 O.2       16 UNK        -0.5000 
     94 N          -4.0297  -21.6330  -50.4778 N.am      17 UNK        -0.5000 
     95 CA         -4.6126  -20.3250  -50.1498 C.3       17 UNK         0.1400 
     96 CB         -4.2951  -19.9496  -48.6951 C.3       17 UNK        -0.1800 
     97 C          -6.1306  -20.2511  -50.3978 C.2       17 UNK         0.5000 
     98 O          -6.6452  -19.1691  -50.6758 O.2       17 UNK        -0.5000 
     99 N          -6.8076  -21.4077  -50.3602 N.am      18 UNK        -0.5000 
    100 CA        -8.2197  -21.5765  -50.7124 C.3       18 UNK         0.1400 
    101 CB        -8.6406  -23.0173  -50.3847 C.3       18 UNK        -0.1800 
    102 C         -8.5296  -21.2454  -52.1882 C.2       18 UNK         0.5000 
    103 O         -9.6495  -20.8342  -52.4926 O.2       18 UNK        -0.5000 
    104 N         -7.5301  -21.4069  -53.0656 N.am      19 UNK        -0.5000 
    105 CA        -7.5740  -21.0402  -54.4819 C.3       19 UNK         0.1400 
    106 CB        -6.9912  -22.2095  -55.2946 C.3       19 UNK        -0.1800 
    107 C         -6.7883  -19.7421  -54.7643 C.2       19 UNK         0.5000 
    108 O         -6.6920  -19.3413  -55.9248 O.2       19 UNK        -0.5000 
    109 N         -6.2135  -19.1315  -53.7146 N.am      20 UNK        -0.5000 
    110 CA        -5.2659  -18.0104  -53.7315 C.3       20 UNK         0.1400 
    111 CB        -5.9567  -16.7131  -54.1985 C.3       20 UNK        -0.1800 
    112 C         -3.9690  -18.3224  -54.5136 C.2       20 UNK         0.5000 
    113 O         -3.3593  -17.4165  -55.0849 O.2       20 UNK        -0.5000 
    114 N         -3.5755  -19.6013  -54.5286 N.am      21 UNK        -0.5000 
    115 CA        -2.3726  -20.1067  -55.1787 C.3       21 UNK         0.1400 
    116 CB        -2.6657  -21.5223  -55.7027 C.3       21 UNK        -0.1800 
    117 C         -1.1965  -20.1298  -54.1902 C.2       21 UNK         0.5000 
    118 O         -1.4095  -20.1557  -52.9760 O.2       21 UNK        -0.5000 
    119 N          0.0230  -20.1586  -54.7382 N.am      22 UNK        -0.5000 
    120 CA         1.2769  -20.2083  -53.9666 C.3       22 UNK         0.1400 
    121 C          1.7570  -21.6479  -53.6182 C.2       22 UNK         0.5000 
    122 N          1.0935  -22.7030  -54.0758 N.am      22 UNK        -0.7600 
    123 O          2.7546  -21.8133  -52.9221 O.2       22 UNK        -0.5000 
    124 C124        2.4163  -19.3922  -54.6385 C.3       23 UNK        -0.0398 
    125 S125        1.9416  -17.6944  -55.1258 S.3       23 UNK        -0.2404 
    126 C126        2.3904  -16.7276  -53.6486 C.3       23 UNK        -0.0205 
    127 H127       -2.7984  -11.4967  -50.7126 H         1 UNK         0.0600 
    128 H128       -3.2752  -10.6256  -49.2520 H         1 UNK         0.0600 
    129 H129       -4.4425  -11.6546  -50.0888 H         1 UNK         0.0600 
    130 H130       -1.5306  -13.2263  -50.2422 H         1 UNK         0.3000 
    131 H131       -0.6528  -15.0537  -49.4795 H         1 UNK         0.0600 
    132 H132       -1.9740  -16.6966  -48.0473 H         1 UNK         0.0800 
    133 H133       -3.2437  -15.5370  -47.9070 H         1 UNK         0.0800 
    134 H134       -2.0497  -15.1711  -51.6093 H         1 UNK         0.0800 
    135 H135       -2.6201  -16.6243  -52.3730 H         1 UNK         0.0800 
    136 H136       -0.1851  -15.9392  -53.2993 H         1 UNK         0.1150 
    137 H137        2.9357  -18.1717  -51.3954 H         1 UNK         0.1150 
    138 H138       -0.9226  -17.9584  -49.5824 H         1 UNK         0.1150 
    139 H139        1.1278  -18.5541  -48.2692 H         1 UNK         0.0800 
    140 H140        2.6329  -18.8455  -49.0889 H         1 UNK         0.0800 
    141 H141       -1.2038  -20.9378  -49.5146 H         1 UNK         0.0800 
    142 H142       -0.7925  -19.9337  -48.1418 H         1 UNK         0.0800 
    143 H143       -0.1378  -22.9008  -48.2256 H         1 UNK         0.0600 
    144 H144        0.2727  -20.9153  -46.1796 H         1 UNK         0.3000 
    145 H145        1.1942  -23.4089  -43.7174 H         1 UNK         0.0600 
    146 H146        3.1640  -22.7548  -45.0716 H         1 UNK         0.0600 
    147 H147        3.0607  -21.7595  -43.6261 H         1 UNK         0.0600 
    148 H148        2.5766  -21.1028  -45.1880 H         1 UNK         0.0600 
    149 H149        0.8299  -20.6179  -43.3989 H         1 UNK         0.3000 
    150 H150       -2.5813  -20.7051  -42.3013 H         1 UNK         0.0600 
    151 H151        0.0829  -20.1972  -40.8712 H         1 UNK         0.0600 
    152 H152       -1.1739  -21.3069  -40.3429 H         1 UNK         0.0600 
    153 H153       -1.4919  -19.5794  -40.3754 H         1 UNK         0.0600 
    154 H154       -0.6477  -18.6011  -42.6520 H         1 UNK         0.3000 
    155 H155       -1.5752  -17.7815  -45.9954 H         1 UNK         0.0600 
    156 H156       -2.1222  -15.6181  -45.0416 H         1 UNK         0.0600 
    157 H157       -2.0282  -16.2384  -43.3909 H         1 UNK         0.0600 
    158 H158       -3.3182  -16.7532  -44.4671 H         1 UNK         0.0600 
    159 H159        0.2780  -16.6249  -44.1278 H         1 UNK         0.3000 
    160 H160        3.0396  -18.7313  -44.9660 H         1 UNK         0.0600 
    161 H161        2.5268  -15.8812  -45.9273 H         1 UNK         0.0600 
    162 H162        2.9036  -17.2390  -46.9779 H         1 UNK         0.0600 
    163 H163        4.0941  -16.6791  -45.8126 H         1 UNK         0.0600 
    164 H164        2.9634  -16.2930  -43.5231 H         1 UNK         0.3000 
    165 H165        1.7606  -17.5480  -40.4360 H         1 UNK         0.0600 
    166 H166        4.0843  -18.4915  -40.4280 H         1 UNK         0.0600 
    167 H167        4.6909  -17.0048  -41.1506 H         1 UNK         0.0600 
    168 H168        3.9920  -16.9835  -39.5318 H         1 UNK         0.0600 
    169 H169        3.0498  -15.1164  -40.8427 H         1 UNK         0.3000 
    170 H170        0.2994  -13.1915  -42.0201 H         1 UNK         0.0600 
    171 H171        0.8025  -12.0714  -39.8718 H         1 UNK         0.0600 
    172 H172        1.7144  -13.4758  -39.3215 H         1 UNK         0.0600 
    173 H173       -0.0135  -13.6043  -39.6074 H         1 UNK         0.0600 
    174 H174        2.1038  -12.2887  -42.8319 H         1 UNK         0.3000 
    175 H175        4.6310  -11.0956  -42.1370 H         1 UNK         0.0600 
    176 H176        6.0818  -13.7252  -42.7505 H         1 UNK         0.0600 
    177 H177        6.4269  -12.6196  -41.4288 H         1 UNK         0.0600 
    178 H178        6.7223  -12.1168  -43.0843 H         1 UNK         0.0600 
    179 H179        3.9402  -11.0716  -44.2356 H         1 UNK         0.3000 
    180 H180        3.2856  -11.5611  -46.2292 H         1 UNK         0.0600 
    181 H181        3.9030  -14.3856  -47.2526 H         1 UNK         0.0600 
    182 H182        4.9951  -13.0105  -47.3312 H         1 UNK         0.0600 
    183 H183        3.4905  -12.9860  -48.2385 H         1 UNK         0.0600 
    184 H184        1.5726  -13.8433  -46.6591 H         1 UNK         0.3000 
    185 H185       -0.3695  -14.1717  -44.7776 H         1 UNK         0.0600 
    186 H186       -1.2724  -12.2315  -43.5092 H         1 UNK         0.0600 
    187 H187       -1.7495  -11.4517  -45.0119 H         1 UNK         0.0600 
    188 H188       -2.5166  -12.9566  -44.5079 H         1 UNK         0.0600 
    189 H189       -1.8455  -12.9972  -46.9242 H         1 UNK         0.3000 
    190 H190       -2.3047  -21.6163  -45.7220 H         1 UNK         0.3000 
    191 H191       -4.7007  -22.7339  -46.8881 H         1 UNK         0.0600 
    192 H192       -4.8859  -20.9821  -45.1893 H         1 UNK         0.0600 
    193 H193       -5.6292  -22.4488  -44.5797 H         1 UNK         0.0600 
    194 H194       -4.0377  -21.9740  -44.0010 H         1 UNK         0.0600 
    195 H195       -2.2680  -23.9718  -44.5348 H         1 UNK         0.3000 
    196 H196       -3.4769  -26.5042  -44.1053 H         1 UNK         0.0600 
    197 H197       -1.2201  -27.1425  -43.2526 H         1 UNK         0.0600 
    198 H198       -1.7160  -25.5749  -42.6327 H         1 UNK         0.0600 
    199 H199       -0.5316  -25.6738  -43.9328 H         1 UNK         0.0600 
    200 H200       -1.2585  -25.3661  -46.6362 H         1 UNK         0.3000 
    201 H201       -0.9866  -27.9107  -47.9859 H         1 UNK         0.0600 
    202 H202        0.1071  -26.5455  -49.7227 H         1 UNK         0.0600 
    203 H203        0.6744  -26.0182  -48.1456 H         1 UNK         0.0600 
    204 H204       -0.5229  -25.0639  -49.0218 H         1 UNK         0.0600 
    205 H205       -3.6229  -25.7837  -47.7480 H         1 UNK         0.3000 
    206 H206       -5.5461  -25.4342  -48.7300 H         1 UNK         0.0600 
    207 H207       -5.7578  -27.9328  -48.6820 H         1 UNK         0.0600 
    208 H208       -6.6547  -27.2088  -50.0059 H         1 UNK         0.0600 
    209 H209       -5.1254  -28.0120  -50.3265 H         1 UNK         0.0600 
    210 H210       -3.0970  -24.3308  -49.9151 H         1 UNK         0.3000 
    211 H211       -3.6944  -23.9907  -52.7931 H         1 UNK         0.0600 
    212 H212       -1.3399  -24.3951  -52.0341 H         1 UNK         0.0600 
    213 H213       -1.5183  -22.8354  -52.8159 H         1 UNK         0.0600 
    214 H214       -1.3944  -22.9247  -51.0645 H         1 UNK         0.0600 
    215 H215       -3.6039  -22.1562  -49.7202 H         1 UNK         0.3000 
    216 H216       -4.1409  -19.5849  -50.8000 H         1 UNK         0.0600 
    217 H217       -4.7107  -20.6699  -47.9922 H         1 UNK         0.0600 
    218 H218       -4.7153  -18.9745  -48.4448 H         1 UNK         0.0600 
    219 H219       -3.2228  -19.8821  -48.5245 H         1 UNK         0.0600 
    220 H220       -6.2959  -22.2474  -50.1350 H         1 UNK         0.3000 
    221 H221       -8.8046  -20.8951  -50.0913 H         1 UNK         0.0600 
    222 H222       -8.0682  -23.7449  -50.9621 H         1 UNK         0.0600 
    223 H223       -8.4979  -23.2403  -49.3272 H         1 UNK         0.0600 
    224 H224       -9.6960  -23.1769  -50.6097 H         1 UNK         0.0600 
    225 H225       -6.6309  -21.7328  -52.7298 H         1 UNK         0.3000 
    226 H226       -8.6037  -20.8762  -54.8052 H         1 UNK         0.0600 
    227 H227       -7.5435  -23.1311  -55.1102 H         1 UNK         0.0600 
    228 H228       -7.0433  -22.0101  -56.3656 H         1 UNK         0.0600 
    229 H229       -5.9447  -22.3904  -55.0446 H         1 UNK         0.0600 
    230 H230       -6.4005  -19.5133  -52.7967 H         1 UNK         0.3000 
    231 H231       -4.9596  -17.8616  -52.6951 H         1 UNK         0.0600 
    232 H232       -6.2343  -16.7580  -55.2518 H         1 UNK         0.0600 
    233 H233       -5.2994  -15.8525  -54.0697 H         1 UNK         0.0600 
    234 H234       -6.8599  -16.5185  -53.6202 H         1 UNK         0.0600 
    235 H235       -4.0735  -20.2723  -53.9503 H         1 UNK         0.3000 
    236 H236       -2.1114  -19.4671  -56.0245 H         1 UNK         0.0600 
    237 H237       -2.9039  -22.2123  -54.8926 H         1 UNK         0.0600 
    238 H238       -3.5093  -21.5178  -56.3933 H         1 UNK         0.0600 
    239 H239       -1.8091  -21.9292  -56.2409 H         1 UNK         0.0600 
    240 H240        0.1211  -20.1370  -55.7426 H         1 UNK         0.3000 
    241 H241        1.0827  -19.7514  -52.9980 H         1 UNK         0.0600 
    242 H242        0.2801  -22.5854  -54.6562 H         1 UNK         0.3800 
    243 H243        1.4178  -23.6284  -53.8442 H         1 UNK         0.3800 
    244 H244        3.2846  -19.3368  -53.9798 H         1 UNK         0.0800 
    245 H245        2.7576  -19.9044  -55.5395 H         1 UNK         0.0800 
    246 H246        3.4327  -16.9168  -53.3871 H         1 UNK         0.0800 
    247 H247        2.3240  -15.6655  -53.8884 H         1 UNK         0.0800 
@<TRIPOS>BOND
     1    1    2 1    
     2    1  127 1    
     3    1  128 1    
     4    1  129 1    
     5    2    3 2    
     6    2    4 am   BACKBONE|DICT|INTERRES
     7    4    5 1    
     8    4  130 1    
     9    5    6 1    
    10    5   65 1    
    11    5  131 1    
    12    6    7 1    
    13    6  132 1    
    14    6  133 1    
    15    7    8 1    
    16    8    9 1    
    17    8  134 1    
    18    8  135 1    
    19    9   10 ar   
    20    9   14 ar   
    21   10   11 ar   
    22   10  136 1    
    23   11   12 ar   
    24   11  126 1    
    25   12   13 ar   
    26   12  137 1    
    27   13   14 ar   
    28   13   15 1    
    29   14  138 1    
    30   15   16 1    
    31   15  139 1    
    32   15  140 1    
    33   16   17 1    
    34   17   18 1    
    35   17  141 1    
    36   17  142 1    
    37   18   19 1    
    38   18   67 1    
    39   18  143 1    
    40   19   20 am   BACKBONE|DICT|INTERRES
    41   19  144 1    
    42   20   21 2    
    43   20   22 1    
    44   22   23 1    
    45   22   24 1    
    46   22  145 1    
    47   23  146 1    
    48   23  147 1    
    49   23  148 1    
    50   24   25 am   BACKBONE|DICT|INTERRES
    51   24  149 1    
    52   25   26 2    
    53   25   27 1    
    54   27   28 1    
    55   27   29 1    
    56   27  150 1    
    57   28  151 1    
    58   28  152 1    
    59   28  153 1    
    60   29   30 am   BACKBONE|DICT|INTERRES
    61   29  154 1    
    62   30   31 2    
    63   30   32 1    
    64   32   33 1    
    65   32   34 1    
    66   32  155 1    
    67   33  156 1    
    68   33  157 1    
    69   33  158 1    
    70   34   35 am   BACKBONE|DICT|INTERRES
    71   34  159 1    
    72   35   36 2    
    73   35   37 1    
    74   37   38 1    
    75   37   39 1    
    76   37  160 1    
    77   38  161 1    
    78   38  162 1    
    79   38  163 1    
    80   39   40 am   BACKBONE|DICT|INTERRES
    81   39  164 1    
    82   40   41 2    
    83   40   42 1    
    84   42   43 1    
    85   42   44 1    
    86   42  165 1    
    87   43  166 1    
    88   43  167 1    
    89   43  168 1    
    90   44   45 am   BACKBONE|DICT|INTERRES
    91   44  169 1    
    92   45   46 2    
    93   45   47 1    
    94   47   48 1    
    95   47   49 1    
    96   47  170 1    
    97   48  171 1    
    98   48  172 1    
    99   48  173 1    
   100   49   50 am   BACKBONE|DICT|INTERRES
   101   49  174 1    
   102   50   51 2    
   103   50   52 1    
   104   52   53 1    
   105   52   54 1    
   106   52  175 1    
   107   53  176 1    
   108   53  177 1    
   109   53  178 1    
   110   54   55 am   BACKBONE|DICT|INTERRES
   111   54  179 1    
   112   55   56 2    
   113   55   57 1    
   114   57   58 1    
   115   57   59 1    
   116   57  180 1    
   117   58  181 1    
   118   58  182 1    
   119   58  183 1    
   120   59   60 am   BACKBONE|DICT|INTERRES
   121   59  184 1    
   122   60   61 2    
   123   60   62 1    
   124   62   63 1    
   125   62   64 1    
   126   62  185 1    
   127   63  186 1    
   128   63  187 1    
   129   63  188 1    
   130   64   65 am   BACKBONE|DICT|INTERRES
   131   64  189 1    
   132   65   66 2    
   133   67   68 2    
   134   67   69 am   BACKBONE|DICT|INTERRES
   135   69   70 1    
   136   69  190 1    
   137   70   71 1    
   138   70   72 1    
   139   70  191 1    
   140   71  192 1    
   141   71  193 1    
   142   71  194 1    
   143   72   73 2    
   144   72   74 am   BACKBONE|DICT|INTERRES
   145   74   75 1    
   146   74  195 1    
   147   75   76 1    
   148   75   77 1    
   149   75  196 1    
   150   76  197 1    
   151   76  198 1    
   152   76  199 1    
   153   77   78 2    
   154   77   79 am   BACKBONE|DICT|INTERRES
   155   79   80 1    
   156   79  200 1    
   157   80   81 1    
   158   80   82 1    
   159   80  201 1    
   160   81  202 1    
   161   81  203 1    
   162   81  204 1    
   163   82   83 2    
   164   82   84 am   BACKBONE|DICT|INTERRES
   165   84   85 1    
   166   84  205 1    
   167   85   86 1    
   168   85   87 1    
   169   85  206 1    
   170   86  207 1    
   171   86  208 1    
   172   86  209 1    
   173   87   88 2    
   174   87   89 am   BACKBONE|DICT|INTERRES
   175   89   90 1    
   176   89  210 1    
   177   90   91 1    
   178   90   92 1    
   179   90  211 1    
   180   91  212 1    
   181   91  213 1    
   182   91  214 1    
   183   92   93 2    
   184   92   94 am   BACKBONE|DICT|INTERRES
   185   94   95 1    
   186   94  215 1    
   187   95   96 1    
   188   95   97 1    
   189   95  216 1    
   190   96  217 1    
   191   96  218 1    
   192   96  219 1    
   193   97   98 2    
   194   97   99 am   BACKBONE|DICT|INTERRES
   195   99  100 1    
   196   99  220 1    
   197  100  101 1    
   198  100  102 1    
   199  100  221 1    
   200  101  222 1    
   201  101  223 1    
   202  101  224 1    
   203  102  103 2    
   204  102  104 am   BACKBONE|DICT|INTERRES
   205  104  105 1    
   206  104  225 1    
   207  105  106 1    
   208  105  107 1    
   209  105  226 1    
   210  106  227 1    
   211  106  228 1    
   212  106  229 1    
   213  107  108 2    
   214  107  109 am   BACKBONE|DICT|INTERRES
   215  109  110 1    
   216  109  230 1    
   217  110  111 1    
   218  110  112 1    
   219  110  231 1    
   220  111  232 1    
   221  111  233 1    
   222  111  234 1    
   223  112  113 2    
   224  112  114 am   BACKBONE|DICT|INTERRES
   225  114  115 1    
   226  114  235 1    
   227  115  116 1    
   228  115  117 1    
   229  115  236 1    
   230  116  237 1    
   231  116  238 1    
   232  116  239 1    
   233  117  118 2    
   234  117  119 am   BACKBONE|DICT|INTERRES
   235  119  120 1    
   236  119  240 1    
   237  120  121 1    
   238  120  124 1    
   239  120  241 1    
   240  121  122 am   BACKBONE|DICT|INTERRES
   241  121  123 2    
   242  122  242 1    
   243  122  243 1    
   244  124  125 1    
   245  124  244 1    
   246  124  245 1    
   247  125  126 1    
   248  126  246 1    
   249  126  247 1    
@<TRIPOS>SUBSTRUCTURE
     1 UNK         1 GROUP             0       ****    0 ROOT    
