@<TRIPOS>MOLECULE
3R540
247   249    1
SMALL
USER_CHARGES


@<TRIPOS>ATOM
      1 CA          1.0756  -10.9372  -50.7281 C.3       0 UNK        -0.1800 
      2 C           0.9530  -12.0022  -49.6475 C.2       0 UNK         0.5000 
      3 O           0.6400  -11.6751  -48.5037 O.2       0 UNK        -0.5000 
      4 N           1.2049  -13.2678  -50.0109 N.am      1 UNK        -0.5000 
      5 CA          1.1339  -14.4613  -49.1518 C.3       1 UNK         0.1400 
      6 C6         -0.2824  -14.7284  -48.5623 C.3       23 UNK        -0.0398 
      7 S7         -1.5358  -15.0653  -49.8486 S.3       23 UNK        -0.2404 
      8 C8         -1.8048  -16.8568  -49.6424 C.3       23 UNK        -0.0205 
      9 C9         -0.7078  -17.6782  -50.3022 C.ar      23 UNK        -0.0193 
     10 C10        -0.8911  -18.2023  -51.5856 C.ar      23 UNK        -0.1150 
     11 C11         0.1208  -18.9455  -52.1997 C.ar      23 UNK        -0.0193 
     12 C12         1.3272  -19.1521  -51.5267 C.ar      23 UNK        -0.1150 
     13 C13         1.5233  -18.6306  -50.2461 C.ar      23 UNK        -0.0193 
     14 C14         0.4957  -17.9117  -49.6319 C.ar      23 UNK        -0.1150 
     15 C15         2.8568  -18.8216  -49.5435 C.3       23 UNK        -0.0205 
     16 S16         2.9660  -20.4437  -48.7336 S.3       23 UNK        -0.2404 
     17 C17         1.9334  -20.1764  -47.2560 C.3       23 UNK        -0.0398 
     18 CA          0.9695  -21.3506  -46.9774 C.3       11 UNK         0.1400 
     19 N           0.6136  -21.4203  -45.5609 N.am      11 UNK        -0.5000 
     20 C           0.0506  -22.4827  -44.9733 C.2       10 UNK         0.5000 
     21 O          -0.2124  -23.5289  -45.5663 O.2       10 UNK        -0.5000 
     22 CA         -0.3083  -22.3375  -43.4840 C.3       10 UNK         0.1400 
     23 CB          0.9265  -22.5748  -42.6022 C.3       10 UNK        -0.1800 
     24 N          -0.8896  -21.0310  -43.1718 N.am      10 UNK        -0.5000 
     25 C          -2.0682  -20.5977  -43.6406 C.2       9 UNK         0.5000 
     26 O          -2.8052  -21.2732  -44.3594 O.2       9 UNK        -0.5000 
     27 CA         -2.4691  -19.1527  -43.2878 C.3       9 UNK         0.1400 
     28 CB         -2.9797  -19.0577  -41.8427 C.3       9 UNK        -0.1800 
     29 N          -1.3796  -18.1963  -43.4910 N.am      9 UNK        -0.5000 
     30 C          -0.8133  -17.9400  -44.6790 C.2       8 UNK         0.5000 
     31 O          -1.1579  -18.4675  -45.7335 O.2       8 UNK        -0.5000 
     32 CA          0.3637  -16.9562  -44.6939 C.3       8 UNK         0.1400 
     33 CB         -0.1616  -15.5132  -44.6981 C.3       8 UNK        -0.1800 
     34 N           1.2909  -17.1637  -43.5801 N.am      8 UNK        -0.5000 
     35 C           1.9698  -18.2996  -43.3601 C.2       7 UNK         0.5000 
     36 O           1.9178  -19.2839  -44.0969 O.2       7 UNK        -0.5000 
     37 CA          2.7928  -18.3748  -42.0628 C.3       7 UNK         0.1400 
     38 CB          4.0389  -17.4821  -42.1432 C.3       7 UNK        -0.1800 
     39 N           2.0021  -18.0094  -40.8876 N.am      7 UNK        -0.5000 
     40 C           0.9196  -18.6741  -40.4570 C.2       6 UNK         0.5000 
     41 O           0.4991  -19.7082  -40.9749 O.2       6 UNK        -0.5000 
     42 CA          0.1521  -18.0603  -39.2700 C.3       6 UNK         0.1400 
     43 CB          0.6741  -18.6277  -37.9418 C.3       6 UNK        -0.1800 
     44 N           0.2072  -16.5961  -39.2244 N.am      6 UNK        -0.5000 
     45 C          -0.2548  -15.7770  -40.1793 C.2       5 UNK         0.5000 
     46 O          -0.7785  -16.1820  -41.2209 O.2       5 UNK        -0.5000 
     47 CA         -0.0886  -14.2631  -39.9509 C.3       5 UNK         0.1400 
     48 CB          0.9487  -13.8916  -38.8697 C.3       5 UNK        -0.1800 
     49 N           0.2843  -13.6501  -41.2182 N.am      5 UNK        -0.5000 
     50 C          -0.0248  -12.4220  -41.6338 C.2       4 UNK         0.5000 
     51 O          -0.6332  -11.6015  -40.9437 O.2       4 UNK        -0.5000 
     52 CA          0.4299  -12.0629  -43.0660 C.3       4 UNK         0.1400 
     53 CB         -0.1076  -10.6977  -43.5316 C.3       4 UNK        -0.1800 
     54 N           1.8846  -12.0728  -43.2453 N.am      4 UNK        -0.5000 
     55 C           2.6946  -13.1399  -43.2465 C.2       3 UNK         0.5000 
     56 O           2.3262  -14.2941  -43.0133 O.2       3 UNK        -0.5000 
     57 CA          4.1698  -12.8692  -43.5924 C.3       3 UNK         0.1400 
     58 CB          5.1178  -13.4747  -42.5452 C.3       3 UNK        -0.1800 
     59 N           4.4996  -13.4070  -44.9119 N.am      3 UNK        -0.5000 
     60 C           4.0760  -12.8924  -46.0745 C.2       2 UNK         0.5000 
     61 O           3.4132  -11.8559  -46.1519 O.2       2 UNK        -0.5000 
     62 CA          4.4870  -13.6147  -47.3778 C.3       2 UNK         0.1400 
     63 CB          5.2288  -14.9558  -47.1648 C.3       2 UNK        -0.1800 
     64 N           3.3469  -13.7758  -48.2876 N.am      2 UNK        -0.5000 
     65 C           2.2434  -14.5086  -48.0718 C.2       1 UNK         0.5000 
     66 O           2.0987  -15.2331  -47.0883 O.2       1 UNK        -0.5000 
     67 C          -0.2803  -21.3492  -47.8869 C.2       11 UNK         0.5000 
     68 O          -0.2871  -22.0492  -48.8978 O.2       11 UNK        -0.5000 
     69 N          -1.3464  -20.6421  -47.4805 N.am      12 UNK        -0.5000 
     70 CA         -2.6576  -20.6691  -48.1326 C.3       12 UNK         0.1400 
     71 CB         -3.5864  -19.6208  -47.5010 C.3       12 UNK        -0.1800 
     72 C          -3.3152  -22.0585  -48.0728 C.2       12 UNK         0.5000 
     73 O          -3.8964  -22.4954  -49.0658 O.2       12 UNK        -0.5000 
     74 N          -3.2021  -22.7386  -46.9224 N.am      13 UNK        -0.5000 
     75 CA         -3.6765  -24.1093  -46.7274 C.3       13 UNK         0.1400 
     76 CB         -3.5835  -24.4966  -45.2448 C.3       13 UNK        -0.1800 
     77 C          -2.9340  -25.1215  -47.6199 C.2       13 UNK         0.5000 
     78 O          -3.5748  -25.9982  -48.2014 O.2       13 UNK        -0.5000 
     79 N          -1.6112  -24.9520  -47.7567 N.am      14 UNK        -0.5000 
     80 CA         -0.7741  -25.7117  -48.6869 C.3       14 UNK         0.1400 
     81 CB          0.7079  -25.4166  -48.4108 C.3       14 UNK        -0.1800 
     82 C          -1.1311  -25.4360  -50.1612 C.2       14 UNK         0.5000 
     83 O          -1.1736  -26.3716  -50.9615 O.2       14 UNK        -0.5000 
     84 N          -1.4379  -24.1729  -50.4867 N.am      15 UNK        -0.5000 
     85 CA         -1.8995  -23.6999  -51.7937 C.3       15 UNK         0.1400 
     86 CB         -1.6123  -22.1952  -51.9091 C.3       15 UNK        -0.1800 
     87 C          -3.3814  -24.0431  -52.0691 C.2       15 UNK         0.5000 
     88 O          -4.1790  -23.1570  -52.3923 O.2       15 UNK        -0.5000 
     89 N          -3.6954  -25.3407  -51.9658 N.am      16 UNK        -0.5000 
     90 CA         -4.9730  -25.9933  -52.2490 C.3       16 UNK         0.1400 
     91 CB         -5.3374  -25.8598  -53.7419 C.3       16 UNK        -0.1800 
     92 C          -6.1089  -25.5611  -51.3015 C.2       16 UNK         0.5000 
     93 O          -7.1795  -25.1654  -51.7621 O.2       16 UNK        -0.5000 
     94 N          -5.8668  -25.6859  -49.9883 N.am      17 UNK        -0.5000 
     95 CA         -6.8506  -25.5665  -48.9049 C.3       17 UNK         0.1400 
     96 CB         -7.8545  -26.7378  -48.9613 C.3       17 UNK        -0.1800 
     97 C          -7.5370  -24.1870  -48.8445 C.2       17 UNK         0.5000 
     98 O          -8.7653  -24.1051  -48.7914 O.2       17 UNK        -0.5000 
     99 N          -6.7155  -23.1287  -48.8578 N.am      18 UNK        -0.5000 
    100 CA        -7.0899  -21.7124  -48.7850 C.3       18 UNK         0.1400 
    101 CB        -7.9045  -21.3912  -47.5143 C.3       18 UNK        -0.1800 
    102 C         -7.7265  -21.1626  -50.0757 C.2       18 UNK         0.5000 
    103 O         -8.2900  -20.0673  -50.0525 O.2       18 UNK        -0.5000 
    104 N         -7.5780  -21.8881  -51.1940 N.am      19 UNK        -0.5000 
    105 CA        -7.9172  -21.4031  -52.5336 C.3       19 UNK         0.1400 
    106 CB        -8.0022  -22.5899  -53.5029 C.3       19 UNK        -0.1800 
    107 C         -6.9059  -20.3647  -53.0574 C.2       19 UNK         0.5000 
    108 O         -7.2599  -19.5832  -53.9407 O.2       19 UNK        -0.5000 
    109 N         -5.6786  -20.3828  -52.5082 N.am      20 UNK        -0.5000 
    110 CA        -4.5296  -19.5484  -52.8724 C.3       20 UNK         0.1400 
    111 CB        -4.7996  -18.0611  -52.5589 C.3       20 UNK        -0.1800 
    112 C         -4.0982  -19.8048  -54.3289 C.2       20 UNK         0.5000 
    113 O         -3.9759  -18.8709  -55.1251 O.2       20 UNK        -0.5000 
    114 N         -3.9084  -21.0917  -54.6509 N.am      21 UNK        -0.5000 
    115 CA        -3.6163  -21.6264  -55.9828 C.3       21 UNK         0.1400 
    116 CB        -3.9008  -23.1385  -55.9707 C.3       21 UNK        -0.1800 
    117 C         -2.2040  -21.2884  -56.5158 C.2       21 UNK         0.5000 
    118 O         -1.4341  -22.1892  -56.8543 O.2       21 UNK        -0.5000 
    119 N         -1.8976  -19.9923  -56.6049 N.am      22 UNK        -0.5000 
    120 CA        -0.6992  -19.4331  -57.2471 C.3       22 UNK         0.1400 
    121 C         -0.9354  -18.0542  -57.9312 C.2       22 UNK         0.5000 
    122 N         -2.1467  -17.5076  -57.9443 N.am      22 UNK        -0.7600 
    123 O         -0.0073  -17.4774  -58.4919 O.2       22 UNK        -0.5000 
    124 C124        0.5518  -19.4676  -56.3289 C.3       23 UNK        -0.0398 
    125 S125        0.4637  -18.3651  -54.8735 S.3       23 UNK        -0.2404 
    126 C126       -0.0796  -19.5265  -53.5887 C.3       23 UNK        -0.0205 
    127 H127        1.8274  -10.2003  -50.4452 H         1 UNK         0.0600 
    128 H128        0.1234  -10.4224  -50.8563 H         1 UNK         0.0600 
    129 H129        1.3627  -11.3643  -51.6894 H         1 UNK         0.0600 
    130 H130        1.4490  -13.4543  -50.9737 H         1 UNK         0.3000 
    131 H131        1.3704  -15.2940  -49.8142 H         1 UNK         0.0600 
    132 H132       -0.2708  -15.5696  -47.8697 H         1 UNK         0.0800 
    133 H133       -0.6201  -13.8801  -47.9667 H         1 UNK         0.0800 
    134 H134       -1.8659  -17.0988  -48.5815 H         1 UNK         0.0800 
    135 H135       -2.7741  -17.1182  -50.0696 H         1 UNK         0.0800 
    136 H136       -1.8156  -18.0242  -52.1126 H         1 UNK         0.1150 
    137 H137        2.1182  -19.7148  -52.0025 H         1 UNK         0.1150 
    138 H138        0.6429  -17.5124  -48.6396 H         1 UNK         0.1150 
    139 H139        3.6644  -18.7391  -50.2723 H         1 UNK         0.0800 
    140 H140        3.0281  -18.0295  -48.8122 H         1 UNK         0.0800 
    141 H141        1.3957  -19.2297  -47.3008 H         1 UNK         0.0800 
    142 H142        2.6378  -20.0736  -46.4306 H         1 UNK         0.0800 
    143 H143        1.5115  -22.2740  -47.1943 H         1 UNK         0.0600 
    144 H144        0.8426  -20.6085  -44.9934 H         1 UNK         0.3000 
    145 H145       -1.0499  -23.1022  -43.2444 H         1 UNK         0.0600 
    146 H146        0.6630  -22.5578  -41.5445 H         1 UNK         0.0600 
    147 H147        1.3761  -23.5464  -42.8108 H         1 UNK         0.0600 
    148 H148        1.6910  -21.8145  -42.7670 H         1 UNK         0.0600 
    149 H149       -0.3495  -20.4283  -42.5565 H         1 UNK         0.3000 
    150 H150       -3.2857  -18.8650  -43.9532 H         1 UNK         0.0600 
    151 H151       -3.8436  -19.7064  -41.6929 H         1 UNK         0.0600 
    152 H152       -3.2882  -18.0410  -41.5981 H         1 UNK         0.0600 
    153 H153       -2.2176  -19.3585  -41.1246 H         1 UNK         0.0600 
    154 H154       -1.0483  -17.6895  -42.6772 H         1 UNK         0.3000 
    155 H155        0.9160  -17.1231  -45.6205 H         1 UNK         0.0600 
    156 H156       -0.6084  -15.2414  -43.7421 H         1 UNK         0.0600 
    157 H157        0.6383  -14.8077  -44.9151 H         1 UNK         0.0600 
    158 H158       -0.9228  -15.3735  -45.4664 H         1 UNK         0.0600 
    159 H159        1.4199  -16.3835  -42.9509 H         1 UNK         0.3000 
    160 H160        3.1220  -19.4086  -41.9382 H         1 UNK         0.0600 
    161 H161        3.7697  -16.4282  -42.1958 H         1 UNK         0.0600 
    162 H162        4.6332  -17.7158  -43.0276 H         1 UNK         0.0600 
    163 H163        4.6807  -17.6210  -41.2731 H         1 UNK         0.0600 
    164 H164        2.2690  -17.1660  -40.4028 H         1 UNK         0.3000 
    165 H165       -0.8959  -18.3471  -39.3733 H         1 UNK         0.0600 
    166 H166        0.0798  -18.2724  -37.0997 H         1 UNK         0.0600 
    167 H167        0.6234  -19.7174  -37.9362 H         1 UNK         0.0600 
    168 H168        1.7127  -18.3463  -37.7638 H         1 UNK         0.0600 
    169 H169        0.6276  -16.1876  -38.4023 H         1 UNK         0.3000 
    170 H170       -1.0665  -13.8865  -39.6445 H         1 UNK         0.0600 
    171 H171        1.9369  -14.2889  -39.1055 H         1 UNK         0.0600 
    172 H172        1.0442  -12.8097  -38.7755 H         1 UNK         0.0600 
    173 H173        0.6568  -14.2670  -37.8884 H         1 UNK         0.0600 
    174 H174        0.8235  -14.2339  -41.8514 H         1 UNK         0.3000 
    175 H175        0.0051  -12.8161  -43.7300 H         1 UNK         0.0600 
    176 H176        0.1491  -10.5086  -44.5744 H         1 UNK         0.0600 
    177 H177        0.2954   -9.8800  -42.9327 H         1 UNK         0.0600 
    178 H178       -1.1950  -10.6574  -43.4559 H         1 UNK         0.0600 
    179 H179        2.2956  -11.1742  -43.4527 H         1 UNK         0.3000 
    180 H180        4.3379  -11.7901  -43.6047 H         1 UNK         0.0600 
    181 H181        5.0833  -14.5634  -42.5469 H         1 UNK         0.0600 
    182 H182        4.8580  -13.1380  -41.5407 H         1 UNK         0.0600 
    183 H183        6.1494  -13.1756  -42.7314 H         1 UNK         0.0600 
    184 H184        5.0099  -14.2773  -44.9275 H         1 UNK         0.3000 
    185 H185        5.1796  -12.9406  -47.8836 H         1 UNK         0.0600 
    186 H186        6.1685  -14.8056  -46.6321 H         1 UNK         0.0600 
    187 H187        4.6361  -15.6734  -46.5964 H         1 UNK         0.0600 
    188 H188        5.4771  -15.4186  -48.1200 H         1 UNK         0.0600 
    189 H189        3.3611  -13.1920  -49.1115 H         1 UNK         0.3000 
    190 H190       -1.2611  -20.0342  -46.6687 H         1 UNK         0.3000 
    191 H191       -2.5114  -20.4051  -49.1814 H         1 UNK         0.0600 
    192 H192       -3.1495  -18.6255  -47.5361 H         1 UNK         0.0600 
    193 H193       -4.5378  -19.5701  -48.0303 H         1 UNK         0.0600 
    194 H194       -3.8019  -19.8477  -46.4567 H         1 UNK         0.0600 
    195 H195       -2.7684  -22.2853  -46.1244 H         1 UNK         0.3000 
    196 H196       -4.7304  -24.1317  -47.0059 H         1 UNK         0.0600 
    197 H197       -3.9832  -25.4977  -45.0789 H         1 UNK         0.0600 
    198 H198       -4.1572  -23.8099  -44.6220 H         1 UNK         0.0600 
    199 H199       -2.5551  -24.4921  -44.8860 H         1 UNK         0.0600 
    200 H200       -1.1502  -24.2412  -47.1973 H         1 UNK         0.3000 
    201 H201       -0.9466  -26.7733  -48.4977 H         1 UNK         0.0600 
    202 H202        0.9707  -25.6500  -47.3789 H         1 UNK         0.0600 
    203 H203        0.9537  -24.3701  -48.5889 H         1 UNK         0.0600 
    204 H204        1.3506  -26.0175  -49.0553 H         1 UNK         0.0600 
    205 H205       -1.3287  -23.4573  -49.7742 H         1 UNK         0.3000 
    206 H206       -1.3108  -24.2016  -52.5642 H         1 UNK         0.0600 
    207 H207       -2.2023  -21.6169  -51.1991 H         1 UNK         0.0600 
    208 H208       -0.5603  -21.9778  -51.7238 H         1 UNK         0.0600 
    209 H209       -1.8465  -21.8364  -52.9099 H         1 UNK         0.0600 
    210 H210       -2.9447  -25.9590  -51.6720 H         1 UNK         0.3000 
    211 H211       -4.8139  -27.0550  -52.0549 H         1 UNK         0.0600 
    212 H212       -5.5488  -24.8277  -54.0143 H         1 UNK         0.0600 
    213 H213       -6.2242  -26.4475  -53.9816 H         1 UNK         0.0600 
    214 H214       -4.5290  -26.2160  -54.3802 H         1 UNK         0.0600 
    215 H215       -4.9350  -25.9529  -49.6851 H         1 UNK         0.3000 
    216 H216       -6.2968  -25.6697  -47.9718 H         1 UNK         0.0600 
    217 H217       -8.5205  -26.7237  -48.0977 H         1 UNK         0.0600 
    218 H218       -7.3394  -27.6983  -48.9558 H         1 UNK         0.0600 
    219 H219       -8.4779  -26.6965  -49.8551 H         1 UNK         0.0600 
    220 H220       -5.7181  -23.2866  -48.9710 H         1 UNK         0.3000 
    221 H221       -6.1502  -21.1710  -48.6914 H         1 UNK         0.0600 
    222 H222       -8.9137  -21.8004  -47.5606 H         1 UNK         0.0600 
    223 H223       -7.4184  -21.7887  -46.6233 H         1 UNK         0.0600 
    224 H224       -8.0000  -20.3138  -47.3753 H         1 UNK         0.0600 
    225 H225       -7.1416  -22.7989  -51.1358 H         1 UNK         0.3000 
    226 H226       -8.8983  -20.9250  -52.4941 H         1 UNK         0.0600 
    227 H227       -8.7335  -23.3250  -53.1665 H         1 UNK         0.0600 
    228 H228       -8.3038  -22.2621  -54.4984 H         1 UNK         0.0600 
    229 H229       -7.0394  -23.0909  -53.6012 H         1 UNK         0.0600 
    230 H230       -5.4841  -21.1212  -51.8450 H         1 UNK         0.3000 
    231 H231       -3.6988  -19.8702  -52.2431 H         1 UNK         0.0600 
    232 H232       -5.6249  -17.6615  -53.1482 H         1 UNK         0.0600 
    233 H233       -3.9268  -17.4463  -52.7777 H         1 UNK         0.0600 
    234 H234       -5.0417  -17.9200  -51.5055 H         1 UNK         0.0600 
    235 H235       -4.0433  -21.7839  -53.9204 H         1 UNK         0.3000 
    236 H236       -4.3223  -21.1725  -56.6811 H         1 UNK         0.0600 
    237 H237       -4.9413  -23.3349  -55.7139 H         1 UNK         0.0600 
    238 H238       -3.7249  -23.5828  -56.9512 H         1 UNK         0.0600 
    239 H239       -3.2698  -23.6621  -55.2516 H         1 UNK         0.0600 
    240 H240       -2.5618  -19.3242  -56.2234 H         1 UNK         0.3000 
    241 H241       -0.4739  -20.0862  -58.0924 H         1 UNK         0.0600 
    242 H242       -2.9391  -17.9563  -57.5137 H         1 UNK         0.3800 
    243 H243       -2.2736  -16.6188  -58.4030 H         1 UNK         0.3800 
    244 H244        0.7421  -20.4906  -56.0030 H         1 UNK         0.0800 
    245 H245        1.4364  -19.1856  -56.9020 H         1 UNK         0.0800 
    246 H246       -1.1302  -19.7642  -53.7511 H         1 UNK         0.0800 
    247 H247        0.4703  -20.4649  -53.6749 H         1 UNK         0.0800 
@<TRIPOS>BOND
     1    1    2 1    
     2    1  127 1    
     3    1  128 1    
     4    1  129 1    
     5    2    3 2    
     6    2    4 am   BACKBONE|DICT|INTERRES
     7    4    5 1    
     8    4  130 1    
     9    5    6 1    
    10    5   65 1    
    11    5  131 1    
    12    6    7 1    
    13    6  132 1    
    14    6  133 1    
    15    7    8 1    
    16    8    9 1    
    17    8  134 1    
    18    8  135 1    
    19    9   10 ar   
    20    9   14 ar   
    21   10   11 ar   
    22   10  136 1    
    23   11   12 ar   
    24   11  126 1    
    25   12   13 ar   
    26   12  137 1    
    27   13   14 ar   
    28   13   15 1    
    29   14  138 1    
    30   15   16 1    
    31   15  139 1    
    32   15  140 1    
    33   16   17 1    
    34   17   18 1    
    35   17  141 1    
    36   17  142 1    
    37   18   19 1    
    38   18   67 1    
    39   18  143 1    
    40   19   20 am   BACKBONE|DICT|INTERRES
    41   19  144 1    
    42   20   21 2    
    43   20   22 1    
    44   22   23 1    
    45   22   24 1    
    46   22  145 1    
    47   23  146 1    
    48   23  147 1    
    49   23  148 1    
    50   24   25 am   BACKBONE|DICT|INTERRES
    51   24  149 1    
    52   25   26 2    
    53   25   27 1    
    54   27   28 1    
    55   27   29 1    
    56   27  150 1    
    57   28  151 1    
    58   28  152 1    
    59   28  153 1    
    60   29   30 am   BACKBONE|DICT|INTERRES
    61   29  154 1    
    62   30   31 2    
    63   30   32 1    
    64   32   33 1    
    65   32   34 1    
    66   32  155 1    
    67   33  156 1    
    68   33  157 1    
    69   33  158 1    
    70   34   35 am   BACKBONE|DICT|INTERRES
    71   34  159 1    
    72   35   36 2    
    73   35   37 1    
    74   37   38 1    
    75   37   39 1    
    76   37  160 1    
    77   38  161 1    
    78   38  162 1    
    79   38  163 1    
    80   39   40 am   BACKBONE|DICT|INTERRES
    81   39  164 1    
    82   40   41 2    
    83   40   42 1    
    84   42   43 1    
    85   42   44 1    
    86   42  165 1    
    87   43  166 1    
    88   43  167 1    
    89   43  168 1    
    90   44   45 am   BACKBONE|DICT|INTERRES
    91   44  169 1    
    92   45   46 2    
    93   45   47 1    
    94   47   48 1    
    95   47   49 1    
    96   47  170 1    
    97   48  171 1    
    98   48  172 1    
    99   48  173 1    
   100   49   50 am   BACKBONE|DICT|INTERRES
   101   49  174 1    
   102   50   51 2    
   103   50   52 1    
   104   52   53 1    
   105   52   54 1    
   106   52  175 1    
   107   53  176 1    
   108   53  177 1    
   109   53  178 1    
   110   54   55 am   BACKBONE|DICT|INTERRES
   111   54  179 1    
   112   55   56 2    
   113   55   57 1    
   114   57   58 1    
   115   57   59 1    
   116   57  180 1    
   117   58  181 1    
   118   58  182 1    
   119   58  183 1    
   120   59   60 am   BACKBONE|DICT|INTERRES
   121   59  184 1    
   122   60   61 2    
   123   60   62 1    
   124   62   63 1    
   125   62   64 1    
   126   62  185 1    
   127   63  186 1    
   128   63  187 1    
   129   63  188 1    
   130   64   65 am   BACKBONE|DICT|INTERRES
   131   64  189 1    
   132   65   66 2    
   133   67   68 2    
   134   67   69 am   BACKBONE|DICT|INTERRES
   135   69   70 1    
   136   69  190 1    
   137   70   71 1    
   138   70   72 1    
   139   70  191 1    
   140   71  192 1    
   141   71  193 1    
   142   71  194 1    
   143   72   73 2    
   144   72   74 am   BACKBONE|DICT|INTERRES
   145   74   75 1    
   146   74  195 1    
   147   75   76 1    
   148   75   77 1    
   149   75  196 1    
   150   76  197 1    
   151   76  198 1    
   152   76  199 1    
   153   77   78 2    
   154   77   79 am   BACKBONE|DICT|INTERRES
   155   79   80 1    
   156   79  200 1    
   157   80   81 1    
   158   80   82 1    
   159   80  201 1    
   160   81  202 1    
   161   81  203 1    
   162   81  204 1    
   163   82   83 2    
   164   82   84 am   BACKBONE|DICT|INTERRES
   165   84   85 1    
   166   84  205 1    
   167   85   86 1    
   168   85   87 1    
   169   85  206 1    
   170   86  207 1    
   171   86  208 1    
   172   86  209 1    
   173   87   88 2    
   174   87   89 am   BACKBONE|DICT|INTERRES
   175   89   90 1    
   176   89  210 1    
   177   90   91 1    
   178   90   92 1    
   179   90  211 1    
   180   91  212 1    
   181   91  213 1    
   182   91  214 1    
   183   92   93 2    
   184   92   94 am   BACKBONE|DICT|INTERRES
   185   94   95 1    
   186   94  215 1    
   187   95   96 1    
   188   95   97 1    
   189   95  216 1    
   190   96  217 1    
   191   96  218 1    
   192   96  219 1    
   193   97   98 2    
   194   97   99 am   BACKBONE|DICT|INTERRES
   195   99  100 1    
   196   99  220 1    
   197  100  101 1    
   198  100  102 1    
   199  100  221 1    
   200  101  222 1    
   201  101  223 1    
   202  101  224 1    
   203  102  103 2    
   204  102  104 am   BACKBONE|DICT|INTERRES
   205  104  105 1    
   206  104  225 1    
   207  105  106 1    
   208  105  107 1    
   209  105  226 1    
   210  106  227 1    
   211  106  228 1    
   212  106  229 1    
   213  107  108 2    
   214  107  109 am   BACKBONE|DICT|INTERRES
   215  109  110 1    
   216  109  230 1    
   217  110  111 1    
   218  110  112 1    
   219  110  231 1    
   220  111  232 1    
   221  111  233 1    
   222  111  234 1    
   223  112  113 2    
   224  112  114 am   BACKBONE|DICT|INTERRES
   225  114  115 1    
   226  114  235 1    
   227  115  116 1    
   228  115  117 1    
   229  115  236 1    
   230  116  237 1    
   231  116  238 1    
   232  116  239 1    
   233  117  118 2    
   234  117  119 am   BACKBONE|DICT|INTERRES
   235  119  120 1    
   236  119  240 1    
   237  120  121 1    
   238  120  124 1    
   239  120  241 1    
   240  121  122 am   BACKBONE|DICT|INTERRES
   241  121  123 2    
   242  122  242 1    
   243  122  243 1    
   244  124  125 1    
   245  124  244 1    
   246  124  245 1    
   247  125  126 1    
   248  126  246 1    
   249  126  247 1    
@<TRIPOS>SUBSTRUCTURE
     1 UNK         1 GROUP             0       ****    0 ROOT    
