@<TRIPOS>MOLECULE
3R540
247   249    1
SMALL
USER_CHARGES


@<TRIPOS>ATOM
      1 CA          3.1162   -9.0555  -44.0946 C.3       0 UNK        -0.1800 
      2 C           3.2767   -9.6153  -45.5010 C.2       0 UNK         0.5000 
      3 O           3.9412   -9.0017  -46.3357 O.2       0 UNK        -0.5000 
      4 N           2.6646  -10.7762  -45.7632 N.am      1 UNK        -0.5000 
      5 CA          2.7770  -11.5233  -47.0195 C.3       1 UNK         0.1400 
      6 C6          1.6255  -12.5482  -47.1509 C.3       23 UNK        -0.0398 
      7 S7          1.4520  -13.2523  -48.8236 S.3       23 UNK        -0.2404 
      8 C8          2.2992  -14.8591  -48.6197 C.3       23 UNK        -0.0205 
      9 C9          1.8688  -15.9732  -49.5733 C.ar      23 UNK        -0.0193 
     10 C10         0.8672  -15.8160  -50.5404 C.ar      23 UNK        -0.1150 
     11 C11         0.4615  -16.8914  -51.3362 C.ar      23 UNK        -0.0193 
     12 C12         1.0839  -18.1335  -51.1812 C.ar      23 UNK        -0.1150 
     13 C13         2.1020  -18.3012  -50.2375 C.ar      23 UNK        -0.0193 
     14 C14         2.4846  -17.2204  -49.4395 C.ar      23 UNK        -0.1150 
     15 C15         2.7993  -19.6442  -50.0764 C.3       23 UNK        -0.0205 
     16 S16         2.2705  -20.5106  -48.5654 S.3       23 UNK        -0.2404 
     17 C17         0.5444  -20.8970  -48.9930 C.3       23 UNK        -0.0398 
     18 CA         -0.0960  -21.9031  -48.0108 C.3       11 UNK         0.1400 
     19 N          -0.3422  -21.3309  -46.6820 N.am      11 UNK        -0.5000 
     20 C          -0.7624  -22.0356  -45.6203 C.2       10 UNK         0.5000 
     21 O          -0.9359  -23.2540  -45.6341 O.2       10 UNK        -0.5000 
     22 CA         -1.1037  -21.2483  -44.3423 C.3       10 UNK         0.1400 
     23 CB          0.1676  -20.8659  -43.5707 C.3       10 UNK        -0.1800 
     24 N          -1.9021  -20.0538  -44.6160 N.am      10 UNK        -0.5000 
     25 C          -3.1294  -20.0673  -45.1555 C.2       9 UNK         0.5000 
     26 O          -3.7423  -21.0959  -45.4356 O.2       9 UNK        -0.5000 
     27 CA         -3.7640  -18.7049  -45.4809 C.3       9 UNK         0.1400 
     28 CB         -4.4644  -18.1126  -44.2488 C.3       9 UNK        -0.1800 
     29 N          -2.7879  -17.7497  -46.0014 N.am      9 UNK        -0.5000 
     30 C          -2.1595  -17.8738  -47.1792 C.2       8 UNK         0.5000 
     31 O          -2.3527  -18.8013  -47.9661 O.2       8 UNK        -0.5000 
     32 CA         -1.1031  -16.7999  -47.4945 C.3       8 UNK         0.1400 
     33 CB         -1.7784  -15.4823  -47.9042 C.3       8 UNK        -0.1800 
     34 N          -0.2101  -16.5489  -46.3608 N.am      8 UNK        -0.5000 
     35 C           0.6211  -17.4627  -45.8372 C.2       7 UNK         0.5000 
     36 O           0.7532  -18.5997  -46.2851 O.2       7 UNK        -0.5000 
     37 CA          1.3819  -17.0665  -44.5558 C.3       7 UNK         0.1400 
     38 CB          2.7188  -16.3910  -44.8908 C.3       7 UNK        -0.1800 
     39 N           0.6128  -16.1927  -43.6694 N.am      7 UNK        -0.5000 
     40 C          -0.5741  -16.5009  -43.1262 C.2       6 UNK         0.5000 
     41 O          -1.1230  -17.5917  -43.2782 O.2       6 UNK        -0.5000 
     42 CA         -1.2876  -15.4139  -42.2984 C.3       6 UNK         0.1400 
     43 CB         -1.2621  -15.7779  -40.8062 C.3       6 UNK        -0.1800 
     44 N          -0.7365  -14.0663  -42.4616 N.am      6 UNK        -0.5000 
     45 C          -0.7424  -13.3376  -43.5879 C.2       5 UNK         0.5000 
     46 O          -1.2052  -13.7318  -44.6584 O.2       5 UNK        -0.5000 
     47 CA         -0.0621  -11.9568  -43.5068 C.3       5 UNK         0.1400 
     48 CB         -1.0838  -10.8674  -43.1524 C.3       5 UNK        -0.1800 
     49 N           1.0326  -11.9321  -42.5292 N.am      5 UNK        -0.5000 
     50 C           2.2032  -12.5606  -42.6920 C.2       4 UNK         0.5000 
     51 O           2.5421  -13.0997  -43.7517 O.2       4 UNK        -0.5000 
     52 CA          3.1301  -12.6122  -41.4685 C.3       4 UNK         0.1400 
     53 CB          2.5371  -13.5023  -40.3609 C.3       4 UNK        -0.1800 
     54 N           4.4121  -13.1550  -41.8930 N.am      4 UNK        -0.5000 
     55 C           5.6065  -12.9137  -41.3423 C.2       3 UNK         0.5000 
     56 O           5.7688  -12.2394  -40.3246 O.2       3 UNK        -0.5000 
     57 CA          6.8307  -13.5202  -42.0623 C.3       3 UNK         0.1400 
     58 CB          7.2687  -14.8215  -41.3730 C.3       3 UNK        -0.1800 
     59 N           6.5829  -13.7946  -43.4825 N.am      3 UNK        -0.5000 
     60 C           6.4009  -12.8514  -44.4168 C.2       2 UNK         0.5000 
     61 O           6.5182  -11.6451  -44.1945 O.2       2 UNK        -0.5000 
     62 CA          5.9550  -13.3098  -45.8135 C.3       2 UNK         0.1400 
     63 CB          5.9517  -14.8370  -46.0276 C.3       2 UNK        -0.1800 
     64 N           4.6100  -12.7845  -46.0105 N.am      2 UNK        -0.5000 
     65 C           4.1656  -12.1896  -47.1225 C.2       1 UNK         0.5000 
     66 O           4.8080  -12.1195  -48.1712 O.2       1 UNK        -0.5000 
     67 C          -1.3760  -22.5036  -48.6223 C.2       11 UNK         0.5000 
     68 O          -1.3319  -23.6330  -49.1110 O.2       11 UNK        -0.5000 
     69 N          -2.4929  -21.7636  -48.5526 N.am      12 UNK        -0.5000 
     70 CA         -3.8046  -22.2127  -49.0220 C.3       12 UNK         0.1400 
     71 CB         -4.8233  -21.0708  -48.8904 C.3       12 UNK        -0.1800 
     72 C          -4.2977  -23.4700  -48.2826 C.2       12 UNK         0.5000 
     73 O          -4.7706  -24.4036  -48.9292 O.2       12 UNK        -0.5000 
     74 N          -4.1446  -23.4874  -46.9507 N.am      13 UNK        -0.5000 
     75 CA         -4.4847  -24.6149  -46.0838 C.3       13 UNK         0.1400 
     76 CB         -4.3859  -24.1878  -44.6118 C.3       13 UNK        -0.1800 
     77 C          -3.6177  -25.8570  -46.3508 C.2       13 UNK         0.5000 
     78 O          -4.1605  -26.9576  -46.4478 O.2       13 UNK        -0.5000 
     79 N          -2.2996  -25.6632  -46.5061 N.am      14 UNK        -0.5000 
     80 CA         -1.3350  -26.7193  -46.8309 C.3       14 UNK         0.1400 
     81 CB          0.0912  -26.1537  -46.7583 C.3       14 UNK        -0.1800 
     82 C          -1.5916  -27.3674  -48.2046 C.2       14 UNK         0.5000 
     83 O          -1.4310  -28.5796  -48.3488 O.2       14 UNK        -0.5000 
     84 N          -2.0256  -26.5521  -49.1728 N.am      15 UNK        -0.5000 
     85 CA         -2.4425  -26.9727  -50.5096 C.3       15 UNK         0.1400 
     86 CB         -2.2257  -25.7936  -51.4669 C.3       15 UNK        -0.1800 
     87 C          -3.9033  -27.4709  -50.5721 C.2       15 UNK         0.5000 
     88 O          -4.3680  -27.8176  -51.6588 O.2       15 UNK        -0.5000 
     89 N          -4.6156  -27.4745  -49.4333 N.am      16 UNK        -0.5000 
     90 CA         -6.0149  -27.8847  -49.2514 C.3       16 UNK         0.1400 
     91 CB         -6.1459  -29.4130  -49.4132 C.3       16 UNK        -0.1800 
     92 C          -7.0102  -27.1035  -50.1390 C.2       16 UNK         0.5000 
     93 O          -8.0281  -27.6553  -50.5600 O.2       16 UNK        -0.5000 
     94 N          -6.6721  -25.8392  -50.4311 N.am      17 UNK        -0.5000 
     95 CA         -7.3488  -24.8951  -51.3258 C.3       17 UNK         0.1400 
     96 CB         -8.7377  -24.5179  -50.7728 C.3       17 UNK        -0.1800 
     97 C          -7.4051  -25.3284  -52.8095 C.2       17 UNK         0.5000 
     98 O          -8.0913  -24.6753  -53.5971 O.2       17 UNK        -0.5000 
     99 N          -6.6726  -26.3873  -53.1891 N.am      18 UNK        -0.5000 
    100 CA        -6.5495  -26.8561  -54.5736 C.3       18 UNK         0.1400 
    101 CB        -6.1114  -28.3285  -54.5701 C.3       18 UNK        -0.1800 
    102 C         -5.5650  -25.9981  -55.3922 C.2       18 UNK         0.5000 
    103 O         -5.6273  -25.9954  -56.6222 O.2       18 UNK        -0.5000 
    104 N         -4.6892  -25.2772  -54.6886 N.am      19 UNK        -0.5000 
    105 CA        -3.7470  -24.2904  -55.1902 C.3       19 UNK         0.1400 
    106 CB        -2.4491  -24.9895  -55.6337 C.3       19 UNK        -0.1800 
    107 C         -3.4955  -23.2830  -54.0573 C.2       19 UNK         0.5000 
    108 O         -3.9582  -23.4994  -52.9337 O.2       19 UNK        -0.5000 
    109 N         -2.7764  -22.1974  -54.3733 N.am      20 UNK        -0.5000 
    110 CA        -2.3031  -21.1532  -53.4507 C.3       20 UNK         0.1400 
    111 CB        -1.2476  -21.7301  -52.4850 C.3       20 UNK        -0.1800 
    112 C         -3.4131  -20.3884  -52.6949 C.2       20 UNK         0.5000 
    113 O         -3.1216  -19.7144  -51.7074 O.2       20 UNK        -0.5000 
    114 N         -4.6601  -20.4696  -53.1774 N.am      21 UNK        -0.5000 
    115 CA        -5.8499  -19.8448  -52.5975 C.3       21 UNK         0.1400 
    116 CB        -7.0877  -20.6517  -53.0298 C.3       21 UNK        -0.1800 
    117 C         -5.9447  -18.3472  -52.9597 C.2       21 UNK         0.5000 
    118 O         -6.9436  -17.9014  -53.5272 O.2       21 UNK        -0.5000 
    119 N         -4.8793  -17.6042  -52.6465 N.am      22 UNK        -0.5000 
    120 CA        -4.7201  -16.1666  -52.9076 C.3       22 UNK         0.1400 
    121 C         -5.4783  -15.2269  -51.9225 C.2       22 UNK         0.5000 
    122 N         -6.0669  -15.7256  -50.8420 N.am      22 UNK        -0.7600 
    123 O         -5.5498  -14.0229  -52.1545 O.2       22 UNK        -0.5000 
    124 C124       -3.2230  -15.7863  -53.0473 C.3       23 UNK        -0.0398 
    125 S125       -2.2140  -16.2194  -51.5864 S.3       23 UNK        -0.2404 
    126 C126       -0.6408  -16.6962  -52.3681 C.3       23 UNK        -0.0205 
    127 H127        2.2622   -9.4957  -43.5803 H         1 UNK         0.0600 
    128 H128        4.0130   -9.2560  -43.5081 H         1 UNK         0.0600 
    129 H129        2.9645   -7.9767  -44.1318 H         1 UNK         0.0600 
    130 H130        2.1814  -11.2538  -45.0162 H         1 UNK         0.3000 
    131 H131        2.6888  -10.8093  -47.8415 H         1 UNK         0.0600 
    132 H132        1.7103  -13.3399  -46.4054 H         1 UNK         0.0800 
    133 H133        0.6783  -12.0517  -46.9361 H         1 UNK         0.0800 
    134 H134        3.3741  -14.7009  -48.7177 H         1 UNK         0.0800 
    135 H135        2.1286  -15.2233  -47.6083 H         1 UNK         0.0800 
    136 H136        0.3691  -14.8671  -50.6709 H         1 UNK         0.1150 
    137 H137        0.7793  -18.9680  -51.7966 H         1 UNK         0.1150 
    138 H138        3.2576  -17.3591  -48.6963 H         1 UNK         0.1150 
    139 H139        2.6237  -20.2807  -50.9450 H         1 UNK         0.0800 
    140 H140        3.8775  -19.4848  -50.0304 H         1 UNK         0.0800 
    141 H141        0.5509  -21.3051  -50.0047 H         1 UNK         0.0800 
    142 H142       -0.0328  -19.9712  -49.0323 H         1 UNK         0.0800 
    143 H143        0.6025  -22.7322  -47.8776 H         1 UNK         0.0600 
    144 H144       -0.1694  -20.3348  -46.5794 H         1 UNK         0.3000 
    145 H145       -1.7016  -21.8994  -43.7013 H         1 UNK         0.0600 
    146 H146       -0.0712  -20.3116  -42.6628 H         1 UNK         0.0600 
    147 H147        0.7224  -21.7566  -43.2737 H         1 UNK         0.0600 
    148 H148        0.8366  -20.2527  -44.1729 H         1 UNK         0.0600 
    149 H149       -1.4956  -19.1590  -44.3595 H         1 UNK         0.3000 
    150 H150       -4.5185  -18.8664  -46.2535 H         1 UNK         0.0600 
    151 H151       -5.2274  -18.7948  -43.8718 H         1 UNK         0.0600 
    152 H152       -4.9607  -17.1727  -44.4907 H         1 UNK         0.0600 
    153 H153       -3.7653  -17.9234  -43.4341 H         1 UNK         0.0600 
    154 H154       -2.5282  -16.9883  -45.3926 H         1 UNK         0.3000 
    155 H155       -0.5050  -17.1622  -48.3327 H         1 UNK         0.0600 
    156 H156       -1.0485  -14.7669  -48.2798 H         1 UNK         0.0600 
    157 H157       -2.3023  -15.0177  -47.0681 H         1 UNK         0.0600 
    158 H158       -2.5091  -15.6454  -48.6964 H         1 UNK         0.0600 
    159 H159       -0.2934  -15.6492  -45.9072 H         1 UNK         0.3000 
    160 H160        1.5971  -17.9851  -44.0071 H         1 UNK         0.0600 
    161 H161        2.5751  -15.4053  -45.3318 H         1 UNK         0.0600 
    162 H162        3.2963  -16.9901  -45.5964 H         1 UNK         0.0600 
    163 H163        3.3272  -16.2658  -43.9950 H         1 UNK         0.0600 
    164 H164        0.9923  -15.2727  -43.5011 H         1 UNK         0.3000 
    165 H165       -2.3280  -15.3916  -42.6292 H         1 UNK         0.0600 
    166 H166       -0.2444  -15.7951  -40.4140 H         1 UNK         0.0600 
    167 H167       -1.8388  -15.0657  -40.2157 H         1 UNK         0.0600 
    168 H168       -1.6964  -16.7641  -40.6355 H         1 UNK         0.0600 
    169 H169       -0.3284  -13.6541  -41.6366 H         1 UNK         0.3000 
    170 H170        0.3402  -11.7311  -44.4945 H         1 UNK         0.0600 
    171 H171       -1.9009  -10.8488  -43.8750 H         1 UNK         0.0600 
    172 H172       -1.5211  -11.0284  -42.1662 H         1 UNK         0.0600 
    173 H173       -0.6236   -9.8791  -43.1588 H         1 UNK         0.0600 
    174 H174        0.8345  -11.4839  -41.6454 H         1 UNK         0.3000 
    175 H175        3.2665  -11.5938  -41.0990 H         1 UNK         0.0600 
    176 H176        3.2089  -13.5652  -39.5046 H         1 UNK         0.0600 
    177 H177        1.5899  -13.1055  -39.9946 H         1 UNK         0.0600 
    178 H178        2.3556  -14.5179  -40.7157 H         1 UNK         0.0600 
    179 H179        4.3671  -13.6841  -42.7532 H         1 UNK         0.3000 
    180 H180        7.6481  -12.7998  -41.9884 H         1 UNK         0.0600 
    181 H181        6.4924  -15.5860  -41.4251 H         1 UNK         0.0600 
    182 H182        7.4895  -14.6496  -40.3186 H         1 UNK         0.0600 
    183 H183        8.1716  -15.2263  -41.8306 H         1 UNK         0.0600 
    184 H184        6.4793  -14.7643  -43.7444 H         1 UNK         0.3000 
    185 H185        6.6481  -12.8593  -46.5270 H         1 UNK         0.0600 
    186 H186        5.6238  -15.0860  -47.0371 H         1 UNK         0.0600 
    187 H187        6.9521  -15.2535  -45.9042 H         1 UNK         0.0600 
    188 H188        5.2863  -15.3475  -45.3327 H         1 UNK         0.0600 
    189 H189        4.0173  -12.7684  -45.1880 H         1 UNK         0.3000 
    190 H190       -2.4426  -20.8242  -48.1700 H         1 UNK         0.3000 
    191 H191       -3.7082  -22.4623  -50.0811 H         1 UNK         0.0600 
    192 H192       -4.4835  -20.1763  -49.4119 H         1 UNK         0.0600 
    193 H193       -5.7843  -21.3566  -49.3196 H         1 UNK         0.0600 
    194 H194       -4.9954  -20.7999  -47.8488 H         1 UNK         0.0600 
    195 H195       -3.7904  -22.6537  -46.4878 H         1 UNK         0.3000 
    196 H196       -5.5225  -24.8868  -46.2872 H         1 UNK         0.0600 
    197 H197       -4.6417  -25.0131  -43.9462 H         1 UNK         0.0600 
    198 H198       -5.0718  -23.3692  -44.3932 H         1 UNK         0.0600 
    199 H199       -3.3791  -23.8569  -44.3549 H         1 UNK         0.0600 
    200 H200       -1.9196  -24.7293  -46.3727 H         1 UNK         0.3000 
    201 H201       -1.4303  -27.5007  -46.0743 H         1 UNK         0.0600 
    202 H202        0.3150  -25.7773  -45.7600 H         1 UNK         0.0600 
    203 H203        0.2350  -25.3350  -47.4642 H         1 UNK         0.0600 
    204 H204        0.8301  -26.9220  -46.9892 H         1 UNK         0.0600 
    205 H205       -2.0757  -25.5560  -48.9817 H         1 UNK         0.3000 
    206 H206       -1.8086  -27.7977  -50.8403 H         1 UNK         0.0600 
    207 H207       -1.1761  -25.5023  -51.5058 H         1 UNK         0.0600 
    208 H208       -2.5333  -26.0415  -52.4829 H         1 UNK         0.0600 
    209 H209       -2.7987  -24.9235  -51.1468 H         1 UNK         0.0600 
    210 H210       -4.1586  -27.1439  -48.5923 H         1 UNK         0.3000 
    211 H211       -6.2726  -27.6369  -48.2209 H         1 UNK         0.0600 
    212 H212       -5.9555  -29.7280  -50.4397 H         1 UNK         0.0600 
    213 H213       -7.1474  -29.7522  -49.1464 H         1 UNK         0.0600 
    214 H214       -5.4442  -29.9385  -48.7653 H         1 UNK         0.0600 
    215 H215       -5.8339  -25.4687  -49.9847 H         1 UNK         0.3000 
    216 H216       -6.7352  -23.9929  -51.3093 H         1 UNK         0.0600 
    217 H217       -8.6718  -24.1864  -49.7365 H         1 UNK         0.0600 
    218 H218       -9.4320  -25.3574  -50.8142 H         1 UNK         0.0600 
    219 H219       -9.1792  -23.7010  -51.3447 H         1 UNK         0.0600 
    220 H220       -6.1128  -26.8732  -52.4971 H         1 UNK         0.3000 
    221 H221       -7.5274  -26.7943  -55.0557 H         1 UNK         0.0600 
    222 H222       -5.1124  -28.4512  -54.1509 H         1 UNK         0.0600 
    223 H223       -6.7978  -28.9441  -53.9884 H         1 UNK         0.0600 
    224 H224       -6.0915  -28.7306  -55.5838 H         1 UNK         0.0600 
    225 H225       -4.7512  -25.2921  -53.6777 H         1 UNK         0.3000 
    226 H226       -4.1911  -23.7573  -56.0332 H         1 UNK         0.0600 
    227 H227       -2.6442  -25.7248  -56.4145 H         1 UNK         0.0600 
    228 H228       -1.7324  -24.2740  -56.0377 H         1 UNK         0.0600 
    229 H229       -1.9659  -25.5054  -54.8036 H         1 UNK         0.0600 
    230 H230       -2.4685  -22.0934  -55.3304 H         1 UNK         0.3000 
    231 H231       -1.8043  -20.4072  -54.0707 H         1 UNK         0.0600 
    232 H232       -0.7895  -20.9379  -51.8935 H         1 UNK         0.0600 
    233 H233       -0.4469  -22.2331  -53.0269 H         1 UNK         0.0600 
    234 H234       -1.6846  -22.4476  -51.7896 H         1 UNK         0.0600 
    235 H235       -4.8062  -21.0213  -54.0091 H         1 UNK         0.3000 
    236 H236       -5.7835  -19.9056  -51.5100 H         1 UNK         0.0600 
    237 H237       -7.9952  -20.2501  -52.5773 H         1 UNK         0.0600 
    238 H238       -7.2227  -20.6345  -54.1119 H         1 UNK         0.0600 
    239 H239       -7.0064  -21.6940  -52.7196 H         1 UNK         0.0600 
    240 H240       -4.1023  -18.0604  -52.1763 H         1 UNK         0.3000 
    241 H241       -5.1763  -15.9712  -53.8799 H         1 UNK         0.0600 
    242 H242       -6.0104  -16.7100  -50.6389 H         1 UNK         0.3800 
    243 H243       -6.5617  -15.1095  -50.2167 H         1 UNK         0.3800 
    244 H244       -2.8117  -16.2949  -53.9202 H         1 UNK         0.0800 
    245 H245       -3.1081  -14.7199  -53.2490 H         1 UNK         0.0800 
    246 H246       -0.7950  -17.6065  -52.9497 H         1 UNK         0.0800 
    247 H247       -0.3332  -15.9203  -53.0705 H         1 UNK         0.0800 
@<TRIPOS>BOND
     1    1    2 1    
     2    1  127 1    
     3    1  128 1    
     4    1  129 1    
     5    2    3 2    
     6    2    4 am   BACKBONE|DICT|INTERRES
     7    4    5 1    
     8    4  130 1    
     9    5    6 1    
    10    5   65 1    
    11    5  131 1    
    12    6    7 1    
    13    6  132 1    
    14    6  133 1    
    15    7    8 1    
    16    8    9 1    
    17    8  134 1    
    18    8  135 1    
    19    9   10 ar   
    20    9   14 ar   
    21   10   11 ar   
    22   10  136 1    
    23   11   12 ar   
    24   11  126 1    
    25   12   13 ar   
    26   12  137 1    
    27   13   14 ar   
    28   13   15 1    
    29   14  138 1    
    30   15   16 1    
    31   15  139 1    
    32   15  140 1    
    33   16   17 1    
    34   17   18 1    
    35   17  141 1    
    36   17  142 1    
    37   18   19 1    
    38   18   67 1    
    39   18  143 1    
    40   19   20 am   BACKBONE|DICT|INTERRES
    41   19  144 1    
    42   20   21 2    
    43   20   22 1    
    44   22   23 1    
    45   22   24 1    
    46   22  145 1    
    47   23  146 1    
    48   23  147 1    
    49   23  148 1    
    50   24   25 am   BACKBONE|DICT|INTERRES
    51   24  149 1    
    52   25   26 2    
    53   25   27 1    
    54   27   28 1    
    55   27   29 1    
    56   27  150 1    
    57   28  151 1    
    58   28  152 1    
    59   28  153 1    
    60   29   30 am   BACKBONE|DICT|INTERRES
    61   29  154 1    
    62   30   31 2    
    63   30   32 1    
    64   32   33 1    
    65   32   34 1    
    66   32  155 1    
    67   33  156 1    
    68   33  157 1    
    69   33  158 1    
    70   34   35 am   BACKBONE|DICT|INTERRES
    71   34  159 1    
    72   35   36 2    
    73   35   37 1    
    74   37   38 1    
    75   37   39 1    
    76   37  160 1    
    77   38  161 1    
    78   38  162 1    
    79   38  163 1    
    80   39   40 am   BACKBONE|DICT|INTERRES
    81   39  164 1    
    82   40   41 2    
    83   40   42 1    
    84   42   43 1    
    85   42   44 1    
    86   42  165 1    
    87   43  166 1    
    88   43  167 1    
    89   43  168 1    
    90   44   45 am   BACKBONE|DICT|INTERRES
    91   44  169 1    
    92   45   46 2    
    93   45   47 1    
    94   47   48 1    
    95   47   49 1    
    96   47  170 1    
    97   48  171 1    
    98   48  172 1    
    99   48  173 1    
   100   49   50 am   BACKBONE|DICT|INTERRES
   101   49  174 1    
   102   50   51 2    
   103   50   52 1    
   104   52   53 1    
   105   52   54 1    
   106   52  175 1    
   107   53  176 1    
   108   53  177 1    
   109   53  178 1    
   110   54   55 am   BACKBONE|DICT|INTERRES
   111   54  179 1    
   112   55   56 2    
   113   55   57 1    
   114   57   58 1    
   115   57   59 1    
   116   57  180 1    
   117   58  181 1    
   118   58  182 1    
   119   58  183 1    
   120   59   60 am   BACKBONE|DICT|INTERRES
   121   59  184 1    
   122   60   61 2    
   123   60   62 1    
   124   62   63 1    
   125   62   64 1    
   126   62  185 1    
   127   63  186 1    
   128   63  187 1    
   129   63  188 1    
   130   64   65 am   BACKBONE|DICT|INTERRES
   131   64  189 1    
   132   65   66 2    
   133   67   68 2    
   134   67   69 am   BACKBONE|DICT|INTERRES
   135   69   70 1    
   136   69  190 1    
   137   70   71 1    
   138   70   72 1    
   139   70  191 1    
   140   71  192 1    
   141   71  193 1    
   142   71  194 1    
   143   72   73 2    
   144   72   74 am   BACKBONE|DICT|INTERRES
   145   74   75 1    
   146   74  195 1    
   147   75   76 1    
   148   75   77 1    
   149   75  196 1    
   150   76  197 1    
   151   76  198 1    
   152   76  199 1    
   153   77   78 2    
   154   77   79 am   BACKBONE|DICT|INTERRES
   155   79   80 1    
   156   79  200 1    
   157   80   81 1    
   158   80   82 1    
   159   80  201 1    
   160   81  202 1    
   161   81  203 1    
   162   81  204 1    
   163   82   83 2    
   164   82   84 am   BACKBONE|DICT|INTERRES
   165   84   85 1    
   166   84  205 1    
   167   85   86 1    
   168   85   87 1    
   169   85  206 1    
   170   86  207 1    
   171   86  208 1    
   172   86  209 1    
   173   87   88 2    
   174   87   89 am   BACKBONE|DICT|INTERRES
   175   89   90 1    
   176   89  210 1    
   177   90   91 1    
   178   90   92 1    
   179   90  211 1    
   180   91  212 1    
   181   91  213 1    
   182   91  214 1    
   183   92   93 2    
   184   92   94 am   BACKBONE|DICT|INTERRES
   185   94   95 1    
   186   94  215 1    
   187   95   96 1    
   188   95   97 1    
   189   95  216 1    
   190   96  217 1    
   191   96  218 1    
   192   96  219 1    
   193   97   98 2    
   194   97   99 am   BACKBONE|DICT|INTERRES
   195   99  100 1    
   196   99  220 1    
   197  100  101 1    
   198  100  102 1    
   199  100  221 1    
   200  101  222 1    
   201  101  223 1    
   202  101  224 1    
   203  102  103 2    
   204  102  104 am   BACKBONE|DICT|INTERRES
   205  104  105 1    
   206  104  225 1    
   207  105  106 1    
   208  105  107 1    
   209  105  226 1    
   210  106  227 1    
   211  106  228 1    
   212  106  229 1    
   213  107  108 2    
   214  107  109 am   BACKBONE|DICT|INTERRES
   215  109  110 1    
   216  109  230 1    
   217  110  111 1    
   218  110  112 1    
   219  110  231 1    
   220  111  232 1    
   221  111  233 1    
   222  111  234 1    
   223  112  113 2    
   224  112  114 am   BACKBONE|DICT|INTERRES
   225  114  115 1    
   226  114  235 1    
   227  115  116 1    
   228  115  117 1    
   229  115  236 1    
   230  116  237 1    
   231  116  238 1    
   232  116  239 1    
   233  117  118 2    
   234  117  119 am   BACKBONE|DICT|INTERRES
   235  119  120 1    
   236  119  240 1    
   237  120  121 1    
   238  120  124 1    
   239  120  241 1    
   240  121  122 am   BACKBONE|DICT|INTERRES
   241  121  123 2    
   242  122  242 1    
   243  122  243 1    
   244  124  125 1    
   245  124  244 1    
   246  124  245 1    
   247  125  126 1    
   248  126  246 1    
   249  126  247 1    
@<TRIPOS>SUBSTRUCTURE
     1 UNK         1 GROUP             0       ****    0 ROOT    
