@<TRIPOS>MOLECULE
3R540
247   249    1
SMALL
USER_CHARGES


@<TRIPOS>ATOM
      1 CA          1.8115  -11.4105  -43.9688 C.3       0 UNK        -0.1800 
      2 C           2.3668  -12.0645  -45.2255 C.2       0 UNK         0.5000 
      3 O           3.1305  -11.4363  -45.9599 O.2       0 UNK        -0.5000 
      4 N           1.9651  -13.3141  -45.4766 N.am      1 UNK        -0.5000 
      5 CA          2.3212  -14.2177  -46.5753 C.3       1 UNK         0.1400 
      6 C6          3.8058  -14.6774  -46.5506 C.3       23 UNK        -0.0398 
      7 S7          3.9539  -16.4832  -46.7544 S.3       23 UNK        -0.2404 
      8 C8          4.1134  -16.6573  -48.5634 C.3       23 UNK        -0.0205 
      9 C9          3.3931  -17.8935  -49.0938 C.ar      23 UNK        -0.0193 
     10 C10         2.4788  -17.7805  -50.1470 C.ar      23 UNK        -0.1150 
     11 C11         1.8482  -18.9145  -50.6711 C.ar      23 UNK        -0.0193 
     12 C12         2.1078  -20.1660  -50.1035 C.ar      23 UNK        -0.1150 
     13 C13         3.0079  -20.2954  -49.0406 C.ar      23 UNK        -0.0193 
     14 C14         3.6639  -19.1571  -48.5603 C.ar      23 UNK        -0.1150 
     15 C15         3.2997  -21.6696  -48.4477 C.3       23 UNK        -0.0205 
     16 S16         3.1915  -21.6816  -46.6282 S.3       23 UNK        -0.2404 
     17 C17         3.2305  -23.4705  -46.2639 C.3       23 UNK        -0.0398 
     18 CA          1.8600  -24.0849  -45.8766 C.3       11 UNK         0.1400 
     19 N           1.1623  -23.3204  -44.8383 N.am      11 UNK        -0.5000 
     20 C           0.3532  -23.8609  -43.9182 C.2       10 UNK         0.5000 
     21 O           0.1060  -25.0652  -43.8482 O.2       10 UNK        -0.5000 
     22 CA         -0.2954  -22.8948  -42.9096 C.3       10 UNK         0.1400 
     23 CB          0.7200  -22.4546  -41.8437 C.3       10 UNK        -0.1800 
     24 N          -0.8706  -21.7116  -43.5462 N.am      10 UNK        -0.5000 
     25 C          -1.9358  -21.7284  -44.3592 C.2       9 UNK         0.5000 
     26 O          -2.5611  -22.7478  -44.6450 O.2       9 UNK        -0.5000 
     27 CA         -2.3675  -20.3876  -44.9830 C.3       9 UNK         0.1400 
     28 CB         -3.4828  -19.7395  -44.1501 C.3       9 UNK        -0.1800 
     29 N          -1.2816  -19.4222  -45.1765 N.am      9 UNK        -0.5000 
     30 C          -0.1795  -19.6526  -45.9047 C.2       8 UNK         0.5000 
     31 O           0.0827  -20.7397  -46.4117 O.2       8 UNK        -0.5000 
     32 CA          0.8001  -18.4854  -46.0810 C.3       8 UNK         0.1400 
     33 CB          0.3076  -17.5494  -47.1946 C.3       8 UNK        -0.1800 
     34 N           1.0239  -17.7385  -44.8418 N.am      8 UNK        -0.5000 
     35 C           1.6010  -18.2430  -43.7419 C.2       7 UNK         0.5000 
     36 O           2.0066  -19.4024  -43.6562 O.2       7 UNK        -0.5000 
     37 CA          1.7100  -17.3260  -42.5074 C.3       7 UNK         0.1400 
     38 CB          2.9332  -16.3913  -42.6039 C.3       7 UNK        -0.1800 
     39 N           0.4667  -16.6012  -42.2078 N.am      7 UNK        -0.5000 
     40 C          -0.0756  -15.5791  -42.8794 C.2       6 UNK         0.5000 
     41 O           0.4712  -15.0063  -43.8231 O.2       6 UNK        -0.5000 
     42 CA         -1.4855  -15.1426  -42.4428 C.3       6 UNK         0.1400 
     43 CB         -1.3996  -13.9668  -41.4584 C.3       6 UNK        -0.1800 
     44 N          -2.3059  -14.7421  -43.5859 N.am      6 UNK        -0.5000 
     45 C          -2.5878  -15.5041  -44.6540 C.2       5 UNK         0.5000 
     46 O          -2.2766  -16.6927  -44.7464 O.2       5 UNK        -0.5000 
     47 CA         -3.3335  -14.8204  -45.8190 C.3       5 UNK         0.1400 
     48 CB         -4.8175  -15.2178  -45.8151 C.3       5 UNK        -0.1800 
     49 N          -3.2279  -13.3563  -45.7972 N.am      5 UNK        -0.5000 
     50 C          -2.1092  -12.6781  -46.0851 C.2       4 UNK         0.5000 
     51 O          -1.0629  -13.2094  -46.4607 O.2       4 UNK        -0.5000 
     52 CA         -2.1562  -11.1579  -45.8796 C.3       4 UNK         0.1400 
     53 CB         -2.1751  -10.8108  -44.3777 C.3       4 UNK        -0.1800 
     54 N          -0.9800  -10.5706  -46.5114 N.am      4 UNK        -0.5000 
     55 C          -0.8247   -9.2883  -46.8579 C.2       3 UNK         0.5000 
     56 O          -1.6853   -8.4261  -46.6761 O.2       3 UNK        -0.5000 
     57 CA          0.5137   -8.8898  -47.5111 C.3       3 UNK         0.1400 
     58 CB          1.3945   -8.1209  -46.5135 C.3       3 UNK        -0.1800 
     59 N           1.2717  -10.0352  -48.0193 N.am      3 UNK        -0.5000 
     60 C           1.0582  -10.6210  -49.2075 C.2       2 UNK         0.5000 
     61 O           0.1932  -10.2523  -50.0023 O.2       2 UNK        -0.5000 
     62 CA          1.9506  -11.8211  -49.5677 C.3       2 UNK         0.1400 
     63 CB          3.2085  -11.3501  -50.3135 C.3       2 UNK        -0.1800 
     64 N           2.3551  -12.5441  -48.3648 N.am      2 UNK        -0.5000 
     65 C           1.8765  -13.7269  -47.9708 C.2       1 UNK         0.5000 
     66 O           1.1208  -14.4175  -48.6539 O.2       1 UNK        -0.5000 
     67 C           0.9580  -24.3238  -47.1020 C.2       11 UNK         0.5000 
     68 O           0.9781  -25.4182  -47.6664 O.2       11 UNK        -0.5000 
     69 N           0.1540  -23.3202  -47.4788 N.am      12 UNK        -0.5000 
     70 CA         -0.7429  -23.3620  -48.6329 C.3       12 UNK         0.1400 
     71 CB         -1.2604  -21.9495  -48.9252 C.3       12 UNK        -0.1800 
     72 C          -1.9173  -24.3414  -48.4692 C.2       12 UNK         0.5000 
     73 O          -2.5054  -24.7382  -49.4755 O.2       12 UNK        -0.5000 
     74 N          -2.2461  -24.7305  -47.2294 N.am      13 UNK        -0.5000 
     75 CA         -3.2297  -25.7723  -46.9260 C.3       13 UNK         0.1400 
     76 CB         -3.4981  -25.8140  -45.4152 C.3       13 UNK        -0.1800 
     77 C          -2.8051  -27.1621  -47.4363 C.2       13 UNK         0.5000 
     78 O          -3.6611  -27.9232  -47.8857 O.2       13 UNK        -0.5000 
     79 N          -1.4948  -27.4517  -47.4133 N.am      14 UNK        -0.5000 
     80 CA         -0.9163  -28.6893  -47.9467 C.3       14 UNK         0.1400 
     81 CB          0.5169  -28.8544  -47.4196 C.3       14 UNK        -0.1800 
     82 C          -0.9406  -28.7342  -49.4870 C.2       14 UNK         0.5000 
     83 O          -1.0373  -29.8173  -50.0642 O.2       14 UNK        -0.5000 
     84 N          -0.8896  -27.5540  -50.1195 N.am      15 UNK        -0.5000 
     85 CA         -1.0476  -27.3626  -51.5625 C.3       15 UNK         0.1400 
     86 CB         -0.3241  -26.0659  -51.9637 C.3       15 UNK        -0.1800 
     87 C          -2.5271  -27.3130  -52.0020 C.2       15 UNK         0.5000 
     88 O          -2.7925  -27.2772  -53.2037 O.2       15 UNK        -0.5000 
     89 N          -3.4534  -27.2796  -51.0300 N.am      16 UNK        -0.5000 
     90 CA         -4.9061  -27.1156  -51.1650 C.3       16 UNK         0.1400 
     91 CB         -5.5306  -28.2893  -51.9476 C.3       16 UNK        -0.1800 
     92 C          -5.3256  -25.7342  -51.7167 C.2       16 UNK         0.5000 
     93 O          -6.4448  -25.5854  -52.2098 O.2       16 UNK        -0.5000 
     94 N          -4.4310  -24.7440  -51.6064 N.am      17 UNK        -0.5000 
     95 CA         -4.6528  -23.3572  -52.0102 C.3       17 UNK         0.1400 
     96 CB         -3.3331  -22.7812  -52.5474 C.3       17 UNK        -0.1800 
     97 C          -5.1766  -22.4984  -50.8473 C.2       17 UNK         0.5000 
     98 O          -5.8781  -21.5142  -51.0909 O.2       17 UNK        -0.5000 
     99 N          -4.7958  -22.8679  -49.6125 N.am      18 UNK        -0.5000 
    100 CA        -5.2124  -22.3059  -48.3167 C.3       18 UNK         0.1400 
    101 CB        -6.6847  -22.6739  -48.0469 C.3       18 UNK        -0.1800 
    102 C         -4.9573  -20.7907  -48.1390 C.2       18 UNK         0.5000 
    103 O         -5.5633  -20.1710  -47.2656 O.2       18 UNK        -0.5000 
    104 N         -4.0925  -20.2215  -48.9926 N.am      19 UNK        -0.5000 
    105 CA        -3.8065  -18.7935  -49.1859 C.3       19 UNK         0.1400 
    106 CB        -3.2265  -18.1526  -47.9149 C.3       19 UNK        -0.1800 
    107 C         -4.9872  -17.9876  -49.7680 C.2       19 UNK         0.5000 
    108 O         -4.8838  -16.7678  -49.8976 O.2       19 UNK        -0.5000 
    109 N         -6.0667  -18.6782  -50.1551 N.am      20 UNK        -0.5000 
    110 CA        -7.2107  -18.1153  -50.8608 C.3       20 UNK         0.1400 
    111 CB        -8.4618  -18.9505  -50.5462 C.3       20 UNK        -0.1800 
    112 C         -6.9317  -18.0876  -52.3698 C.2       20 UNK         0.5000 
    113 O         -7.1728  -17.0673  -53.0154 O.2       20 UNK        -0.5000 
    114 N         -6.4025  -19.2013  -52.8971 N.am      21 UNK        -0.5000 
    115 CA        -6.0568  -19.3452  -54.3101 C.3       21 UNK         0.1400 
    116 CB        -6.0910  -20.8309  -54.6963 C.3       21 UNK        -0.1800 
    117 C         -4.6880  -18.7294  -54.6493 C.2       21 UNK         0.5000 
    118 O         -4.5317  -18.2018  -55.7512 O.2       21 UNK        -0.5000 
    119 N         -3.7269  -18.8109  -53.7153 N.am      22 UNK        -0.5000 
    120 CA        -2.3512  -18.3097  -53.9006 C.3       22 UNK         0.1400 
    121 C         -2.1089  -16.8625  -53.3796 C.2       22 UNK         0.5000 
    122 N         -3.0807  -16.2083  -52.7555 N.am      22 UNK        -0.7600 
    123 O         -1.0299  -16.3105  -53.5751 O.2       22 UNK        -0.5000 
    124 C124       -1.2821  -19.3492  -53.4513 C.3       23 UNK        -0.0398 
    125 S125       -0.7499  -19.3309  -51.6948 S.3       23 UNK        -0.2404 
    126 C126        0.9831  -18.8014  -51.9207 C.3       23 UNK        -0.0205 
    127 H127        1.2549  -12.1217  -43.3575 H         1 UNK         0.0600 
    128 H128        1.1412  -10.5936  -44.2332 H         1 UNK         0.0600 
    129 H129        2.6238  -11.0068  -43.3646 H         1 UNK         0.0600 
    130 H130        1.3116  -13.7469  -44.8246 H         1 UNK         0.3000 
    131 H131        1.6939  -15.0807  -46.3558 H         1 UNK         0.0600 
    132 H132        4.4232  -14.1584  -47.2860 H         1 UNK         0.0800 
    133 H133        4.2547  -14.4440  -45.5842 H         1 UNK         0.0800 
    134 H134        3.7298  -15.7632  -49.0556 H         1 UNK         0.0800 
    135 H135        5.1708  -16.7206  -48.8224 H         1 UNK         0.0800 
    136 H136        2.2840  -16.8107  -50.5834 H         1 UNK         0.1150 
    137 H137        1.6257  -21.0430  -50.5117 H         1 UNK         0.1150 
    138 H138        4.3791  -19.2527  -47.7555 H         1 UNK         0.1150 
    139 H139        2.6026  -22.4064  -48.8488 H         1 UNK         0.0800 
    140 H140        4.2989  -21.9839  -48.7513 H         1 UNK         0.0800 
    141 H141        3.9205  -23.6057  -45.4301 H         1 UNK         0.0800 
    142 H142        3.6806  -24.0121  -47.0980 H         1 UNK         0.0800 
    143 H143        2.0805  -25.0760  -45.4734 H         1 UNK         0.0600 
    144 H144        1.2816  -22.3161  -44.8692 H         1 UNK         0.3000 
    145 H145       -1.1021  -23.4323  -42.4066 H         1 UNK         0.0600 
    146 H146        0.2467  -21.8383  -41.0792 H         1 UNK         0.0600 
    147 H147        1.1566  -23.3181  -41.3402 H         1 UNK         0.0600 
    148 H148        1.5385  -21.8791  -42.2783 H         1 UNK         0.0600 
    149 H149       -0.3914  -20.8344  -43.4031 H         1 UNK         0.3000 
    150 H150       -2.7752  -20.6161  -45.9688 H         1 UNK         0.0600 
    151 H151       -4.2988  -20.4413  -43.9725 H         1 UNK         0.0600 
    152 H152       -3.9086  -18.8791  -44.6662 H         1 UNK         0.0600 
    153 H153       -3.1164  -19.4032  -43.1797 H         1 UNK         0.0600 
    154 H154       -1.4550  -18.4768  -44.8458 H         1 UNK         0.3000 
    155 H155        1.7560  -18.9087  -46.3944 H         1 UNK         0.0600 
    156 H156       -0.0038  -18.1149  -48.0744 H         1 UNK         0.0600 
    157 H157        1.1002  -16.8849  -47.5269 H         1 UNK         0.0600 
    158 H158       -0.5365  -16.9380  -46.8753 H         1 UNK         0.0600 
    159 H159        0.7034  -16.7774  -44.8108 H         1 UNK         0.3000 
    160 H160        1.8749  -17.9787  -41.6486 H         1 UNK         0.0600 
    161 H161        2.9072  -15.7652  -43.4961 H         1 UNK         0.0600 
    162 H162        3.8557  -16.9710  -42.6501 H         1 UNK         0.0600 
    163 H163        3.0020  -15.7375  -41.7347 H         1 UNK         0.0600 
    164 H164       -0.0741  -17.0005  -41.4532 H         1 UNK         0.3000 
    165 H165       -1.9831  -15.9823  -41.9535 H         1 UNK         0.0600 
    166 H166       -2.3889  -13.6683  -41.1111 H         1 UNK         0.0600 
    167 H167       -0.8145  -14.2354  -40.5779 H         1 UNK         0.0600 
    168 H168       -0.9260  -13.0957  -41.9135 H         1 UNK         0.0600 
    169 H169       -2.5887  -13.7755  -43.6148 H         1 UNK         0.3000 
    170 H170       -2.8842  -15.1819  -46.7458 H         1 UNK         0.0600 
    171 H171       -4.9340  -16.3021  -45.8249 H         1 UNK         0.0600 
    172 H172       -5.3328  -14.8425  -44.9302 H         1 UNK         0.0600 
    173 H173       -5.3310  -14.8306  -46.6954 H         1 UNK         0.0600 
    174 H174       -4.0513  -12.8499  -45.5043 H         1 UNK         0.3000 
    175 H175       -3.0552  -10.7711  -46.3638 H         1 UNK         0.0600 
    176 H176       -1.3034  -11.2149  -43.8619 H         1 UNK         0.0600 
    177 H177       -2.1869   -9.7328  -44.2169 H         1 UNK         0.0600 
    178 H178       -3.0622  -11.2151  -43.8893 H         1 UNK         0.0600 
    179 H179       -0.2647  -11.2461  -46.7499 H         1 UNK         0.3000 
    180 H180        0.2834   -8.2188  -48.3414 H         1 UNK         0.0600 
    181 H181        1.6823   -8.7413  -45.6649 H         1 UNK         0.0600 
    182 H182        0.8718   -7.2480  -46.1202 H         1 UNK         0.0600 
    183 H183        2.3074   -7.7633  -46.9901 H         1 UNK         0.0600 
    184 H184        1.9986  -10.3949  -47.4133 H         1 UNK         0.3000 
    185 H185        1.3811  -12.4718  -50.2346 H         1 UNK         0.0600 
    186 H186        2.9438  -10.8076  -51.2220 H         1 UNK         0.0600 
    187 H187        3.8181  -10.6863  -49.6990 H         1 UNK         0.0600 
    188 H188        3.8290  -12.1962  -50.6092 H         1 UNK         0.0600 
    189 H189        2.9343  -12.0425  -47.6966 H         1 UNK         0.3000 
    190 H190        0.1995  -22.4305  -46.9814 H         1 UNK         0.3000 
    191 H191       -0.1620  -23.6935  -49.4957 H         1 UNK         0.0600 
    192 H192       -0.4386  -21.2522  -49.0865 H         1 UNK         0.0600 
    193 H193       -1.8762  -21.9312  -49.8229 H         1 UNK         0.0600 
    194 H194       -1.8585  -21.5692  -48.0978 H         1 UNK         0.0600 
    195 H195       -1.7580  -24.3212  -46.4442 H         1 UNK         0.3000 
    196 H196       -4.1641  -25.5124  -47.4281 H         1 UNK         0.0600 
    197 H197       -4.1596  -26.6414  -45.1549 H         1 UNK         0.0600 
    198 H198       -3.9858  -24.8996  -45.0792 H         1 UNK         0.0600 
    199 H199       -2.5767  -25.9353  -44.8441 H         1 UNK         0.0600 
    200 H200       -0.8425  -26.7592  -47.0689 H         1 UNK         0.3000 
    201 H201       -1.5100  -29.5297  -47.5806 H         1 UNK         0.0600 
    202 H202        0.5425  -28.8378  -46.3299 H         1 UNK         0.0600 
    203 H203        1.1758  -28.0659  -47.7838 H         1 UNK         0.0600 
    204 H204        0.9409  -29.8068  -47.7403 H         1 UNK         0.0600 
    205 H205       -0.8029  -26.7171  -49.5612 H         1 UNK         0.3000 
    206 H206       -0.5747  -28.1946  -52.0883 H         1 UNK         0.0600 
    207 H207        0.7241  -26.0891  -51.6653 H         1 UNK         0.0600 
    208 H208       -0.3496  -25.9229  -53.0447 H         1 UNK         0.0600 
    209 H209       -0.7834  -25.1879  -51.5094 H         1 UNK         0.0600 
    210 H210       -3.1203  -27.3169  -50.0763 H         1 UNK         0.3000 
    211 H211       -5.3014  -27.1574  -50.1491 H         1 UNK         0.0600 
    212 H212       -5.2549  -28.2680  -53.0021 H         1 UNK         0.0600 
    213 H213       -6.6195  -28.2581  -51.8962 H         1 UNK         0.0600 
    214 H214       -5.2159  -29.2486  -51.5366 H         1 UNK         0.0600 
    215 H215       -3.5574  -24.9447  -51.1309 H         1 UNK         0.3000 
    216 H216       -5.3962  -23.3191  -52.8086 H         1 UNK         0.0600 
    217 H217       -3.4204  -21.7152  -52.7567 H         1 UNK         0.0600 
    218 H218       -3.0448  -23.2726  -53.4768 H         1 UNK         0.0600 
    219 H219       -2.5145  -22.9113  -51.8399 H         1 UNK         0.0600 
    220 H220       -4.1734  -23.6666  -49.5534 H         1 UNK         0.3000 
    221 H221       -4.6033  -22.7997  -47.5582 H         1 UNK         0.0600 
    222 H222       -7.3584  -22.1693  -48.7404 H         1 UNK         0.0600 
    223 H223       -6.8461  -23.7475  -48.1445 H         1 UNK         0.0600 
    224 H224       -6.9841  -22.3948  -47.0360 H         1 UNK         0.0600 
    225 H225       -3.6712  -20.8330  -49.6753 H         1 UNK         0.3000 
    226 H226       -3.0277  -18.7501  -49.9466 H         1 UNK         0.0600 
    227 H227       -2.3654  -18.7169  -47.5687 H         1 UNK         0.0600 
    228 H228       -2.8868  -17.1357  -48.1101 H         1 UNK         0.0600 
    229 H229       -3.9524  -18.1085  -47.1040 H         1 UNK         0.0600 
    230 H230       -6.0496  -19.6866  -50.0630 H         1 UNK         0.3000 
    231 H231       -7.3873  -17.0923  -50.5214 H         1 UNK         0.0600 
    232 H232       -8.3438  -19.9912  -50.8514 H         1 UNK         0.0600 
    233 H233       -9.3362  -18.5527  -51.0625 H         1 UNK         0.0600 
    234 H234       -8.6811  -18.9401  -49.4784 H         1 UNK         0.0600 
    235 H235       -6.2518  -20.0074  -52.2980 H         1 UNK         0.3000 
    236 H236       -6.8114  -18.8318  -54.9104 H         1 UNK         0.0600 
    237 H237       -7.0532  -21.2823  -54.4539 H         1 UNK         0.0600 
    238 H238       -5.9325  -20.9570  -55.7680 H         1 UNK         0.0600 
    239 H239       -5.3149  -21.3967  -54.1850 H         1 UNK         0.0600 
    240 H240       -3.9393  -19.2354  -52.8263 H         1 UNK         0.3000 
    241 H241       -2.1924  -18.2109  -54.9762 H         1 UNK         0.0600 
    242 H242       -2.9116  -15.2702  -52.4296 H         1 UNK         0.3800 
    243 H243       -3.9808  -16.6332  -52.6045 H         1 UNK         0.3800 
    244 H244       -1.6232  -20.3574  -53.6875 H         1 UNK         0.0800 
    245 H245       -0.3998  -19.2130  -54.0779 H         1 UNK         0.0800 
    246 H246        0.9868  -17.7775  -52.2977 H         1 UNK         0.0800 
    247 H247        1.4464  -19.4135  -52.6958 H         1 UNK         0.0800 
@<TRIPOS>BOND
     1    1    2 1    
     2    1  127 1    
     3    1  128 1    
     4    1  129 1    
     5    2    3 2    
     6    2    4 am   BACKBONE|DICT|INTERRES
     7    4    5 1    
     8    4  130 1    
     9    5    6 1    
    10    5   65 1    
    11    5  131 1    
    12    6    7 1    
    13    6  132 1    
    14    6  133 1    
    15    7    8 1    
    16    8    9 1    
    17    8  134 1    
    18    8  135 1    
    19    9   10 ar   
    20    9   14 ar   
    21   10   11 ar   
    22   10  136 1    
    23   11   12 ar   
    24   11  126 1    
    25   12   13 ar   
    26   12  137 1    
    27   13   14 ar   
    28   13   15 1    
    29   14  138 1    
    30   15   16 1    
    31   15  139 1    
    32   15  140 1    
    33   16   17 1    
    34   17   18 1    
    35   17  141 1    
    36   17  142 1    
    37   18   19 1    
    38   18   67 1    
    39   18  143 1    
    40   19   20 am   BACKBONE|DICT|INTERRES
    41   19  144 1    
    42   20   21 2    
    43   20   22 1    
    44   22   23 1    
    45   22   24 1    
    46   22  145 1    
    47   23  146 1    
    48   23  147 1    
    49   23  148 1    
    50   24   25 am   BACKBONE|DICT|INTERRES
    51   24  149 1    
    52   25   26 2    
    53   25   27 1    
    54   27   28 1    
    55   27   29 1    
    56   27  150 1    
    57   28  151 1    
    58   28  152 1    
    59   28  153 1    
    60   29   30 am   BACKBONE|DICT|INTERRES
    61   29  154 1    
    62   30   31 2    
    63   30   32 1    
    64   32   33 1    
    65   32   34 1    
    66   32  155 1    
    67   33  156 1    
    68   33  157 1    
    69   33  158 1    
    70   34   35 am   BACKBONE|DICT|INTERRES
    71   34  159 1    
    72   35   36 2    
    73   35   37 1    
    74   37   38 1    
    75   37   39 1    
    76   37  160 1    
    77   38  161 1    
    78   38  162 1    
    79   38  163 1    
    80   39   40 am   BACKBONE|DICT|INTERRES
    81   39  164 1    
    82   40   41 2    
    83   40   42 1    
    84   42   43 1    
    85   42   44 1    
    86   42  165 1    
    87   43  166 1    
    88   43  167 1    
    89   43  168 1    
    90   44   45 am   BACKBONE|DICT|INTERRES
    91   44  169 1    
    92   45   46 2    
    93   45   47 1    
    94   47   48 1    
    95   47   49 1    
    96   47  170 1    
    97   48  171 1    
    98   48  172 1    
    99   48  173 1    
   100   49   50 am   BACKBONE|DICT|INTERRES
   101   49  174 1    
   102   50   51 2    
   103   50   52 1    
   104   52   53 1    
   105   52   54 1    
   106   52  175 1    
   107   53  176 1    
   108   53  177 1    
   109   53  178 1    
   110   54   55 am   BACKBONE|DICT|INTERRES
   111   54  179 1    
   112   55   56 2    
   113   55   57 1    
   114   57   58 1    
   115   57   59 1    
   116   57  180 1    
   117   58  181 1    
   118   58  182 1    
   119   58  183 1    
   120   59   60 am   BACKBONE|DICT|INTERRES
   121   59  184 1    
   122   60   61 2    
   123   60   62 1    
   124   62   63 1    
   125   62   64 1    
   126   62  185 1    
   127   63  186 1    
   128   63  187 1    
   129   63  188 1    
   130   64   65 am   BACKBONE|DICT|INTERRES
   131   64  189 1    
   132   65   66 2    
   133   67   68 2    
   134   67   69 am   BACKBONE|DICT|INTERRES
   135   69   70 1    
   136   69  190 1    
   137   70   71 1    
   138   70   72 1    
   139   70  191 1    
   140   71  192 1    
   141   71  193 1    
   142   71  194 1    
   143   72   73 2    
   144   72   74 am   BACKBONE|DICT|INTERRES
   145   74   75 1    
   146   74  195 1    
   147   75   76 1    
   148   75   77 1    
   149   75  196 1    
   150   76  197 1    
   151   76  198 1    
   152   76  199 1    
   153   77   78 2    
   154   77   79 am   BACKBONE|DICT|INTERRES
   155   79   80 1    
   156   79  200 1    
   157   80   81 1    
   158   80   82 1    
   159   80  201 1    
   160   81  202 1    
   161   81  203 1    
   162   81  204 1    
   163   82   83 2    
   164   82   84 am   BACKBONE|DICT|INTERRES
   165   84   85 1    
   166   84  205 1    
   167   85   86 1    
   168   85   87 1    
   169   85  206 1    
   170   86  207 1    
   171   86  208 1    
   172   86  209 1    
   173   87   88 2    
   174   87   89 am   BACKBONE|DICT|INTERRES
   175   89   90 1    
   176   89  210 1    
   177   90   91 1    
   178   90   92 1    
   179   90  211 1    
   180   91  212 1    
   181   91  213 1    
   182   91  214 1    
   183   92   93 2    
   184   92   94 am   BACKBONE|DICT|INTERRES
   185   94   95 1    
   186   94  215 1    
   187   95   96 1    
   188   95   97 1    
   189   95  216 1    
   190   96  217 1    
   191   96  218 1    
   192   96  219 1    
   193   97   98 2    
   194   97   99 am   BACKBONE|DICT|INTERRES
   195   99  100 1    
   196   99  220 1    
   197  100  101 1    
   198  100  102 1    
   199  100  221 1    
   200  101  222 1    
   201  101  223 1    
   202  101  224 1    
   203  102  103 2    
   204  102  104 am   BACKBONE|DICT|INTERRES
   205  104  105 1    
   206  104  225 1    
   207  105  106 1    
   208  105  107 1    
   209  105  226 1    
   210  106  227 1    
   211  106  228 1    
   212  106  229 1    
   213  107  108 2    
   214  107  109 am   BACKBONE|DICT|INTERRES
   215  109  110 1    
   216  109  230 1    
   217  110  111 1    
   218  110  112 1    
   219  110  231 1    
   220  111  232 1    
   221  111  233 1    
   222  111  234 1    
   223  112  113 2    
   224  112  114 am   BACKBONE|DICT|INTERRES
   225  114  115 1    
   226  114  235 1    
   227  115  116 1    
   228  115  117 1    
   229  115  236 1    
   230  116  237 1    
   231  116  238 1    
   232  116  239 1    
   233  117  118 2    
   234  117  119 am   BACKBONE|DICT|INTERRES
   235  119  120 1    
   236  119  240 1    
   237  120  121 1    
   238  120  124 1    
   239  120  241 1    
   240  121  122 am   BACKBONE|DICT|INTERRES
   241  121  123 2    
   242  122  242 1    
   243  122  243 1    
   244  124  125 1    
   245  124  244 1    
   246  124  245 1    
   247  125  126 1    
   248  126  246 1    
   249  126  247 1    
@<TRIPOS>SUBSTRUCTURE
     1 UNK         1 GROUP             0       ****    0 ROOT    
