@<TRIPOS>MOLECULE
3R540
247   249    1
SMALL
USER_CHARGES


@<TRIPOS>ATOM
      1 CA         -2.6130  -19.5170  -41.3021 C.3       0 UNK        -0.1800 
      2 C          -3.2391  -18.1528  -41.5591 C.2       0 UNK         0.5000 
      3 O          -3.4163  -17.3807  -40.6173 O.2       0 UNK        -0.5000 
      4 N          -3.5792  -17.8519  -42.8210 N.am      1 UNK        -0.5000 
      5 CA         -4.1831  -16.5788  -43.2417 C.3       1 UNK         0.1400 
      6 C6         -4.7966  -16.6653  -44.6629 C.3       23 UNK        -0.0398 
      7 S7         -3.5904  -17.0952  -45.9652 S.3       23 UNK        -0.2404 
      8 C8         -4.6944  -17.3946  -47.3750 C.3       23 UNK        -0.0205 
      9 C9         -3.9125  -17.8124  -48.6111 C.ar      23 UNK        -0.0193 
     10 C10        -3.3694  -16.8440  -49.4603 C.ar      23 UNK        -0.1150 
     11 C11        -2.6684  -17.2197  -50.6093 C.ar      23 UNK        -0.0193 
     12 C12        -2.5284  -18.5752  -50.9163 C.ar      23 UNK        -0.1150 
     13 C13        -3.0668  -19.5542  -50.0775 C.ar      23 UNK        -0.0193 
     14 C14        -3.7510  -19.1662  -48.9210 C.ar      23 UNK        -0.1150 
     15 C15        -2.9321  -21.0302  -50.4291 C.3       23 UNK        -0.0205 
     16 S16        -1.2061  -21.5522  -50.7198 S.3       23 UNK        -0.2404 
     17 C17        -0.4104  -21.1358  -49.1362 C.3       23 UNK        -0.0398 
     18 CA         -0.2927  -22.3196  -48.1460 C.3       11 UNK         0.1400 
     19 N           0.7038  -22.0285  -47.1087 N.am      11 UNK        -0.5000 
     20 C           1.1063  -22.8776  -46.1531 C.2       10 UNK         0.5000 
     21 O           0.7147  -24.0393  -46.0615 O.2       10 UNK        -0.5000 
     22 CA          2.0813  -22.3268  -45.0967 C.3       10 UNK         0.1400 
     23 CB          3.5218  -22.3438  -45.6287 C.3       10 UNK        -0.1800 
     24 N           1.7336  -20.9762  -44.6516 N.am      10 UNK        -0.5000 
     25 C           0.6086  -20.6565  -43.9947 C.2       9 UNK         0.5000 
     26 O          -0.2386  -21.4778  -43.6486 O.2       9 UNK        -0.5000 
     27 CA          0.3446  -19.1593  -43.7468 C.3       9 UNK         0.1400 
     28 CB          1.1463  -18.6379  -42.5471 C.3       9 UNK        -0.1800 
     29 N           0.6204  -18.3401  -44.9263 N.am      9 UNK        -0.5000 
     30 C          -0.0088  -18.4894  -46.1013 C.2       8 UNK         0.5000 
     31 O          -0.9187  -19.2947  -46.2905 O.2       8 UNK        -0.5000 
     32 CA          0.4967  -17.6330  -47.2693 C.3       8 UNK         0.1400 
     33 CB         -0.1168  -16.2344  -47.2178 C.3       8 UNK        -0.1800 
     34 N           1.9536  -17.5195  -47.2698 N.am      8 UNK        -0.5000 
     35 C           2.7804  -18.5164  -47.6085 C.2       7 UNK         0.5000 
     36 O           2.3984  -19.6273  -47.9755 O.2       7 UNK        -0.5000 
     37 CA          4.2857  -18.2327  -47.4682 C.3       7 UNK         0.1400 
     38 CB          4.7931  -17.3947  -48.6506 C.3       7 UNK        -0.1800 
     39 N           4.6126  -17.5536  -46.2134 N.am      7 UNK        -0.5000 
     40 C           4.4569  -18.0994  -44.9991 C.2       6 UNK         0.5000 
     41 O           4.0291  -19.2372  -44.8123 O.2       6 UNK        -0.5000 
     42 CA          4.8032  -17.2230  -43.7821 C.3       6 UNK         0.1400 
     43 CB          6.2815  -17.3960  -43.4033 C.3       6 UNK        -0.1800 
     44 N           4.5154  -15.7972  -43.9508 N.am      6 UNK        -0.5000 
     45 C           3.3295  -15.2625  -44.2721 C.2       5 UNK         0.5000 
     46 O           2.3315  -15.9320  -44.5542 O.2       5 UNK        -0.5000 
     47 CA          3.2313  -13.7210  -44.2681 C.3       5 UNK         0.1400 
     48 CB          4.5906  -12.9951  -44.1473 C.3       5 UNK        -0.1800 
     49 N           2.4824  -13.2112  -45.4177 N.am      5 UNK        -0.5000 
     50 C           2.7686  -13.3917  -46.7164 C.2       4 UNK         0.5000 
     51 O           3.7365  -14.0364  -47.1235 O.2       4 UNK        -0.5000 
     52 CA          1.7685  -12.7746  -47.7102 C.3       4 UNK         0.1400 
     53 CB          1.9472  -13.2921  -49.1487 C.3       4 UNK        -0.1800 
     54 N           0.4164  -13.0654  -47.2432 N.am      4 UNK        -0.5000 
     55 C          -0.5988  -12.2023  -47.1501 C.2       3 UNK         0.5000 
     56 O          -0.5587  -11.0410  -47.5574 O.2       3 UNK        -0.5000 
     57 CA         -1.8683  -12.7266  -46.4458 C.3       3 UNK         0.1400 
     58 CB         -2.8329  -13.3322  -47.4765 C.3       3 UNK        -0.1800 
     59 N          -1.6157  -13.7248  -45.3968 N.am      3 UNK        -0.5000 
     60 C          -0.8617  -13.5463  -44.3000 C.2       2 UNK         0.5000 
     61 O          -0.2140  -12.5207  -44.0840 O.2       2 UNK        -0.5000 
     62 CA         -0.7812  -14.7231  -43.3005 C.3       2 UNK         0.1400 
     63 CB         -0.5310  -14.2589  -41.8518 C.3       2 UNK        -0.1800 
     64 N          -1.9146  -15.6519  -43.3588 N.am      2 UNK        -0.5000 
     65 C          -3.2088  -15.3854  -43.1196 C.2       1 UNK         0.5000 
     66 O          -3.6447  -14.2725  -42.8235 O.2       1 UNK        -0.5000 
     67 C          -1.6615  -22.6972  -47.5361 C.2       11 UNK         0.5000 
     68 O          -2.2498  -23.7134  -47.9144 O.2       11 UNK        -0.5000 
     69 N          -2.1207  -21.8872  -46.5732 N.am      12 UNK        -0.5000 
     70 CA         -3.3477  -22.1095  -45.8144 C.3       12 UNK         0.1400 
     71 CB         -3.6793  -20.8462  -45.0107 C.3       12 UNK        -0.1800 
     72 C          -3.2745  -23.3505  -44.9060 C.2       12 UNK         0.5000 
     73 O          -4.2396  -24.1122  -44.8577 O.2       12 UNK        -0.5000 
     74 N          -2.1308  -23.5644  -44.2380 N.am      13 UNK        -0.5000 
     75 CA         -1.8646  -24.7380  -43.3982 C.3       13 UNK         0.1400 
     76 CB         -0.5554  -24.5364  -42.6214 C.3       13 UNK        -0.1800 
     77 C          -1.8258  -26.0574  -44.1937 C.2       13 UNK         0.5000 
     78 O          -2.2833  -27.0839  -43.6902 O.2       13 UNK        -0.5000 
     79 N          -1.3244  -25.9986  -45.4351 N.am      14 UNK        -0.5000 
     80 CA         -1.3478  -27.0922  -46.4098 C.3       14 UNK         0.1400 
     81 CB         -0.3364  -26.7865  -47.5264 C.3       14 UNK        -0.1800 
     82 C          -2.7479  -27.3577  -47.0046 C.2       14 UNK         0.5000 
     83 O          -2.9254  -28.3696  -47.6841 O.2       14 UNK        -0.5000 
     84 N          -3.7067  -26.4565  -46.7419 N.am      15 UNK        -0.5000 
     85 CA         -5.1064  -26.4799  -47.1710 C.3       15 UNK         0.1400 
     86 CB         -5.8544  -27.6781  -46.5491 C.3       15 UNK        -0.1800 
     87 C          -5.2766  -26.3806  -48.6997 C.2       15 UNK         0.5000 
     88 O          -6.2046  -26.9722  -49.2559 O.2       15 UNK        -0.5000 
     89 N          -4.3887  -25.6215  -49.3568 N.am      16 UNK        -0.5000 
     90 CA         -4.4931  -25.2947  -50.7774 C.3       16 UNK         0.1400 
     91 CB         -3.1471  -24.7501  -51.2705 C.3       16 UNK        -0.1800 
     92 C          -5.6311  -24.2840  -51.0137 C.2       16 UNK         0.5000 
     93 O          -5.7492  -23.3108  -50.2651 O.2       16 UNK        -0.5000 
     94 N          -6.4600  -24.5491  -52.0292 N.am      17 UNK        -0.5000 
     95 CA         -7.6215  -23.7337  -52.3787 C.3       17 UNK         0.1400 
     96 CB         -8.5835  -24.5786  -53.2290 C.3       17 UNK        -0.1800 
     97 C          -7.2192  -22.4555  -53.1344 C.2       17 UNK         0.5000 
     98 O          -6.3021  -22.4985  -53.9583 O.2       17 UNK        -0.5000 
     99 N          -7.9612  -21.3696  -52.8710 N.am      18 UNK        -0.5000 
    100 CA        -7.8310  -20.0268  -53.4516 C.3       18 UNK         0.1400 
    101 CB        -8.0994  -20.0688  -54.9726 C.3       18 UNK        -0.1800 
    102 C         -6.4946  -19.3294  -53.1133 C.2       18 UNK         0.5000 
    103 O         -5.6835  -19.8522  -52.3464 O.2       18 UNK        -0.5000 
    104 N         -6.2882  -18.1365  -53.6859 N.am      19 UNK        -0.5000 
    105 CA        -5.0609  -17.3494  -53.5672 C.3       19 UNK         0.1400 
    106 CB        -5.3864  -15.8698  -53.8368 C.3       19 UNK        -0.1800 
    107 C         -3.9737  -17.9016  -54.5112 C.2       19 UNK         0.5000 
    108 O         -3.6267  -17.2615  -55.5058 O.2       19 UNK        -0.5000 
    109 N         -3.4904  -19.1104  -54.2036 N.am      20 UNK        -0.5000 
    110 CA        -2.5779  -19.9249  -55.0090 C.3       20 UNK         0.1400 
    111 CB        -2.6732  -21.3821  -54.5222 C.3       20 UNK        -0.1800 
    112 C         -1.1221  -19.4039  -55.0508 C.2       20 UNK         0.5000 
    113 O         -0.1943  -20.1417  -54.7156 O.2       20 UNK        -0.5000 
    114 N         -0.9530  -18.1500  -55.4944 N.am      21 UNK        -0.5000 
    115 CA         0.3091  -17.4663  -55.8044 C.3       21 UNK         0.1400 
    116 CB         0.9402  -18.0729  -57.0752 C.3       21 UNK        -0.1800 
    117 C          1.2918  -17.4082  -54.6154 C.2       21 UNK         0.5000 
    118 O          2.4669  -17.7526  -54.7584 O.2       21 UNK        -0.5000 
    119 N          0.7829  -16.9754  -53.4558 N.am      22 UNK        -0.5000 
    120 CA         1.5510  -16.8342  -52.2076 C.3       22 UNK         0.1400 
    121 C          2.5796  -15.6634  -52.1831 C.2       22 UNK         0.5000 
    122 N          2.5187  -14.7021  -53.0970 N.am      22 UNK        -0.7600 
    123 O          3.4609  -15.6402  -51.3301 O.2       22 UNK        -0.5000 
    124 C124        0.6274  -16.8259  -50.9636 C.3       23 UNK        -0.0398 
    125 S125       -0.5562  -15.4299  -50.9043 S.3       23 UNK        -0.2404 
    126 C126       -2.0961  -16.1625  -51.5401 C.3       23 UNK        -0.0205 
    127 H127       -1.5937  -19.3984  -40.9353 H         1 UNK         0.0600 
    128 H128       -2.5815  -20.1336  -42.1982 H         1 UNK         0.0600 
    129 H129       -3.1855  -20.0544  -40.5462 H         1 UNK         0.0600 
    130 H130       -3.4248  -18.5217  -43.5604 H         1 UNK         0.3000 
    131 H131       -5.0062  -16.3744  -42.5533 H         1 UNK         0.0600 
    132 H132       -5.5885  -17.4156  -44.6666 H         1 UNK         0.0800 
    133 H133       -5.2794  -15.7232  -44.9293 H         1 UNK         0.0800 
    134 H134       -5.4195  -18.1660  -47.1114 H         1 UNK         0.0800 
    135 H135       -5.2662  -16.4897  -47.5862 H         1 UNK         0.0800 
    136 H136       -3.4960  -15.7966  -49.2295 H         1 UNK         0.1150 
    137 H137       -1.9973  -18.8740  -51.8088 H         1 UNK         0.1150 
    138 H138       -4.1704  -19.9177  -48.2673 H         1 UNK         0.1150 
    139 H139       -3.3700  -21.6541  -49.6490 H         1 UNK         0.0800 
    140 H140       -3.5159  -21.2287  -51.3285 H         1 UNK         0.0800 
    141 H141       -0.9055  -20.2812  -48.6772 H         1 UNK         0.0800 
    142 H142        0.5871  -20.7854  -49.3999 H         1 UNK         0.0800 
    143 H143        0.0722  -23.1903  -48.6948 H         1 UNK         0.0600 
    144 H144        1.1121  -21.1012  -47.1286 H         1 UNK         0.3000 
    145 H145        2.0359  -22.9852  -44.2273 H         1 UNK         0.0600 
    146 H146        4.2303  -22.0509  -44.8538 H         1 UNK         0.0600 
    147 H147        3.6485  -21.6631  -46.4713 H         1 UNK         0.0600 
    148 H148        3.8032  -23.3422  -45.9658 H         1 UNK         0.0600 
    149 H149        2.4092  -20.2457  -44.8599 H         1 UNK         0.3000 
    150 H150       -0.7160  -19.0463  -43.5177 H         1 UNK         0.0600 
    151 H151        0.8884  -19.1855  -41.6400 H         1 UNK         0.0600 
    152 H152        0.9431  -17.5829  -42.3613 H         1 UNK         0.0600 
    153 H153        2.2180  -18.7528  -42.7023 H         1 UNK         0.0600 
    154 H154        1.3513  -17.6398  -44.8456 H         1 UNK         0.3000 
    155 H155        0.1795  -18.1093  -48.1991 H         1 UNK         0.0600 
    156 H156       -1.2017  -16.2829  -47.2930 H         1 UNK         0.0600 
    157 H157        0.2305  -15.6325  -48.0540 H         1 UNK         0.0600 
    158 H158        0.1393  -15.7253  -46.2898 H         1 UNK         0.0600 
    159 H159        2.3522  -16.6640  -46.9084 H         1 UNK         0.3000 
    160 H160        4.8073  -19.1921  -47.4803 H         1 UNK         0.0600 
    161 H161        4.3352  -16.4046  -48.6705 H         1 UNK         0.0600 
    162 H162        4.5639  -17.8790  -49.6008 H         1 UNK         0.0600 
    163 H163        5.8741  -17.2625  -48.6059 H         1 UNK         0.0600 
    164 H164        4.9370  -16.5991  -46.2782 H         1 UNK         0.3000 
    165 H165        4.1999  -17.5744  -42.9441 H         1 UNK         0.0600 
    166 H166        6.5173  -16.8691  -42.4786 H         1 UNK         0.0600 
    167 H167        6.5244  -18.4480  -43.2463 H         1 UNK         0.0600 
    168 H168        6.9436  -17.0192  -44.1839 H         1 UNK         0.0600 
    169 H169        5.2789  -15.1661  -43.7561 H         1 UNK         0.3000 
    170 H170        2.6416  -13.4640  -43.3872 H         1 UNK         0.0600 
    171 H171        5.2652  -13.2481  -44.9663 H         1 UNK         0.0600 
    172 H172        4.4545  -11.9135  -44.1572 H         1 UNK         0.0600 
    173 H173        5.0921  -13.2399  -43.2103 H         1 UNK         0.0600 
    174 H174        1.6353  -12.7058  -45.1839 H         1 UNK         0.3000 
    175 H175        1.9431  -11.6968  -47.7052 H         1 UNK         0.0600 
    176 H176        1.8776  -14.3786  -49.1989 H         1 UNK         0.0600 
    177 H177        1.1924  -12.8770  -49.8166 H         1 UNK         0.0600 
    178 H178        2.9230  -13.0120  -49.5468 H         1 UNK         0.0600 
    179 H179        0.2764  -13.9913  -46.8671 H         1 UNK         0.3000 
    180 H180       -2.3587  -11.8734  -45.9731 H         1 UNK         0.0600 
    181 H181       -3.7568  -13.6718  -47.0079 H         1 UNK         0.0600 
    182 H182       -2.3824  -14.1822  -47.9891 H         1 UNK         0.0600 
    183 H183       -3.1037  -12.5986  -48.2370 H         1 UNK         0.0600 
    184 H184       -2.1161  -14.5972  -45.4844 H         1 UNK         0.3000 
    185 H185        0.0846  -15.3081  -43.6034 H         1 UNK         0.0600 
    186 H186       -0.4547  -15.1095  -41.1742 H         1 UNK         0.0600 
    187 H187        0.4020  -13.6997  -41.7730 H         1 UNK         0.0600 
    188 H188       -1.3316  -13.6129  -41.4906 H         1 UNK         0.0600 
    189 H189       -1.6853  -16.6028  -43.6084 H         1 UNK         0.3000 
    190 H190       -1.5954  -21.0443  -46.3505 H         1 UNK         0.3000 
    191 H191       -4.1574  -22.2757  -46.5282 H         1 UNK         0.0600 
    192 H192       -2.8289  -20.5301  -44.4089 H         1 UNK         0.0600 
    193 H193       -4.5271  -21.0066  -44.3433 H         1 UNK         0.0600 
    194 H194       -3.9381  -20.0242  -45.6767 H         1 UNK         0.0600 
    195 H195       -1.3975  -22.8611  -44.2771 H         1 UNK         0.3000 
    196 H196       -2.6773  -24.8164  -42.6732 H         1 UNK         0.0600 
    197 H197       -0.6057  -23.6518  -41.9864 H         1 UNK         0.0600 
    198 H198        0.2953  -24.4207  -43.2927 H         1 UNK         0.0600 
    199 H199       -0.3494  -25.3894  -41.9738 H         1 UNK         0.0600 
    200 H200       -0.8902  -25.1331  -45.7430 H         1 UNK         0.3000 
    201 H201       -1.0310  -28.0075  -45.9059 H         1 UNK         0.0600 
    202 H202        0.6697  -26.6661  -47.1243 H         1 UNK         0.0600 
    203 H203       -0.5936  -25.8728  -48.0628 H         1 UNK         0.0600 
    204 H204       -0.2987  -27.5961  -48.2561 H         1 UNK         0.0600 
    205 H205       -3.4519  -25.6558  -46.1772 H         1 UNK         0.3000 
    206 H206       -5.5578  -25.5731  -46.7669 H         1 UNK         0.0600 
    207 H207       -5.7190  -27.7078  -45.4678 H         1 UNK         0.0600 
    208 H208       -6.9263  -27.6107  -46.7385 H         1 UNK         0.0600 
    209 H209       -5.5105  -28.6287  -46.9573 H         1 UNK         0.0600 
    210 H210       -3.6787  -25.1272  -48.8280 H         1 UNK         0.3000 
    211 H211       -4.7102  -26.2108  -51.3310 H         1 UNK         0.0600 
    212 H212       -3.2077  -24.4203  -52.3086 H         1 UNK         0.0600 
    213 H213       -2.8270  -23.9012  -50.6706 H         1 UNK         0.0600 
    214 H214       -2.3683  -25.5104  -51.2105 H         1 UNK         0.0600 
    215 H215       -6.2779  -25.3454  -52.6221 H         1 UNK         0.3000 
    216 H216       -8.1370  -23.4535  -51.4572 H         1 UNK         0.0600 
    217 H217       -9.4782  -24.0107  -53.4876 H         1 UNK         0.0600 
    218 H218       -8.9093  -25.4687  -52.6903 H         1 UNK         0.0600 
    219 H219       -8.1192  -24.9009  -54.1620 H         1 UNK         0.0600 
    220 H220       -8.6736  -21.4519  -52.1596 H         1 UNK         0.3000 
    221 H221       -8.6158  -19.4258  -52.9901 H         1 UNK         0.0600 
    222 H222       -7.2796  -20.5396  -55.5165 H         1 UNK         0.0600 
    223 H223       -9.0101  -20.6245  -55.1964 H         1 UNK         0.0600 
    224 H224       -8.2306  -19.0676  -55.3834 H         1 UNK         0.0600 
    225 H225       -6.9881  -17.7732  -54.3163 H         1 UNK         0.3000 
    226 H226       -4.6898  -17.4241  -52.5444 H         1 UNK         0.0600 
    227 H227       -6.1105  -15.4894  -53.1161 H         1 UNK         0.0600 
    228 H228       -4.4916  -15.2517  -53.7532 H         1 UNK         0.0600 
    229 H229       -5.7975  -15.7204  -54.8360 H         1 UNK         0.0600 
    230 H230       -3.8870  -19.5643  -53.3873 H         1 UNK         0.3000 
    231 H231       -2.9411  -19.9058  -56.0386 H         1 UNK         0.0600 
    232 H232       -2.0734  -22.0458  -55.1460 H         1 UNK         0.0600 
    233 H233       -3.7003  -21.7455  -54.5596 H         1 UNK         0.0600 
    234 H234       -2.3194  -21.4864  -53.4971 H         1 UNK         0.0600 
    235 H235       -1.8025  -17.6285  -55.6996 H         1 UNK         0.3000 
    236 H236        0.0485  -16.4319  -56.0325 H         1 UNK         0.0600 
    237 H237        1.2487  -19.1073  -56.9195 H         1 UNK         0.0600 
    238 H238        0.2398  -18.0546  -57.9102 H         1 UNK         0.0600 
    239 H239        1.8227  -17.5101  -57.3818 H         1 UNK         0.0600 
    240 H240       -0.1842  -16.6948  -53.4201 H         1 UNK         0.3000 
    241 H241        2.1595  -17.7369  -52.1210 H         1 UNK         0.0600 
    242 H242        3.1955  -13.9562  -53.0741 H         1 UNK         0.3800 
    243 H243        1.7980  -14.7045  -53.7997 H         1 UNK         0.3800 
    244 H244        1.2340  -16.7869  -50.0581 H         1 UNK         0.0800 
    245 H245        0.0902  -17.7712  -50.9022 H         1 UNK         0.0800 
    246 H246       -2.8303  -15.3660  -51.6689 H         1 UNK         0.0800 
    247 H247       -1.9234  -16.5760  -52.5336 H         1 UNK         0.0800 
@<TRIPOS>BOND
     1    1    2 1    
     2    1  127 1    
     3    1  128 1    
     4    1  129 1    
     5    2    3 2    
     6    2    4 am   BACKBONE|DICT|INTERRES
     7    4    5 1    
     8    4  130 1    
     9    5    6 1    
    10    5   65 1    
    11    5  131 1    
    12    6    7 1    
    13    6  132 1    
    14    6  133 1    
    15    7    8 1    
    16    8    9 1    
    17    8  134 1    
    18    8  135 1    
    19    9   10 ar   
    20    9   14 ar   
    21   10   11 ar   
    22   10  136 1    
    23   11   12 ar   
    24   11  126 1    
    25   12   13 ar   
    26   12  137 1    
    27   13   14 ar   
    28   13   15 1    
    29   14  138 1    
    30   15   16 1    
    31   15  139 1    
    32   15  140 1    
    33   16   17 1    
    34   17   18 1    
    35   17  141 1    
    36   17  142 1    
    37   18   19 1    
    38   18   67 1    
    39   18  143 1    
    40   19   20 am   BACKBONE|DICT|INTERRES
    41   19  144 1    
    42   20   21 2    
    43   20   22 1    
    44   22   23 1    
    45   22   24 1    
    46   22  145 1    
    47   23  146 1    
    48   23  147 1    
    49   23  148 1    
    50   24   25 am   BACKBONE|DICT|INTERRES
    51   24  149 1    
    52   25   26 2    
    53   25   27 1    
    54   27   28 1    
    55   27   29 1    
    56   27  150 1    
    57   28  151 1    
    58   28  152 1    
    59   28  153 1    
    60   29   30 am   BACKBONE|DICT|INTERRES
    61   29  154 1    
    62   30   31 2    
    63   30   32 1    
    64   32   33 1    
    65   32   34 1    
    66   32  155 1    
    67   33  156 1    
    68   33  157 1    
    69   33  158 1    
    70   34   35 am   BACKBONE|DICT|INTERRES
    71   34  159 1    
    72   35   36 2    
    73   35   37 1    
    74   37   38 1    
    75   37   39 1    
    76   37  160 1    
    77   38  161 1    
    78   38  162 1    
    79   38  163 1    
    80   39   40 am   BACKBONE|DICT|INTERRES
    81   39  164 1    
    82   40   41 2    
    83   40   42 1    
    84   42   43 1    
    85   42   44 1    
    86   42  165 1    
    87   43  166 1    
    88   43  167 1    
    89   43  168 1    
    90   44   45 am   BACKBONE|DICT|INTERRES
    91   44  169 1    
    92   45   46 2    
    93   45   47 1    
    94   47   48 1    
    95   47   49 1    
    96   47  170 1    
    97   48  171 1    
    98   48  172 1    
    99   48  173 1    
   100   49   50 am   BACKBONE|DICT|INTERRES
   101   49  174 1    
   102   50   51 2    
   103   50   52 1    
   104   52   53 1    
   105   52   54 1    
   106   52  175 1    
   107   53  176 1    
   108   53  177 1    
   109   53  178 1    
   110   54   55 am   BACKBONE|DICT|INTERRES
   111   54  179 1    
   112   55   56 2    
   113   55   57 1    
   114   57   58 1    
   115   57   59 1    
   116   57  180 1    
   117   58  181 1    
   118   58  182 1    
   119   58  183 1    
   120   59   60 am   BACKBONE|DICT|INTERRES
   121   59  184 1    
   122   60   61 2    
   123   60   62 1    
   124   62   63 1    
   125   62   64 1    
   126   62  185 1    
   127   63  186 1    
   128   63  187 1    
   129   63  188 1    
   130   64   65 am   BACKBONE|DICT|INTERRES
   131   64  189 1    
   132   65   66 2    
   133   67   68 2    
   134   67   69 am   BACKBONE|DICT|INTERRES
   135   69   70 1    
   136   69  190 1    
   137   70   71 1    
   138   70   72 1    
   139   70  191 1    
   140   71  192 1    
   141   71  193 1    
   142   71  194 1    
   143   72   73 2    
   144   72   74 am   BACKBONE|DICT|INTERRES
   145   74   75 1    
   146   74  195 1    
   147   75   76 1    
   148   75   77 1    
   149   75  196 1    
   150   76  197 1    
   151   76  198 1    
   152   76  199 1    
   153   77   78 2    
   154   77   79 am   BACKBONE|DICT|INTERRES
   155   79   80 1    
   156   79  200 1    
   157   80   81 1    
   158   80   82 1    
   159   80  201 1    
   160   81  202 1    
   161   81  203 1    
   162   81  204 1    
   163   82   83 2    
   164   82   84 am   BACKBONE|DICT|INTERRES
   165   84   85 1    
   166   84  205 1    
   167   85   86 1    
   168   85   87 1    
   169   85  206 1    
   170   86  207 1    
   171   86  208 1    
   172   86  209 1    
   173   87   88 2    
   174   87   89 am   BACKBONE|DICT|INTERRES
   175   89   90 1    
   176   89  210 1    
   177   90   91 1    
   178   90   92 1    
   179   90  211 1    
   180   91  212 1    
   181   91  213 1    
   182   91  214 1    
   183   92   93 2    
   184   92   94 am   BACKBONE|DICT|INTERRES
   185   94   95 1    
   186   94  215 1    
   187   95   96 1    
   188   95   97 1    
   189   95  216 1    
   190   96  217 1    
   191   96  218 1    
   192   96  219 1    
   193   97   98 2    
   194   97   99 am   BACKBONE|DICT|INTERRES
   195   99  100 1    
   196   99  220 1    
   197  100  101 1    
   198  100  102 1    
   199  100  221 1    
   200  101  222 1    
   201  101  223 1    
   202  101  224 1    
   203  102  103 2    
   204  102  104 am   BACKBONE|DICT|INTERRES
   205  104  105 1    
   206  104  225 1    
   207  105  106 1    
   208  105  107 1    
   209  105  226 1    
   210  106  227 1    
   211  106  228 1    
   212  106  229 1    
   213  107  108 2    
   214  107  109 am   BACKBONE|DICT|INTERRES
   215  109  110 1    
   216  109  230 1    
   217  110  111 1    
   218  110  112 1    
   219  110  231 1    
   220  111  232 1    
   221  111  233 1    
   222  111  234 1    
   223  112  113 2    
   224  112  114 am   BACKBONE|DICT|INTERRES
   225  114  115 1    
   226  114  235 1    
   227  115  116 1    
   228  115  117 1    
   229  115  236 1    
   230  116  237 1    
   231  116  238 1    
   232  116  239 1    
   233  117  118 2    
   234  117  119 am   BACKBONE|DICT|INTERRES
   235  119  120 1    
   236  119  240 1    
   237  120  121 1    
   238  120  124 1    
   239  120  241 1    
   240  121  122 am   BACKBONE|DICT|INTERRES
   241  121  123 2    
   242  122  242 1    
   243  122  243 1    
   244  124  125 1    
   245  124  244 1    
   246  124  245 1    
   247  125  126 1    
   248  126  246 1    
   249  126  247 1    
@<TRIPOS>SUBSTRUCTURE
     1 UNK         1 GROUP             0       ****    0 ROOT    
