@<TRIPOS>MOLECULE
3R540
247   249    1
SMALL
USER_CHARGES


@<TRIPOS>ATOM
      1 CA         -1.1714   -8.7776  -51.2988 C.3       0 UNK        -0.1800 
      2 C          -0.1266   -9.2549  -50.2997 C.2       0 UNK         0.5000 
      3 O           0.5802   -8.4344  -49.7135 O.2       0 UNK        -0.5000 
      4 N          -0.0213  -10.5761  -50.1104 N.am      1 UNK        -0.5000 
      5 CA          0.8718  -11.2163  -49.1415 C.3       1 UNK         0.1400 
      6 C6          1.0398  -12.7220  -49.4620 C.3       23 UNK        -0.0398 
      7 S7          2.3226  -13.5394  -48.4488 S.3       23 UNK        -0.2404 
      8 C8          3.0916  -14.6709  -49.6496 C.3       23 UNK        -0.0205 
      9 C9          2.1828  -15.8438  -49.9867 C.ar      23 UNK        -0.0193 
     10 C10         1.5052  -15.8915  -51.2087 C.ar      23 UNK        -0.1150 
     11 C11         0.6887  -16.9822  -51.5223 C.ar      23 UNK        -0.0193 
     12 C12         0.5401  -18.0190  -50.5960 C.ar      23 UNK        -0.1150 
     13 C13         1.2014  -17.9790  -49.3675 C.ar      23 UNK        -0.0193 
     14 C14         2.0309  -16.8926  -49.0752 C.ar      23 UNK        -0.1150 
     15 C15         0.9934  -19.0867  -48.3439 C.3       23 UNK        -0.0205 
     16 S16         2.1173  -20.4911  -48.6043 S.3       23 UNK        -0.2404 
     17 C17         1.0846  -21.6763  -49.5444 C.3       23 UNK        -0.0398 
     18 CA          0.4406  -22.7988  -48.6819 C.3       11 UNK         0.1400 
     19 N           1.3519  -23.3182  -47.6580 N.am      11 UNK        -0.5000 
     20 C           1.1351  -24.3899  -46.8849 C.2       10 UNK         0.5000 
     21 O           0.1395  -25.1084  -46.9687 O.2       10 UNK        -0.5000 
     22 CA          2.1944  -24.6779  -45.8039 C.3       10 UNK         0.1400 
     23 CB          3.3207  -25.5494  -46.3793 C.3       10 UNK        -0.1800 
     24 N           2.7778  -23.4774  -45.1929 N.am      10 UNK        -0.5000 
     25 C           2.0946  -22.5020  -44.5771 C.2       9 UNK         0.5000 
     26 O           0.8637  -22.4572  -44.5223 O.2       9 UNK        -0.5000 
     27 CA          2.9375  -21.3695  -43.9671 C.3       9 UNK         0.1400 
     28 CB          3.3322  -20.3544  -45.0509 C.3       9 UNK        -0.1800 
     29 N           2.2247  -20.6761  -42.8924 N.am      9 UNK        -0.5000 
     30 C           2.0943  -21.1501  -41.6448 C.2       8 UNK         0.5000 
     31 O           2.5673  -22.2294  -41.2838 O.2       8 UNK        -0.5000 
     32 CA          1.3594  -20.2804  -40.6014 C.3       8 UNK         0.1400 
     33 CB          2.3655  -19.6832  -39.6040 C.3       8 UNK        -0.1800 
     34 N           0.5821  -19.1846  -41.1806 N.am      8 UNK        -0.5000 
     35 C          -0.6714  -19.2949  -41.6388 C.2       7 UNK         0.5000 
     36 O          -1.3262  -20.3364  -41.5838 O.2       7 UNK        -0.5000 
     37 CA         -1.3128  -18.0327  -42.2604 C.3       7 UNK         0.1400 
     38 CB         -2.1758  -17.3136  -41.2131 C.3       7 UNK        -0.1800 
     39 N          -0.3953  -17.0564  -42.8647 N.am      7 UNK        -0.5000 
     40 C           0.5712  -17.3238  -43.7536 C.2       6 UNK         0.5000 
     41 O           0.8885  -18.4619  -44.0954 O.2       6 UNK        -0.5000 
     42 CA          1.2916  -16.1092  -44.3677 C.3       6 UNK         0.1400 
     43 CB          2.5676  -16.5021  -45.1362 C.3       6 UNK        -0.1800 
     44 N           0.4176  -15.3078  -45.2253 N.am      6 UNK        -0.5000 
     45 C          -0.3801  -15.7192  -46.2225 C.2       5 UNK         0.5000 
     46 O          -0.5186  -16.8883  -46.5769 O.2       5 UNK        -0.5000 
     47 CA         -1.1789  -14.6040  -46.9193 C.3       5 UNK         0.1400 
     48 CB         -2.0372  -15.0998  -48.1017 C.3       5 UNK        -0.1800 
     49 N          -1.9724  -13.8246  -45.9681 N.am      5 UNK        -0.5000 
     50 C          -2.9326  -14.2738  -45.1460 C.2       4 UNK         0.5000 
     51 O          -3.3863  -15.4190  -45.1640 O.2       4 UNK        -0.5000 
     52 CA         -3.4376  -13.2505  -44.1067 C.3       4 UNK         0.1400 
     53 CB         -4.3813  -13.8628  -43.0511 C.3       4 UNK        -0.1800 
     54 N          -2.3344  -12.5276  -43.4605 N.am      4 UNK        -0.5000 
     55 C          -1.3140  -13.0550  -42.7640 C.2       3 UNK         0.5000 
     56 O          -1.1801  -14.2576  -42.5264 O.2       3 UNK        -0.5000 
     57 CA         -0.2453  -12.0468  -42.2934 C.3       3 UNK         0.1400 
     58 CB          1.0032  -12.7254  -41.6911 C.3       3 UNK        -0.1800 
     59 N           0.1411  -11.0945  -43.3449 N.am      3 UNK        -0.5000 
     60 C           0.6681  -11.3872  -44.5437 C.2       2 UNK         0.5000 
     61 O           0.8772  -12.5351  -44.9413 O.2       2 UNK        -0.5000 
     62 CA          1.0407  -10.1787  -45.4251 C.3       2 UNK         0.1400 
     63 CB          2.2953   -9.4803  -44.8749 C.3       2 UNK        -0.1800 
     64 N           1.2906  -10.5321  -46.8234 N.am      2 UNK        -0.5000 
     65 C           0.3709  -10.9526  -47.7008 C.2       1 UNK         0.5000 
     66 O          -0.8205  -11.1175  -47.4228 O.2       1 UNK        -0.5000 
     67 C          -0.9285  -22.3728  -48.1082 C.2       11 UNK         0.5000 
     68 O          -1.9551  -22.6037  -48.7507 O.2       11 UNK        -0.5000 
     69 N          -0.9221  -21.7799  -46.9080 N.am      12 UNK        -0.5000 
     70 CA         -2.1275  -21.3787  -46.1903 C.3       12 UNK         0.1400 
     71 CB         -1.8041  -20.1941  -45.2735 C.3       12 UNK        -0.1800 
     72 C          -2.7126  -22.5485  -45.3843 C.2       12 UNK         0.5000 
     73 O          -3.9301  -22.7297  -45.3813 O.2       12 UNK        -0.5000 
     74 N          -1.8394  -23.3342  -44.7364 N.am      13 UNK        -0.5000 
     75 CA         -2.1979  -24.4750  -43.8897 C.3       13 UNK         0.1400 
     76 CB         -0.9392  -25.0219  -43.2029 C.3       13 UNK        -0.1800 
     77 C          -2.9371  -25.5992  -44.6392 C.2       13 UNK         0.5000 
     78 O          -3.7893  -26.2603  -44.0443 O.2       13 UNK        -0.5000 
     79 N          -2.6525  -25.7633  -45.9388 N.am      14 UNK        -0.5000 
     80 CA         -3.3441  -26.6623  -46.8679 C.3       14 UNK         0.1400 
     81 CB         -2.4360  -26.8940  -48.0894 C.3       14 UNK        -0.1800 
     82 C          -4.7465  -26.1445  -47.2691 C.2       14 UNK         0.5000 
     83 O          -5.0577  -26.0633  -48.4590 O.2       14 UNK        -0.5000 
     84 N          -5.5568  -25.7628  -46.2693 N.am      15 UNK        -0.5000 
     85 CA         -6.9249  -25.2289  -46.3535 C.3       15 UNK         0.1400 
     86 CB         -7.8979  -26.3540  -46.7618 C.3       15 UNK        -0.1800 
     87 C          -7.0653  -23.9814  -47.2569 C.2       15 UNK         0.5000 
     88 O          -8.1415  -23.7384  -47.8051 O.2       15 UNK        -0.5000 
     89 N          -5.9575  -23.2456  -47.4328 N.am      16 UNK        -0.5000 
     90 CA         -5.7303  -22.1560  -48.3871 C.3       16 UNK         0.1400 
     91 CB         -6.5645  -20.9168  -48.0084 C.3       16 UNK        -0.1800 
     92 C          -5.9068  -22.5497  -49.8725 C.2       16 UNK         0.5000 
     93 O          -5.9330  -21.6644  -50.7269 O.2       16 UNK        -0.5000 
     94 N          -5.9985  -23.8523  -50.1802 N.am      17 UNK        -0.5000 
     95 CA         -6.2095  -24.3688  -51.5335 C.3       17 UNK         0.1400 
     96 CB         -6.6538  -25.8370  -51.4589 C.3       17 UNK        -0.1800 
     97 C          -4.9541  -24.2200  -52.4058 C.2       17 UNK         0.5000 
     98 O          -5.0656  -23.9238  -53.5956 O.2       17 UNK        -0.5000 
     99 N          -3.7791  -24.3845  -51.7844 N.am      18 UNK        -0.5000 
    100 CA        -2.4849  -24.1197  -52.4048 C.3       18 UNK         0.1400 
    101 CB        -1.3730  -24.7661  -51.5689 C.3       18 UNK        -0.1800 
    102 C         -2.2507  -22.6122  -52.6070 C.2       18 UNK         0.5000 
    103 O         -1.7770  -22.2172  -53.6708 O.2       18 UNK        -0.5000 
    104 N         -2.6340  -21.7912  -51.6173 N.am      19 UNK        -0.5000 
    105 CA        -2.5684  -20.3281  -51.6808 C.3       19 UNK         0.1400 
    106 CB        -2.8430  -19.7277  -50.2931 C.3       19 UNK        -0.1800 
    107 C         -3.5039  -19.7043  -52.7333 C.2       19 UNK         0.5000 
    108 O         -3.1601  -18.6692  -53.3020 O.2       19 UNK        -0.5000 
    109 N         -4.6499  -20.3455  -52.9996 N.am      20 UNK        -0.5000 
    110 CA        -5.5919  -19.9481  -54.0485 C.3       20 UNK         0.1400 
    111 CB        -6.8761  -20.7825  -53.9296 C.3       20 UNK        -0.1800 
    112 C         -4.9962  -20.0581  -55.4667 C.2       20 UNK         0.5000 
    113 O         -5.3386  -19.2491  -56.3301 O.2       20 UNK        -0.5000 
    114 N         -4.1043  -21.0366  -55.6730 N.am      21 UNK        -0.5000 
    115 CA        -3.3221  -21.1944  -56.8971 C.3       21 UNK         0.1400 
    116 CB        -2.9819  -22.6806  -57.0936 C.3       21 UNK        -0.1800 
    117 C         -2.0437  -20.3375  -56.8553 C.2       21 UNK         0.5000 
    118 O         -1.7531  -19.6272  -57.8182 O.2       21 UNK        -0.5000 
    119 N         -1.3086  -20.4259  -55.7386 N.am      22 UNK        -0.5000 
    120 CA        -0.0053  -19.7893  -55.4890 C.3       22 UNK         0.1400 
    121 C          1.1545  -20.3248  -56.3893 C.2       22 UNK         0.5000 
    122 N          1.0571  -21.5347  -56.9283 N.am      22 UNK        -0.7600 
    123 O          2.1640  -19.6565  -56.5946 O.2       22 UNK        -0.5000 
    124 C124       -0.0932  -18.2363  -55.4232 C.3       23 UNK        -0.0398 
    125 S125        1.0762  -17.5367  -54.2028 S.3       23 UNK        -0.2404 
    126 C126       -0.0405  -17.0417  -52.8549 C.3       23 UNK        -0.0205 
    127 H127       -1.7139   -9.6100  -51.7478 H         1 UNK         0.0600 
    128 H128       -0.6946   -8.2117  -52.0991 H         1 UNK         0.0600 
    129 H129       -1.8939   -8.1284  -50.8042 H         1 UNK         0.0600 
    130 H130       -0.6542  -11.1929  -50.5989 H         1 UNK         0.3000 
    131 H131        1.8529  -10.7486  -49.2532 H         1 UNK         0.0600 
    132 H132        0.0952  -13.2560  -49.3617 H         1 UNK         0.0800 
    133 H133        1.3206  -12.8271  -50.5107 H         1 UNK         0.0800 
    134 H134        4.0214  -15.0514  -49.2243 H         1 UNK         0.0800 
    135 H135        3.3735  -14.1220  -50.5494 H         1 UNK         0.0800 
    136 H136        1.6208  -15.0882  -51.9227 H         1 UNK         0.1150 
    137 H137       -0.0935  -18.8594  -50.8259 H         1 UNK         0.1150 
    138 H138        2.5523  -16.8529  -48.1310 H         1 UNK         0.1150 
    139 H139        1.1716  -18.7000  -47.3406 H         1 UNK         0.0800 
    140 H140       -0.0462  -19.4143  -48.3491 H         1 UNK         0.0800 
    141 H141        1.7441  -22.1412  -50.2782 H         1 UNK         0.0800 
    142 H142        0.3379  -21.1437  -50.1359 H         1 UNK         0.0800 
    143 H143        0.2400  -23.6355  -49.3508 H         1 UNK         0.0600 
    144 H144        2.1885  -22.7740  -47.5028 H         1 UNK         0.3000 
    145 H145        1.7093  -25.2437  -45.0086 H         1 UNK         0.0600 
    146 H146        4.0238  -25.8503  -45.6024 H         1 UNK         0.0600 
    147 H147        2.9204  -26.4620  -46.8234 H         1 UNK         0.0600 
    148 H148        3.8801  -25.0249  -47.1549 H         1 UNK         0.0600 
    149 H149        3.7860  -23.4220  -45.2085 H         1 UNK         0.3000 
    150 H150        3.8519  -21.8006  -43.5540 H         1 UNK         0.0600 
    151 H151        3.9561  -20.8177  -45.8160 H         1 UNK         0.0600 
    152 H152        3.8984  -19.5239  -44.6295 H         1 UNK         0.0600 
    153 H153        2.4570  -19.9423  -45.5531 H         1 UNK         0.0600 
    154 H154        1.7305  -19.8288  -43.1629 H         1 UNK         0.3000 
    155 H155        0.6883  -20.9393  -40.0463 H         1 UNK         0.0600 
    156 H156        3.0709  -19.0131  -40.0969 H         1 UNK         0.0600 
    157 H157        2.9449  -20.4669  -39.1140 H         1 UNK         0.0600 
    158 H158        1.8576  -19.1202  -38.8206 H         1 UNK         0.0600 
    159 H159        1.0493  -18.2955  -41.2776 H         1 UNK         0.3000 
    160 H160       -1.9735  -18.3715  -43.0583 H         1 UNK         0.0600 
    161 H161       -1.5652  -16.8797  -40.4204 H         1 UNK         0.0600 
    162 H162       -2.8852  -17.9988  -40.7472 H         1 UNK         0.0600 
    163 H163       -2.7545  -16.5107  -41.6675 H         1 UNK         0.0600 
    164 H164       -0.6147  -16.0787  -42.6849 H         1 UNK         0.3000 
    165 H165        1.5897  -15.4639  -43.5412 H         1 UNK         0.0600 
    166 H166        2.3523  -17.2116  -45.9332 H         1 UNK         0.0600 
    167 H167        3.0486  -15.6305  -45.5806 H         1 UNK         0.0600 
    168 H168        3.2912  -16.9731  -44.4703 H         1 UNK         0.0600 
    169 H169        0.4549  -14.3060  -45.0450 H         1 UNK         0.3000 
    170 H170       -0.4359  -13.9143  -47.3109 H         1 UNK         0.0600 
    171 H171       -1.4158  -15.5986  -48.8471 H         1 UNK         0.0600 
    172 H172       -2.7979  -15.8123  -47.7819 H         1 UNK         0.0600 
    173 H173       -2.5392  -14.2698  -48.5985 H         1 UNK         0.0600 
    174 H174       -1.6708  -12.8655  -45.8595 H         1 UNK         0.3000 
    175 H175       -4.0101  -12.5087  -44.6654 H         1 UNK         0.0600 
    176 H176       -3.8864  -14.6349  -42.4637 H         1 UNK         0.0600 
    177 H177       -4.7471  -13.1018  -42.3620 H         1 UNK         0.0600 
    178 H178       -5.2527  -14.3185  -43.5228 H         1 UNK         0.0600 
    179 H179       -2.3281  -11.5279  -43.6062 H         1 UNK         0.3000 
    180 H180       -0.7127  -11.4618  -41.5000 H         1 UNK         0.0600 
    181 H181        1.5253  -13.3406  -42.4233 H         1 UNK         0.0600 
    182 H182        0.7342  -13.3699  -40.8533 H         1 UNK         0.0600 
    183 H183        1.7090  -11.9848  -41.3152 H         1 UNK         0.0600 
    184 H184        0.0053  -10.1205  -43.1114 H         1 UNK         0.3000 
    185 H185        0.2074   -9.4734  -45.4010 H         1 UNK         0.0600 
    186 H186        2.1465   -9.1452  -43.8478 H         1 UNK         0.0600 
    187 H187        3.1593  -10.1464  -44.8796 H         1 UNK         0.0600 
    188 H188        2.5478   -8.5993  -45.4655 H         1 UNK         0.0600 
    189 H189        2.2507  -10.4656  -47.1274 H         1 UNK         0.3000 
    190 H190       -0.0478  -21.6882  -46.4069 H         1 UNK         0.3000 
    191 H191       -2.8815  -21.0458  -46.9063 H         1 UNK         0.0600 
    192 H192       -2.6985  -19.8585  -44.7482 H         1 UNK         0.0600 
    193 H193       -1.4217  -19.3465  -45.8421 H         1 UNK         0.0600 
    194 H194       -1.0564  -20.4553  -44.5239 H         1 UNK         0.0600 
    195 H195       -0.8539  -23.0805  -44.7575 H         1 UNK         0.3000 
    196 H196       -2.8702  -24.1013  -43.1148 H         1 UNK         0.0600 
    197 H197       -0.2545  -25.4638  -43.9248 H         1 UNK         0.0600 
    198 H198       -0.4059  -24.2379  -42.6644 H         1 UNK         0.0600 
    199 H199       -1.1963  -25.7974  -42.4804 H         1 UNK         0.0600 
    200 H200       -1.9028  -25.2069  -46.3344 H         1 UNK         0.3000 
    201 H201       -3.4901  -27.6249  -46.3741 H         1 UNK         0.0600 
    202 H202       -2.2384  -25.9629  -48.6220 H         1 UNK         0.0600 
    203 H203       -2.8905  -27.5902  -48.7953 H         1 UNK         0.0600 
    204 H204       -1.4764  -27.3170  -47.7918 H         1 UNK         0.0600 
    205 H205       -5.1816  -25.8571  -45.3298 H         1 UNK         0.3000 
    206 H206       -7.1903  -24.9051  -45.3464 H         1 UNK         0.0600 
    207 H207       -7.7972  -27.2194  -46.1068 H         1 UNK         0.0600 
    208 H208       -8.9348  -26.0218  -46.6984 H         1 UNK         0.0600 
    209 H209       -7.7215  -26.6860  -47.7856 H         1 UNK         0.0600 
    210 H210       -5.1520  -23.4844  -46.8644 H         1 UNK         0.3000 
    211 H211       -4.6790  -21.8880  -48.2813 H         1 UNK         0.0600 
    212 H212       -6.2937  -20.0577  -48.6234 H         1 UNK         0.0600 
    213 H213       -6.3981  -20.6341  -46.9689 H         1 UNK         0.0600 
    214 H214       -7.6322  -21.0912  -48.1435 H         1 UNK         0.0600 
    215 H215       -5.9024  -24.5425  -49.4417 H         1 UNK         0.3000 
    216 H216       -7.0122  -23.7931  -51.9993 H         1 UNK         0.0600 
    217 H217       -5.8813  -26.4717  -51.0234 H         1 UNK         0.0600 
    218 H218       -6.8769  -26.2270  -52.4527 H         1 UNK         0.0600 
    219 H219       -7.5553  -25.9457  -50.8555 H         1 UNK         0.0600 
    220 H220       -3.7834  -24.6289  -50.8044 H         1 UNK         0.3000 
    221 H221       -2.4712  -24.5846  -53.3931 H         1 UNK         0.0600 
    222 H222       -1.4180  -25.8531  -51.6370 H         1 UNK         0.0600 
    223 H223       -1.4632  -24.5023  -50.5175 H         1 UNK         0.0600 
    224 H224       -0.3845  -24.4583  -51.9122 H         1 UNK         0.0600 
    225 H225       -2.9659  -22.1935  -50.7510 H         1 UNK         0.3000 
    226 H226       -1.5513  -20.0672  -51.9749 H         1 UNK         0.0600 
    227 H227       -3.8253  -20.0132  -49.9170 H         1 UNK         0.0600 
    228 H228       -2.0984  -20.0470  -49.5665 H         1 UNK         0.0600 
    229 H229       -2.8087  -18.6377  -50.3246 H         1 UNK         0.0600 
    230 H230       -4.9197  -21.1272  -52.4125 H         1 UNK         0.3000 
    231 H231       -5.8525  -18.9010  -53.8813 H         1 UNK         0.0600 
    232 H232       -6.6823  -21.8447  -54.0776 H         1 UNK         0.0600 
    233 H233       -7.6104  -20.4764  -54.6757 H         1 UNK         0.0600 
    234 H234       -7.3379  -20.6592  -52.9498 H         1 UNK         0.0600 
    235 H235       -3.8780  -21.6506  -54.9028 H         1 UNK         0.3000 
    236 H236       -3.9171  -20.8726  -57.7546 H         1 UNK         0.0600 
    237 H237       -3.8875  -23.2795  -57.1916 H         1 UNK         0.0600 
    238 H238       -2.3938  -22.8300  -57.9999 H         1 UNK         0.0600 
    239 H239       -2.4079  -23.0822  -56.2578 H         1 UNK         0.0600 
    240 H240       -1.6092  -21.0687  -55.0078 H         1 UNK         0.3000 
    241 H241        0.2527  -20.1402  -54.4890 H         1 UNK         0.0600 
    242 H242        1.8074  -21.8819  -57.5051 H         1 UNK         0.3800 
    243 H243        0.2464  -22.1081  -56.7603 H         1 UNK         0.3800 
    244 H244       -1.1029  -17.9242  -55.1525 H         1 UNK         0.0800 
    245 H245        0.0952  -17.7913  -56.4015 H         1 UNK         0.0800 
    246 H246       -0.4858  -16.0728  -53.0849 H         1 UNK         0.0800 
    247 H247       -0.8624  -17.7513  -52.7856 H         1 UNK         0.0800 
@<TRIPOS>BOND
     1    1    2 1    
     2    1  127 1    
     3    1  128 1    
     4    1  129 1    
     5    2    3 2    
     6    2    4 am   BACKBONE|DICT|INTERRES
     7    4    5 1    
     8    4  130 1    
     9    5    6 1    
    10    5   65 1    
    11    5  131 1    
    12    6    7 1    
    13    6  132 1    
    14    6  133 1    
    15    7    8 1    
    16    8    9 1    
    17    8  134 1    
    18    8  135 1    
    19    9   10 ar   
    20    9   14 ar   
    21   10   11 ar   
    22   10  136 1    
    23   11   12 ar   
    24   11  126 1    
    25   12   13 ar   
    26   12  137 1    
    27   13   14 ar   
    28   13   15 1    
    29   14  138 1    
    30   15   16 1    
    31   15  139 1    
    32   15  140 1    
    33   16   17 1    
    34   17   18 1    
    35   17  141 1    
    36   17  142 1    
    37   18   19 1    
    38   18   67 1    
    39   18  143 1    
    40   19   20 am   BACKBONE|DICT|INTERRES
    41   19  144 1    
    42   20   21 2    
    43   20   22 1    
    44   22   23 1    
    45   22   24 1    
    46   22  145 1    
    47   23  146 1    
    48   23  147 1    
    49   23  148 1    
    50   24   25 am   BACKBONE|DICT|INTERRES
    51   24  149 1    
    52   25   26 2    
    53   25   27 1    
    54   27   28 1    
    55   27   29 1    
    56   27  150 1    
    57   28  151 1    
    58   28  152 1    
    59   28  153 1    
    60   29   30 am   BACKBONE|DICT|INTERRES
    61   29  154 1    
    62   30   31 2    
    63   30   32 1    
    64   32   33 1    
    65   32   34 1    
    66   32  155 1    
    67   33  156 1    
    68   33  157 1    
    69   33  158 1    
    70   34   35 am   BACKBONE|DICT|INTERRES
    71   34  159 1    
    72   35   36 2    
    73   35   37 1    
    74   37   38 1    
    75   37   39 1    
    76   37  160 1    
    77   38  161 1    
    78   38  162 1    
    79   38  163 1    
    80   39   40 am   BACKBONE|DICT|INTERRES
    81   39  164 1    
    82   40   41 2    
    83   40   42 1    
    84   42   43 1    
    85   42   44 1    
    86   42  165 1    
    87   43  166 1    
    88   43  167 1    
    89   43  168 1    
    90   44   45 am   BACKBONE|DICT|INTERRES
    91   44  169 1    
    92   45   46 2    
    93   45   47 1    
    94   47   48 1    
    95   47   49 1    
    96   47  170 1    
    97   48  171 1    
    98   48  172 1    
    99   48  173 1    
   100   49   50 am   BACKBONE|DICT|INTERRES
   101   49  174 1    
   102   50   51 2    
   103   50   52 1    
   104   52   53 1    
   105   52   54 1    
   106   52  175 1    
   107   53  176 1    
   108   53  177 1    
   109   53  178 1    
   110   54   55 am   BACKBONE|DICT|INTERRES
   111   54  179 1    
   112   55   56 2    
   113   55   57 1    
   114   57   58 1    
   115   57   59 1    
   116   57  180 1    
   117   58  181 1    
   118   58  182 1    
   119   58  183 1    
   120   59   60 am   BACKBONE|DICT|INTERRES
   121   59  184 1    
   122   60   61 2    
   123   60   62 1    
   124   62   63 1    
   125   62   64 1    
   126   62  185 1    
   127   63  186 1    
   128   63  187 1    
   129   63  188 1    
   130   64   65 am   BACKBONE|DICT|INTERRES
   131   64  189 1    
   132   65   66 2    
   133   67   68 2    
   134   67   69 am   BACKBONE|DICT|INTERRES
   135   69   70 1    
   136   69  190 1    
   137   70   71 1    
   138   70   72 1    
   139   70  191 1    
   140   71  192 1    
   141   71  193 1    
   142   71  194 1    
   143   72   73 2    
   144   72   74 am   BACKBONE|DICT|INTERRES
   145   74   75 1    
   146   74  195 1    
   147   75   76 1    
   148   75   77 1    
   149   75  196 1    
   150   76  197 1    
   151   76  198 1    
   152   76  199 1    
   153   77   78 2    
   154   77   79 am   BACKBONE|DICT|INTERRES
   155   79   80 1    
   156   79  200 1    
   157   80   81 1    
   158   80   82 1    
   159   80  201 1    
   160   81  202 1    
   161   81  203 1    
   162   81  204 1    
   163   82   83 2    
   164   82   84 am   BACKBONE|DICT|INTERRES
   165   84   85 1    
   166   84  205 1    
   167   85   86 1    
   168   85   87 1    
   169   85  206 1    
   170   86  207 1    
   171   86  208 1    
   172   86  209 1    
   173   87   88 2    
   174   87   89 am   BACKBONE|DICT|INTERRES
   175   89   90 1    
   176   89  210 1    
   177   90   91 1    
   178   90   92 1    
   179   90  211 1    
   180   91  212 1    
   181   91  213 1    
   182   91  214 1    
   183   92   93 2    
   184   92   94 am   BACKBONE|DICT|INTERRES
   185   94   95 1    
   186   94  215 1    
   187   95   96 1    
   188   95   97 1    
   189   95  216 1    
   190   96  217 1    
   191   96  218 1    
   192   96  219 1    
   193   97   98 2    
   194   97   99 am   BACKBONE|DICT|INTERRES
   195   99  100 1    
   196   99  220 1    
   197  100  101 1    
   198  100  102 1    
   199  100  221 1    
   200  101  222 1    
   201  101  223 1    
   202  101  224 1    
   203  102  103 2    
   204  102  104 am   BACKBONE|DICT|INTERRES
   205  104  105 1    
   206  104  225 1    
   207  105  106 1    
   208  105  107 1    
   209  105  226 1    
   210  106  227 1    
   211  106  228 1    
   212  106  229 1    
   213  107  108 2    
   214  107  109 am   BACKBONE|DICT|INTERRES
   215  109  110 1    
   216  109  230 1    
   217  110  111 1    
   218  110  112 1    
   219  110  231 1    
   220  111  232 1    
   221  111  233 1    
   222  111  234 1    
   223  112  113 2    
   224  112  114 am   BACKBONE|DICT|INTERRES
   225  114  115 1    
   226  114  235 1    
   227  115  116 1    
   228  115  117 1    
   229  115  236 1    
   230  116  237 1    
   231  116  238 1    
   232  116  239 1    
   233  117  118 2    
   234  117  119 am   BACKBONE|DICT|INTERRES
   235  119  120 1    
   236  119  240 1    
   237  120  121 1    
   238  120  124 1    
   239  120  241 1    
   240  121  122 am   BACKBONE|DICT|INTERRES
   241  121  123 2    
   242  122  242 1    
   243  122  243 1    
   244  124  125 1    
   245  124  244 1    
   246  124  245 1    
   247  125  126 1    
   248  126  246 1    
   249  126  247 1    
@<TRIPOS>SUBSTRUCTURE
     1 UNK         1 GROUP             0       ****    0 ROOT    
