@<TRIPOS>MOLECULE
3R540
247   249    1
SMALL
USER_CHARGES


@<TRIPOS>ATOM
      1 CA          2.6718  -15.0675  -46.1189 C.3       0 UNK        -0.1800 
      2 C           1.2334  -15.1262  -45.6263 C.2       0 UNK         0.5000 
      3 O           0.9612  -15.6869  -44.5674 O.2       0 UNK        -0.5000 
      4 N           0.3129  -14.5336  -46.3941 N.am      1 UNK        -0.5000 
      5 CA         -1.1254  -14.4799  -46.0977 C.3       1 UNK         0.1400 
      6 C6         -1.9729  -14.4135  -47.3946 C.3       23 UNK        -0.0398 
      7 S7         -1.7791  -15.8837  -48.4630 S.3       23 UNK        -0.2404 
      8 C8         -0.4931  -15.3057  -49.6128 C.3       23 UNK        -0.0205 
      9 C9         -0.2639  -16.2989  -50.7381 C.ar      23 UNK        -0.0193 
     10 C10        -0.9172  -16.1315  -51.9610 C.ar      23 UNK        -0.1150 
     11 C11        -0.6981  -17.0237  -53.0136 C.ar      23 UNK        -0.0193 
     12 C12         0.1737  -18.1015  -52.8287 C.ar      23 UNK        -0.1150 
     13 C13         0.8392  -18.2782  -51.6093 C.ar      23 UNK        -0.0193 
     14 C14         0.6203  -17.3679  -50.5699 C.ar      23 UNK        -0.1150 
     15 C15         1.8023  -19.4484  -51.4286 C.3       23 UNK        -0.0205 
     16 S16         1.4404  -20.4853  -49.9686 S.3       23 UNK        -0.2404 
     17 C17        -0.3156  -20.9078  -50.2323 C.3       23 UNK        -0.0398 
     18 CA         -1.1946  -20.8743  -48.9570 C.3       11 UNK         0.1400 
     19 N          -0.8403  -19.7992  -48.0142 N.am      11 UNK        -0.5000 
     20 C          -1.3768  -19.6224  -46.7985 C.2       10 UNK         0.5000 
     21 O          -2.3093  -20.3021  -46.3667 O.2       10 UNK        -0.5000 
     22 CA         -0.7534  -18.5297  -45.9172 C.3       10 UNK         0.1400 
     23 CB         -1.6733  -18.1210  -44.7518 C.3       10 UNK        -0.1800 
     24 N           0.5190  -19.0007  -45.3842 N.am      10 UNK        -0.5000 
     25 C           1.6906  -18.9204  -46.0293 C.2       9 UNK         0.5000 
     26 O           1.8091  -18.4249  -47.1502 O.2       9 UNK        -0.5000 
     27 CA          2.9397  -19.4768  -45.3194 C.3       9 UNK         0.1400 
     28 CB          3.8524  -18.3300  -44.8556 C.3       9 UNK        -0.1800 
     29 N           2.6045  -20.3153  -44.1674 N.am      9 UNK        -0.5000 
     30 C           2.3119  -21.6222  -44.2434 C.2       8 UNK         0.5000 
     31 O           2.3442  -22.2658  -45.2924 O.2       8 UNK        -0.5000 
     32 CA          1.9074  -22.3383  -42.9372 C.3       8 UNK         0.1400 
     33 CB          3.1145  -23.0701  -42.3310 C.3       8 UNK        -0.1800 
     34 N           1.3390  -21.4461  -41.9251 N.am      8 UNK        -0.5000 
     35 C           0.1854  -20.7774  -42.0559 C.2       7 UNK         0.5000 
     36 O          -0.5527  -20.8853  -43.0324 O.2       7 UNK        -0.5000 
     37 CA         -0.1844  -19.7838  -40.9375 C.3       7 UNK         0.1400 
     38 CB         -1.1449  -20.4401  -39.9347 C.3       7 UNK        -0.1800 
     39 N           0.9622  -19.2240  -40.2111 N.am      7 UNK        -0.5000 
     40 C           1.9607  -18.5236  -40.7661 C.2       6 UNK         0.5000 
     41 O           2.0888  -18.3590  -41.9807 O.2       6 UNK        -0.5000 
     42 CA          3.0234  -17.9617  -39.8045 C.3       6 UNK         0.1400 
     43 CB          4.1882  -18.9540  -39.6641 C.3       6 UNK        -0.1800 
     44 N           3.5486  -16.6747  -40.2632 N.am      6 UNK        -0.5000 
     45 C           2.8350  -15.5440  -40.3372 C.2       5 UNK         0.5000 
     46 O           1.6607  -15.4499  -39.9672 O.2       5 UNK        -0.5000 
     47 CA          3.5622  -14.3232  -40.9369 C.3       5 UNK         0.1400 
     48 CB          3.5978  -14.4123  -42.4689 C.3       5 UNK        -0.1800 
     49 N           2.9225  -13.0634  -40.5599 N.am      5 UNK        -0.5000 
     50 C           2.9471  -12.5320  -39.3301 C.2       4 UNK         0.5000 
     51 O           3.6018  -13.0099  -38.4010 O.2       4 UNK        -0.5000 
     52 CA          2.0834  -11.2720  -39.0928 C.3       4 UNK         0.1400 
     53 CB          2.6429  -10.3662  -37.9751 C.3       4 UNK        -0.1800 
     54 N           1.8067  -10.4926  -40.3070 N.am      4 UNK        -0.5000 
     55 C           2.6944   -9.8646  -41.0937 C.2       3 UNK         0.5000 
     56 O           3.9097   -9.8609  -40.8905 O.2       3 UNK        -0.5000 
     57 CA          2.1106   -9.1079  -42.3073 C.3       3 UNK         0.1400 
     58 CB          3.1486   -8.8812  -43.4273 C.3       3 UNK        -0.1800 
     59 N           0.8824   -9.7084  -42.8503 N.am      3 UNK        -0.5000 
     60 C           0.7533  -10.9211  -43.4089 C.2       2 UNK         0.5000 
     61 O           1.6686  -11.7457  -43.4760 O.2       2 UNK        -0.5000 
     62 CA         -0.6324  -11.2697  -43.9842 C.3       2 UNK         0.1400 
     63 CB         -1.2531  -10.1101  -44.7921 C.3       2 UNK        -0.1800 
     64 N          -0.5078  -12.4486  -44.8347 N.am      2 UNK        -0.5000 
     65 C          -1.4820  -13.3109  -45.1486 C.2       1 UNK         0.5000 
     66 O          -2.6357  -13.2056  -44.7299 O.2       1 UNK        -0.5000 
     67 C          -2.6874  -20.8810  -49.3548 C.2       11 UNK         0.5000 
     68 O          -3.2281  -21.9380  -49.6839 O.2       11 UNK        -0.5000 
     69 N          -3.3379  -19.7124  -49.2692 N.am      12 UNK        -0.5000 
     70 CA         -4.7795  -19.5303  -49.4301 C.3       12 UNK         0.1400 
     71 CB         -5.1005  -18.0307  -49.3535 C.3       12 UNK        -0.1800 
     72 C          -5.6244  -20.3237  -48.4099 C.2       12 UNK         0.5000 
     73 O          -6.7608  -20.6799  -48.7205 O.2       12 UNK        -0.5000 
     74 N          -5.0505  -20.6053  -47.2327 N.am      13 UNK        -0.5000 
     75 CA         -5.6312  -21.4513  -46.1957 C.3       13 UNK         0.1400 
     76 CB         -5.5317  -20.7322  -44.8401 C.3       13 UNK        -0.1800 
     77 C          -4.9115  -22.8084  -46.1487 C.2       13 UNK         0.5000 
     78 O          -5.5712  -23.8449  -46.2196 O.2       13 UNK        -0.5000 
     79 N          -3.5739  -22.7832  -46.0503 N.am      14 UNK        -0.5000 
     80 CA         -2.7185  -23.9525  -45.8196 C.3       14 UNK         0.1400 
     81 CB         -1.2880  -23.4798  -45.5181 C.3       14 UNK        -0.1800 
     82 C          -2.7160  -24.9832  -46.9636 C.2       14 UNK         0.5000 
     83 O          -2.5553  -26.1753  -46.7001 O.2       14 UNK        -0.5000 
     84 N          -2.9093  -24.5118  -48.1998 N.am      15 UNK        -0.5000 
     85 CA         -3.0367  -25.3259  -49.4099 C.3       15 UNK         0.1400 
     86 CB         -1.8313  -25.0351  -50.3199 C.3       15 UNK        -0.1800 
     87 C          -4.3892  -25.0664  -50.1058 C.2       15 UNK         0.5000 
     88 O          -4.5569  -25.4185  -51.2755 O.2       15 UNK        -0.5000 
     89 N          -5.3257  -24.4388  -49.3733 N.am      16 UNK        -0.5000 
     90 CA         -6.7017  -24.0987  -49.7523 C.3       16 UNK         0.1400 
     91 CB         -7.5560  -25.3819  -49.8025 C.3       16 UNK        -0.1800 
     92 C          -6.8243  -23.2666  -51.0479 C.2       16 UNK         0.5000 
     93 O          -7.8517  -23.3474  -51.7234 O.2       16 UNK        -0.5000 
     94 N          -5.7617  -22.5272  -51.4049 N.am      17 UNK        -0.5000 
     95 CA         -5.5423  -21.7656  -52.6429 C.3       17 UNK         0.1400 
     96 CB         -6.6136  -20.6750  -52.8396 C.3       17 UNK        -0.1800 
     97 C          -5.4147  -22.6324  -53.9132 C.2       17 UNK         0.5000 
     98 O          -4.5949  -22.3150  -54.7754 O.2       17 UNK        -0.5000 
     99 N          -6.2106  -23.7021  -54.0158 N.am      18 UNK        -0.5000 
    100 CA        -6.2835  -24.6216  -55.1482 C.3       18 UNK         0.1400 
    101 CB        -7.4315  -25.6164  -54.9183 C.3       18 UNK        -0.1800 
    102 C         -4.9631  -25.3614  -55.4157 C.2       18 UNK         0.5000 
    103 O         -4.4900  -25.3580  -56.5526 O.2       18 UNK        -0.5000 
    104 N         -4.3674  -25.9460  -54.3656 N.am      19 UNK        -0.5000 
    105 CA        -3.0921  -26.6648  -54.4616 C.3       19 UNK         0.1400 
    106 CB        -2.9836  -27.6882  -53.3206 C.3       19 UNK        -0.1800 
    107 C         -1.8768  -25.7170  -54.4978 C.2       19 UNK         0.5000 
    108 O         -0.7940  -26.1364  -54.9072 O.2       19 UNK        -0.5000 
    109 N         -2.0815  -24.4518  -54.1050 N.am      20 UNK        -0.5000 
    110 CA        -1.1004  -23.3715  -54.2207 C.3       20 UNK         0.1400 
    111 CB        -1.4989  -22.2393  -53.2610 C.3       20 UNK        -0.1800 
    112 C         -1.0033  -22.8035  -55.6497 C.2       20 UNK         0.5000 
    113 O         -0.0421  -22.0935  -55.9453 O.2       20 UNK        -0.5000 
    114 N         -2.0276  -23.0702  -56.4770 N.am      21 UNK        -0.5000 
    115 CA        -2.3155  -22.4387  -57.7703 C.3       21 UNK         0.1400 
    116 CB        -1.2128  -22.7405  -58.8065 C.3       21 UNK        -0.1800 
    117 C         -2.6293  -20.9306  -57.6322 C.2       21 UNK         0.5000 
    118 O         -2.3978  -20.1601  -58.5656 O.2       21 UNK        -0.5000 
    119 N         -3.1587  -20.5454  -56.4642 N.am      22 UNK        -0.5000 
    120 CA        -3.6078  -19.1901  -56.1235 C.3       22 UNK         0.1400 
    121 C         -5.1185  -18.9665  -56.4333 C.2       22 UNK         0.5000 
    122 N         -5.9254  -20.0126  -56.5742 N.am      22 UNK        -0.7600 
    123 O         -5.5631  -17.8316  -56.5775 O.2       22 UNK        -0.5000 
    124 C124       -3.2573  -18.8658  -54.6453 C.3       23 UNK        -0.0398 
    125 S125       -3.1626  -17.0771  -54.3046 S.3       23 UNK        -0.2404 
    126 C126       -1.3672  -16.7808  -54.3594 C.3       23 UNK        -0.0205 
    127 H127        3.3682  -15.1300  -45.2835 H         1 UNK         0.0600 
    128 H128        2.8691  -14.1378  -46.6528 H         1 UNK         0.0600 
    129 H129        2.8715  -15.9001  -46.7928 H         1 UNK         0.0600 
    130 H130        0.6018  -14.0724  -47.2441 H         1 UNK         0.3000 
    131 H131       -1.4077  -15.3919  -45.5704 H         1 UNK         0.0600 
    132 H132       -3.0343  -14.3471  -47.1485 H         1 UNK         0.0800 
    133 H133       -1.7432  -13.5105  -47.9627 H         1 UNK         0.0800 
    134 H134       -0.7788  -14.3368  -50.0254 H         1 UNK         0.0800 
    135 H135        0.4416  -15.1504  -49.0741 H         1 UNK         0.0800 
    136 H136       -1.5912  -15.2977  -52.1005 H         1 UNK         0.1150 
    137 H137        0.3475  -18.7929  -53.6415 H         1 UNK         0.1150 
    138 H138        1.1361  -17.4942  -49.6279 H         1 UNK         0.1150 
    139 H139        1.7999  -20.0880  -52.3126 H         1 UNK         0.0800 
    140 H140        2.8159  -19.0564  -51.3368 H         1 UNK         0.0800 
    141 H141       -0.3338  -21.9127  -50.6526 H         1 UNK         0.0800 
    142 H142       -0.7334  -20.2554  -50.9992 H         1 UNK         0.0800 
    143 H143       -1.0154  -21.8083  -48.4223 H         1 UNK         0.0600 
    144 H144       -0.0325  -19.2415  -48.2659 H         1 UNK         0.3000 
    145 H145       -0.5803  -17.6456  -46.5312 H         1 UNK         0.0600 
    146 H146       -2.6020  -17.6894  -45.1267 H         1 UNK         0.0600 
    147 H147       -1.9411  -18.9686  -44.1213 H         1 UNK         0.0600 
    148 H148       -1.1980  -17.3743  -44.1158 H         1 UNK         0.0600 
    149 H149        0.4823  -19.4744  -44.4914 H         1 UNK         0.3000 
    150 H150        3.4942  -20.0722  -46.0478 H         1 UNK         0.0600 
    151 H151        4.7208  -18.7062  -44.3148 H         1 UNK         0.0600 
    152 H152        3.3251  -17.6325  -44.2038 H         1 UNK         0.0600 
    153 H153        4.2230  -17.7610  -45.7088 H         1 UNK         0.0600 
    154 H154        2.5130  -19.8314  -43.2792 H         1 UNK         0.3000 
    155 H155        1.1490  -23.0811  -43.1937 H         1 UNK         0.0600 
    156 H156        3.8986  -22.3730  -42.0324 H         1 UNK         0.0600 
    157 H157        3.5502  -23.7666  -43.0487 H         1 UNK         0.0600 
    158 H158        2.8260  -23.6487  -41.4533 H         1 UNK         0.0600 
    159 H159        1.8880  -21.2932  -41.0924 H         1 UNK         0.3000 
    160 H160       -0.7056  -18.9498  -41.4124 H         1 UNK         0.0600 
    161 H161       -0.6674  -21.2616  -39.3992 H         1 UNK         0.0600 
    162 H162       -1.5009  -19.7194  -39.1983 H         1 UNK         0.0600 
    163 H163       -2.0226  -20.8443  -40.4411 H         1 UNK         0.0600 
    164 H164        0.9466  -19.3341  -39.2073 H         1 UNK         0.3000 
    165 H165        2.5687  -17.8125  -38.8229 H         1 UNK         0.0600 
    166 H166        4.9365  -18.5881  -38.9608 H         1 UNK         0.0600 
    167 H167        3.8393  -19.9182  -39.2920 H         1 UNK         0.0600 
    168 H168        4.6834  -19.1313  -40.6200 H         1 UNK         0.0600 
    169 H169        4.4928  -16.6807  -40.6194 H         1 UNK         0.3000 
    170 H170        4.5884  -14.3147  -40.5638 H         1 UNK         0.0600 
    171 H171        4.1553  -13.5814  -42.9016 H         1 UNK         0.0600 
    172 H172        4.0733  -15.3353  -42.8030 H         1 UNK         0.0600 
    173 H173        2.5915  -14.3911  -42.8870 H         1 UNK         0.0600 
    174 H174        2.3627  -12.6143  -41.2718 H         1 UNK         0.3000 
    175 H175        1.1158  -11.6434  -38.7524 H         1 UNK         0.0600 
    176 H176        3.6484  -10.0126  -38.2046 H         1 UNK         0.0600 
    177 H177        2.0078   -9.4944  -37.8184 H         1 UNK         0.0600 
    178 H178        2.6948  -10.9009  -37.0259 H         1 UNK         0.0600 
    179 H179        0.8340  -10.4363  -40.5738 H         1 UNK         0.3000 
    180 H180        1.8232   -8.1256  -41.9300 H         1 UNK         0.0600 
    181 H181        3.9939   -8.2945  -43.0658 H         1 UNK         0.0600 
    182 H182        2.7128   -8.3358  -44.2644 H         1 UNK         0.0600 
    183 H183        3.5450   -9.8223  -43.8097 H         1 UNK         0.0600 
    184 H184        0.0683   -9.1099  -42.8293 H         1 UNK         0.3000 
    185 H185       -1.2812  -11.5085  -43.1393 H         1 UNK         0.0600 
    186 H186       -1.4505   -9.2418  -44.1631 H         1 UNK         0.0600 
    187 H187       -0.5962   -9.7915  -45.6024 H         1 UNK         0.0600 
    188 H188       -2.2069  -10.3995  -45.2335 H         1 UNK         0.0600 
    189 H189        0.4378  -12.6499  -45.1329 H         1 UNK         0.3000 
    190 H190       -2.8094  -18.8953  -48.9990 H         1 UNK         0.3000 
    191 H191       -5.0419  -19.8858  -50.4251 H         1 UNK         0.0600 
    192 H192       -4.8273  -17.6101  -48.3847 H         1 UNK         0.0600 
    193 H193       -6.1659  -17.8507  -49.5028 H         1 UNK         0.0600 
    194 H194       -4.5662  -17.4729  -50.1234 H         1 UNK         0.0600 
    195 H195       -4.0963  -20.2995  -47.0685 H         1 UNK         0.3000 
    196 H196       -6.6876  -21.6398  -46.3984 H         1 UNK         0.0600 
    197 H197       -5.9407  -21.3496  -44.0393 H         1 UNK         0.0600 
    198 H198       -6.0948  -19.7989  -44.8510 H         1 UNK         0.0600 
    199 H199       -4.4999  -20.4940  -44.5781 H         1 UNK         0.0600 
    200 H200       -3.1050  -21.8793  -46.0320 H         1 UNK         0.3000 
    201 H201       -3.0973  -24.4612  -44.9308 H         1 UNK         0.0600 
    202 H202       -1.2678  -22.8309  -44.6437 H         1 UNK         0.0600 
    203 H203       -0.8571  -22.9265  -46.3520 H         1 UNK         0.0600 
    204 H204       -0.6295  -24.3238  -45.3091 H         1 UNK         0.0600 
    205 H205       -3.0359  -23.5155  -48.3364 H         1 UNK         0.3000 
    206 H206       -3.0271  -26.3895  -49.1651 H         1 UNK         0.0600 
    207 H207       -1.9043  -25.5500  -51.2762 H         1 UNK         0.0600 
    208 H208       -1.7382  -23.9717  -50.5242 H         1 UNK         0.0600 
    209 H209       -0.9035  -25.3606  -49.8496 H         1 UNK         0.0600 
    210 H210       -5.0873  -24.2242  -48.4139 H         1 UNK         0.3000 
    211 H211       -7.0922  -23.4699  -48.9511 H         1 UNK         0.0600 
    212 H212       -7.2511  -26.0358  -50.6204 H         1 UNK         0.0600 
    213 H213       -8.6120  -25.1488  -49.9439 H         1 UNK         0.0600 
    214 H214       -7.4737  -25.9461  -48.8735 H         1 UNK         0.0600 
    215 H215       -4.9599  -22.5608  -50.7844 H         1 UNK         0.3000 
    216 H216       -4.5821  -21.2666  -52.5066 H         1 UNK         0.0600 
    217 H217       -6.3396  -20.0024  -53.6524 H         1 UNK         0.0600 
    218 H218       -6.7430  -20.0672  -51.9453 H         1 UNK         0.0600 
    219 H219       -7.5856  -21.0999  -53.0911 H         1 UNK         0.0600 
    220 H220       -6.8763  -23.8485  -53.2626 H         1 UNK         0.3000 
    221 H221       -6.5178  -24.0316  -56.0366 H         1 UNK         0.0600 
    222 H222       -7.2830  -26.2011  -54.0095 H         1 UNK         0.0600 
    223 H223       -8.3872  -25.0995  -54.8295 H         1 UNK         0.0600 
    224 H224       -7.5166  -26.3160  -55.7509 H         1 UNK         0.0600 
    225 H225       -4.7763  -25.8619  -53.4413 H         1 UNK         0.3000 
    226 H226       -3.0800  -27.2263  -55.3984 H         1 UNK         0.0600 
    227 H227       -3.7954  -28.4139  -53.3685 H         1 UNK         0.0600 
    228 H228       -2.0478  -28.2449  -53.3828 H         1 UNK         0.0600 
    229 H229       -3.0185  -27.2178  -52.3406 H         1 UNK         0.0600 
    230 H230       -3.0051  -24.1977  -53.7869 H         1 UNK         0.3000 
    231 H231       -0.1189  -23.7506  -53.9286 H         1 UNK         0.0600 
    232 H232       -2.3584  -21.6788  -53.6243 H         1 UNK         0.0600 
    233 H233       -1.7576  -22.6198  -52.2768 H         1 UNK         0.0600 
    234 H234       -0.6796  -21.5291  -53.1451 H         1 UNK         0.0600 
    235 H235       -2.7647  -23.6654  -56.1232 H         1 UNK         0.3000 
    236 H236       -3.2353  -22.9032  -58.1286 H         1 UNK         0.0600 
    237 H237       -0.2798  -22.2282  -58.5710 H         1 UNK         0.0600 
    238 H238       -1.0056  -23.8092  -58.8613 H         1 UNK         0.0600 
    239 H239       -1.5168  -22.4182  -59.8029 H         1 UNK         0.0600 
    240 H240       -3.3970  -21.2666  -55.7898 H         1 UNK         0.3000 
    241 H241       -3.0579  -18.4880  -56.7532 H         1 UNK         0.0600 
    242 H242       -6.8974  -19.8626  -56.7936 H         1 UNK         0.3800 
    243 H243       -5.5754  -20.9493  -56.4428 H         1 UNK         0.3800 
    244 H244       -3.9798  -19.3160  -53.9642 H         1 UNK         0.0800 
    245 H245       -2.2949  -19.3069  -54.3822 H         1 UNK         0.0800 
    246 H246       -1.1972  -15.7434  -54.6510 H         1 UNK         0.0800 
    247 H247       -0.9128  -17.3905  -55.1422 H         1 UNK         0.0800 
@<TRIPOS>BOND
     1    1    2 1    
     2    1  127 1    
     3    1  128 1    
     4    1  129 1    
     5    2    3 2    
     6    2    4 am   BACKBONE|DICT|INTERRES
     7    4    5 1    
     8    4  130 1    
     9    5    6 1    
    10    5   65 1    
    11    5  131 1    
    12    6    7 1    
    13    6  132 1    
    14    6  133 1    
    15    7    8 1    
    16    8    9 1    
    17    8  134 1    
    18    8  135 1    
    19    9   10 ar   
    20    9   14 ar   
    21   10   11 ar   
    22   10  136 1    
    23   11   12 ar   
    24   11  126 1    
    25   12   13 ar   
    26   12  137 1    
    27   13   14 ar   
    28   13   15 1    
    29   14  138 1    
    30   15   16 1    
    31   15  139 1    
    32   15  140 1    
    33   16   17 1    
    34   17   18 1    
    35   17  141 1    
    36   17  142 1    
    37   18   19 1    
    38   18   67 1    
    39   18  143 1    
    40   19   20 am   BACKBONE|DICT|INTERRES
    41   19  144 1    
    42   20   21 2    
    43   20   22 1    
    44   22   23 1    
    45   22   24 1    
    46   22  145 1    
    47   23  146 1    
    48   23  147 1    
    49   23  148 1    
    50   24   25 am   BACKBONE|DICT|INTERRES
    51   24  149 1    
    52   25   26 2    
    53   25   27 1    
    54   27   28 1    
    55   27   29 1    
    56   27  150 1    
    57   28  151 1    
    58   28  152 1    
    59   28  153 1    
    60   29   30 am   BACKBONE|DICT|INTERRES
    61   29  154 1    
    62   30   31 2    
    63   30   32 1    
    64   32   33 1    
    65   32   34 1    
    66   32  155 1    
    67   33  156 1    
    68   33  157 1    
    69   33  158 1    
    70   34   35 am   BACKBONE|DICT|INTERRES
    71   34  159 1    
    72   35   36 2    
    73   35   37 1    
    74   37   38 1    
    75   37   39 1    
    76   37  160 1    
    77   38  161 1    
    78   38  162 1    
    79   38  163 1    
    80   39   40 am   BACKBONE|DICT|INTERRES
    81   39  164 1    
    82   40   41 2    
    83   40   42 1    
    84   42   43 1    
    85   42   44 1    
    86   42  165 1    
    87   43  166 1    
    88   43  167 1    
    89   43  168 1    
    90   44   45 am   BACKBONE|DICT|INTERRES
    91   44  169 1    
    92   45   46 2    
    93   45   47 1    
    94   47   48 1    
    95   47   49 1    
    96   47  170 1    
    97   48  171 1    
    98   48  172 1    
    99   48  173 1    
   100   49   50 am   BACKBONE|DICT|INTERRES
   101   49  174 1    
   102   50   51 2    
   103   50   52 1    
   104   52   53 1    
   105   52   54 1    
   106   52  175 1    
   107   53  176 1    
   108   53  177 1    
   109   53  178 1    
   110   54   55 am   BACKBONE|DICT|INTERRES
   111   54  179 1    
   112   55   56 2    
   113   55   57 1    
   114   57   58 1    
   115   57   59 1    
   116   57  180 1    
   117   58  181 1    
   118   58  182 1    
   119   58  183 1    
   120   59   60 am   BACKBONE|DICT|INTERRES
   121   59  184 1    
   122   60   61 2    
   123   60   62 1    
   124   62   63 1    
   125   62   64 1    
   126   62  185 1    
   127   63  186 1    
   128   63  187 1    
   129   63  188 1    
   130   64   65 am   BACKBONE|DICT|INTERRES
   131   64  189 1    
   132   65   66 2    
   133   67   68 2    
   134   67   69 am   BACKBONE|DICT|INTERRES
   135   69   70 1    
   136   69  190 1    
   137   70   71 1    
   138   70   72 1    
   139   70  191 1    
   140   71  192 1    
   141   71  193 1    
   142   71  194 1    
   143   72   73 2    
   144   72   74 am   BACKBONE|DICT|INTERRES
   145   74   75 1    
   146   74  195 1    
   147   75   76 1    
   148   75   77 1    
   149   75  196 1    
   150   76  197 1    
   151   76  198 1    
   152   76  199 1    
   153   77   78 2    
   154   77   79 am   BACKBONE|DICT|INTERRES
   155   79   80 1    
   156   79  200 1    
   157   80   81 1    
   158   80   82 1    
   159   80  201 1    
   160   81  202 1    
   161   81  203 1    
   162   81  204 1    
   163   82   83 2    
   164   82   84 am   BACKBONE|DICT|INTERRES
   165   84   85 1    
   166   84  205 1    
   167   85   86 1    
   168   85   87 1    
   169   85  206 1    
   170   86  207 1    
   171   86  208 1    
   172   86  209 1    
   173   87   88 2    
   174   87   89 am   BACKBONE|DICT|INTERRES
   175   89   90 1    
   176   89  210 1    
   177   90   91 1    
   178   90   92 1    
   179   90  211 1    
   180   91  212 1    
   181   91  213 1    
   182   91  214 1    
   183   92   93 2    
   184   92   94 am   BACKBONE|DICT|INTERRES
   185   94   95 1    
   186   94  215 1    
   187   95   96 1    
   188   95   97 1    
   189   95  216 1    
   190   96  217 1    
   191   96  218 1    
   192   96  219 1    
   193   97   98 2    
   194   97   99 am   BACKBONE|DICT|INTERRES
   195   99  100 1    
   196   99  220 1    
   197  100  101 1    
   198  100  102 1    
   199  100  221 1    
   200  101  222 1    
   201  101  223 1    
   202  101  224 1    
   203  102  103 2    
   204  102  104 am   BACKBONE|DICT|INTERRES
   205  104  105 1    
   206  104  225 1    
   207  105  106 1    
   208  105  107 1    
   209  105  226 1    
   210  106  227 1    
   211  106  228 1    
   212  106  229 1    
   213  107  108 2    
   214  107  109 am   BACKBONE|DICT|INTERRES
   215  109  110 1    
   216  109  230 1    
   217  110  111 1    
   218  110  112 1    
   219  110  231 1    
   220  111  232 1    
   221  111  233 1    
   222  111  234 1    
   223  112  113 2    
   224  112  114 am   BACKBONE|DICT|INTERRES
   225  114  115 1    
   226  114  235 1    
   227  115  116 1    
   228  115  117 1    
   229  115  236 1    
   230  116  237 1    
   231  116  238 1    
   232  116  239 1    
   233  117  118 2    
   234  117  119 am   BACKBONE|DICT|INTERRES
   235  119  120 1    
   236  119  240 1    
   237  120  121 1    
   238  120  124 1    
   239  120  241 1    
   240  121  122 am   BACKBONE|DICT|INTERRES
   241  121  123 2    
   242  122  242 1    
   243  122  243 1    
   244  124  125 1    
   245  124  244 1    
   246  124  245 1    
   247  125  126 1    
   248  126  246 1    
   249  126  247 1    
@<TRIPOS>SUBSTRUCTURE
     1 UNK         1 GROUP             0       ****    0 ROOT    
