@<TRIPOS>MOLECULE
3R540
247   249    1
SMALL
USER_CHARGES


@<TRIPOS>ATOM
      1 CA          2.5720  -12.3787  -43.6516 C.3       0 UNK        -0.1800 
      2 C           2.6329  -12.9946  -45.0421 C.2       0 UNK         0.5000 
      3 O           2.8143  -14.2037  -45.1771 O.2       0 UNK        -0.5000 
      4 N           2.4905  -12.1616  -46.0758 N.am      1 UNK        -0.5000 
      5 CA          2.4861  -12.5466  -47.4832 C.3       1 UNK         0.1400 
      6 C6          3.9229  -12.7481  -48.0345 C.3       23 UNK        -0.0398 
      7 S7          3.9817  -13.9061  -49.4406 S.3       23 UNK        -0.2404 
      8 C8          3.9241  -15.5063  -48.5620 C.3       23 UNK        -0.0205 
      9 C9          3.8130  -16.7184  -49.4838 C.ar      23 UNK        -0.0193 
     10 C10         3.0465  -16.6800  -50.6541 C.ar      23 UNK        -0.1150 
     11 C11         2.9061  -17.8130  -51.4652 C.ar      23 UNK        -0.0193 
     12 C12         3.5563  -18.9949  -51.0940 C.ar      23 UNK        -0.1150 
     13 C13         4.3224  -19.0530  -49.9255 C.ar      23 UNK        -0.0193 
     14 C14         4.4476  -17.9117  -49.1288 C.ar      23 UNK        -0.1150 
     15 C15         5.0232  -20.3425  -49.5209 C.3       23 UNK        -0.0205 
     16 S16         4.1706  -21.1833  -48.1477 S.3       23 UNK        -0.2404 
     17 C17         2.6679  -21.8065  -48.9733 C.3       23 UNK        -0.0398 
     18 CA          2.1843  -23.1537  -48.3862 C.3       11 UNK         0.1400 
     19 N           1.8126  -23.0450  -46.9710 N.am      11 UNK        -0.5000 
     20 C           1.7400  -24.0852  -46.1264 C.2       10 UNK         0.5000 
     21 O           2.0767  -25.2283  -46.4331 O.2       10 UNK        -0.5000 
     22 CA          1.1748  -23.8255  -44.7121 C.3       10 UNK         0.1400 
     23 CB          2.3181  -23.6707  -43.6983 C.3       10 UNK        -0.1800 
     24 N           0.3068  -22.6489  -44.6287 N.am      10 UNK        -0.5000 
     25 C          -0.8410  -22.4833  -45.2997 C.2       9 UNK         0.5000 
     26 O          -1.3600  -23.3723  -45.9744 O.2       9 UNK        -0.5000 
     27 CA         -1.4779  -21.0785  -45.2830 C.3       9 UNK         0.1400 
     28 CB         -2.7334  -21.0603  -44.4005 C.3       9 UNK        -0.1800 
     29 N          -0.5791  -19.9899  -44.8797 N.am      9 UNK        -0.5000 
     30 C           0.5665  -19.6540  -45.4942 C.2       8 UNK         0.5000 
     31 O           1.0110  -20.2740  -46.4607 O.2       8 UNK        -0.5000 
     32 CA          1.3582  -18.4685  -44.9090 C.3       8 UNK         0.1400 
     33 CB          2.1636  -17.7085  -45.9783 C.3       8 UNK        -0.1800 
     34 N           0.4739  -17.5272  -44.2235 N.am      8 UNK        -0.5000 
     35 C           0.4019  -17.3350  -42.8997 C.2       7 UNK         0.5000 
     36 O           1.0785  -17.9616  -42.0840 O.2       7 UNK        -0.5000 
     37 CA         -0.5927  -16.2701  -42.3901 C.3       7 UNK         0.1400 
     38 CB          0.1634  -15.0018  -41.9695 C.3       7 UNK        -0.1800 
     39 N          -1.6090  -15.9070  -43.3803 N.am      7 UNK        -0.5000 
     40 C          -2.6521  -16.6812  -43.7167 C.2       6 UNK         0.5000 
     41 O          -2.9064  -17.7496  -43.1615 O.2       6 UNK        -0.5000 
     42 CA         -3.5338  -16.2141  -44.8967 C.3       6 UNK         0.1400 
     43 CB         -4.7681  -15.4590  -44.3836 C.3       6 UNK        -0.1800 
     44 N          -2.8266  -15.3678  -45.8628 N.am      6 UNK        -0.5000 
     45 C          -1.7297  -15.7293  -46.5427 C.2       5 UNK         0.5000 
     46 O          -1.2864  -16.8756  -46.5316 O.2       5 UNK        -0.5000 
     47 CA         -0.9533  -14.6326  -47.3007 C.3       5 UNK         0.1400 
     48 CB         -1.0932  -14.8168  -48.8185 C.3       5 UNK        -0.1800 
     49 N          -1.2919  -13.2477  -46.9373 N.am      5 UNK        -0.5000 
     50 C          -1.1751  -12.7119  -45.7101 C.2       4 UNK         0.5000 
     51 O          -0.8077  -13.3624  -44.7314 O.2       4 UNK        -0.5000 
     52 CA         -1.5458  -11.2256  -45.5282 C.3       4 UNK         0.1400 
     53 CB         -0.5730  -10.5043  -44.5794 C.3       4 UNK        -0.1800 
     54 N          -1.5809  -10.5019  -46.7989 N.am      4 UNK        -0.5000 
     55 C          -2.6906  -10.1153  -47.4430 C.2       3 UNK         0.5000 
     56 O          -3.8302  -10.3332  -47.0310 O.2       3 UNK        -0.5000 
     57 CA         -2.5028   -9.3698  -48.7819 C.3       3 UNK         0.1400 
     58 CB         -2.6189   -7.8525  -48.5715 C.3       3 UNK        -0.1800 
     59 N          -1.2278   -9.6602  -49.4431 N.am      3 UNK        -0.5000 
     60 C          -0.8755  -10.8585  -49.9262 C.2       2 UNK         0.5000 
     61 O          -1.6184  -11.8393  -49.9042 O.2       2 UNK        -0.5000 
     62 CA          0.5591  -11.0151  -50.4704 C.3       2 UNK         0.1400 
     63 CB          1.2472   -9.6795  -50.8317 C.3       2 UNK        -0.1800 
     64 N           1.3912  -11.7937  -49.5462 N.am      2 UNK        -0.5000 
     65 C           1.6589  -11.5080  -48.2642 C.2       1 UNK         0.5000 
     66 O           1.2551  -10.4919  -47.6884 O.2       1 UNK        -0.5000 
     67 C           1.0331  -23.7375  -49.2368 C.2       11 UNK         0.5000 
     68 O           1.3071  -24.3156  -50.2889 O.2       11 UNK        -0.5000 
     69 N          -0.2199  -23.6000  -48.7732 N.am      12 UNK        -0.5000 
     70 CA         -1.3898  -24.2323  -49.3814 C.3       12 UNK         0.1400 
     71 CB         -2.6458  -23.3840  -49.1263 C.3       12 UNK        -0.1800 
     72 C          -1.5739  -25.6519  -48.8274 C.2       12 UNK         0.5000 
     73 O          -1.6611  -26.5998  -49.6086 O.2       12 UNK        -0.5000 
     74 N          -1.6183  -25.7630  -47.4897 N.am      13 UNK        -0.5000 
     75 CA         -1.7857  -26.9841  -46.6972 C.3       13 UNK         0.1400 
     76 CB         -0.4692  -27.7905  -46.6789 C.3       13 UNK        -0.1800 
     77 C          -3.0101  -27.8061  -47.1499 C.2       13 UNK         0.5000 
     78 O          -4.1413  -27.4198  -46.8520 O.2       13 UNK        -0.5000 
     79 N          -2.7623  -28.8925  -47.8950 N.am      14 UNK        -0.5000 
     80 CA         -3.7629  -29.7798  -48.4889 C.3       14 UNK         0.1400 
     81 CB         -3.0450  -30.9647  -49.1523 C.3       14 UNK        -0.1800 
     82 C          -4.7060  -29.0900  -49.4948 C.2       14 UNK         0.5000 
     83 O          -5.8220  -29.5735  -49.6932 O.2       14 UNK        -0.5000 
     84 N          -4.2816  -27.9603  -50.0820 N.am      15 UNK        -0.5000 
     85 CA         -5.1000  -27.0933  -50.9336 C.3       15 UNK         0.1400 
     86 CB         -4.1817  -26.2381  -51.8251 C.3       15 UNK        -0.1800 
     87 C          -6.0837  -26.2447  -50.0975 C.2       15 UNK         0.5000 
     88 O          -6.0076  -25.0148  -50.1009 O.2       15 UNK        -0.5000 
     89 N          -6.9707  -26.9361  -49.3669 N.am      16 UNK        -0.5000 
     90 CA         -8.0897  -26.4321  -48.5601 C.3       16 UNK         0.1400 
     91 CB         -9.1771  -25.8551  -49.4901 C.3       16 UNK        -0.1800 
     92 C          -7.7057  -25.4377  -47.4409 C.2       16 UNK         0.5000 
     93 O          -8.5778  -24.7122  -46.9593 O.2       16 UNK        -0.5000 
     94 N          -6.4197  -25.4051  -47.0557 N.am      17 UNK        -0.5000 
     95 CA         -5.7923  -24.4307  -46.1551 C.3       17 UNK         0.1400 
     96 CB         -6.2203  -24.6863  -44.6959 C.3       17 UNK        -0.1800 
     97 C          -6.0092  -22.9676  -46.6083 C.2       17 UNK         0.5000 
     98 O          -6.2570  -22.0907  -45.7778 O.2       17 UNK        -0.5000 
     99 N          -5.9406  -22.7445  -47.9297 N.am      18 UNK        -0.5000 
    100 CA        -6.0828  -21.4445  -48.5879 C.3       18 UNK         0.1400 
    101 CB        -6.1331  -21.6793  -50.1078 C.3       18 UNK        -0.1800 
    102 C         -4.9579  -20.4521  -48.2278 C.2       18 UNK         0.5000 
    103 O         -3.9789  -20.8234  -47.5779 O.2       18 UNK        -0.5000 
    104 N         -5.0955  -19.2026  -48.6917 N.am      19 UNK        -0.5000 
    105 CA        -4.1160  -18.1249  -48.5322 C.3       19 UNK         0.1400 
    106 CB        -4.7887  -16.7824  -48.8652 C.3       19 UNK        -0.1800 
    107 C         -2.8455  -18.3711  -49.3706 C.2       19 UNK         0.5000 
    108 O         -2.6632  -17.7621  -50.4272 O.2       19 UNK        -0.5000 
    109 N         -2.0280  -19.3233  -48.9060 N.am      20 UNK        -0.5000 
    110 CA        -0.7157  -19.7386  -49.4131 C.3       20 UNK         0.1400 
    111 CB         0.2810  -18.5763  -49.2752 C.3       20 UNK        -0.1800 
    112 C         -0.7210  -20.3195  -50.8433 C.2       20 UNK         0.5000 
    113 O          0.3483  -20.5405  -51.4102 O.2       20 UNK        -0.5000 
    114 N         -1.9226  -20.5569  -51.3898 N.am      21 UNK        -0.5000 
    115 CA        -2.2232  -20.9201  -52.7757 C.3       21 UNK         0.1400 
    116 CB        -1.6275  -22.2955  -53.1428 C.3       21 UNK        -0.1800 
    117 C         -1.8613  -19.7994  -53.7762 C.2       21 UNK         0.5000 
    118 O         -1.5501  -20.0879  -54.9334 O.2       21 UNK        -0.5000 
    119 N         -1.9339  -18.5397  -53.3249 N.am      22 UNK        -0.5000 
    120 CA        -1.6868  -17.3426  -54.1435 C.3       22 UNK         0.1400 
    121 C         -2.5354  -16.1009  -53.7462 C.2       22 UNK         0.5000 
    122 N         -3.1535  -16.0435  -52.5725 N.am      22 UNK        -0.7600 
    123 O         -2.6624  -15.1729  -54.5408 O.2       22 UNK        -0.5000 
    124 C124       -0.1776  -17.0080  -54.2811 C.3       23 UNK        -0.0398 
    125 S125        0.6375  -16.6576  -52.6842 S.3       23 UNK        -0.2404 
    126 C126        2.0705  -17.7881  -52.7457 C.3       23 UNK        -0.0205 
    127 H127        2.8683  -11.3297  -43.6684 H         1 UNK         0.0600 
    128 H128        3.2388  -12.9076  -42.9706 H         1 UNK         0.0600 
    129 H129        1.5584  -12.4399  -43.2572 H         1 UNK         0.0600 
    130 H130        2.2956  -11.1792  -45.9270 H         1 UNK         0.3000 
    131 H131        1.9366  -13.4854  -47.5573 H         1 UNK         0.0600 
    132 H132        4.5791  -13.1461  -47.2591 H         1 UNK         0.0800 
    133 H133        4.3685  -11.7973  -48.3325 H         1 UNK         0.0800 
    134 H134        3.0703  -15.5193  -47.8843 H         1 UNK         0.0800 
    135 H135        4.8157  -15.5890  -47.9385 H         1 UNK         0.0800 
    136 H136        2.5456  -15.7638  -50.9278 H         1 UNK         0.1150 
    137 H137        3.4532  -19.8770  -51.7104 H         1 UNK         0.1150 
    138 H138        5.0306  -17.9612  -48.2197 H         1 UNK         0.1150 
    139 H139        5.1140  -21.0210  -50.3704 H         1 UNK         0.0800 
    140 H140        6.0428  -20.1113  -49.2093 H         1 UNK         0.0800 
    141 H141        2.8712  -21.9099  -50.0408 H         1 UNK         0.0800 
    142 H142        1.8930  -21.0488  -48.8842 H         1 UNK         0.0800 
    143 H143        3.0150  -23.8589  -48.4631 H         1 UNK         0.0600 
    144 H144        1.5547  -22.1151  -46.6505 H         1 UNK         0.3000 
    145 H145        0.5809  -24.6984  -44.4330 H         1 UNK         0.0600 
    146 H146        1.9350  -23.5661  -42.6831 H         1 UNK         0.0600 
    147 H147        2.9712  -24.5444  -43.7093 H         1 UNK         0.0600 
    148 H148        2.9340  -22.7977  -43.9182 H         1 UNK         0.0600 
    149 H149        0.6626  -21.8636  -44.1049 H         1 UNK         0.3000 
    150 H150       -1.7778  -20.8704  -46.3094 H         1 UNK         0.0600 
    151 H151       -3.4213  -21.8596  -44.6810 H         1 UNK         0.0600 
    152 H152       -3.2765  -20.1219  -44.5126 H         1 UNK         0.0600 
    153 H153       -2.4883  -21.1872  -43.3456 H         1 UNK         0.0600 
    154 H154       -0.8803  -19.4264  -44.0975 H         1 UNK         0.3000 
    155 H155        2.0732  -18.9004  -44.2066 H         1 UNK         0.0600 
    156 H156        1.5136  -17.1822  -46.6759 H         1 UNK         0.0600 
    157 H157        2.8169  -16.9678  -45.5177 H         1 UNK         0.0600 
    158 H158        2.7989  -18.3799  -46.5577 H         1 UNK         0.0600 
    159 H159       -0.1674  -17.0262  -44.8283 H         1 UNK         0.3000 
    160 H160       -1.0948  -16.6768  -41.5097 H         1 UNK         0.0600 
    161 H161        0.8677  -15.2140  -41.1643 H         1 UNK         0.0600 
    162 H162       -0.5187  -14.2297  -41.6132 H         1 UNK         0.0600 
    163 H163        0.7331  -14.5908  -42.8026 H         1 UNK         0.0600 
    164 H164       -1.4511  -15.0385  -43.8839 H         1 UNK         0.3000 
    165 H165       -3.8746  -17.1098  -45.4172 H         1 UNK         0.0600 
    166 H166       -5.4417  -15.2022  -45.2014 H         1 UNK         0.0600 
    167 H167       -5.3338  -16.0688  -43.6777 H         1 UNK         0.0600 
    168 H168       -4.4909  -14.5362  -43.8723 H         1 UNK         0.0600 
    169 H169       -3.1219  -14.4047  -45.9199 H         1 UNK         0.3000 
    170 H170        0.0954  -14.7865  -47.0418 H         1 UNK         0.0600 
    171 H171       -0.9015  -15.8482  -49.1131 H         1 UNK         0.0600 
    172 H172       -2.0936  -14.5589  -49.1666 H         1 UNK         0.0600 
    173 H173       -0.3787  -14.1963  -49.3583 H         1 UNK         0.0600 
    174 H174       -1.6162  -12.6561  -47.6919 H         1 UNK         0.3000 
    175 H175       -2.5310  -11.2118  -45.0583 H         1 UNK         0.0600 
    176 H176        0.4412  -10.4891  -44.9763 H         1 UNK         0.0600 
    177 H177       -0.8805   -9.4713  -44.4166 H         1 UNK         0.0600 
    178 H178       -0.5398  -10.9864  -43.6017 H         1 UNK         0.0600 
    179 H179       -0.6774  -10.3026  -47.2189 H         1 UNK         0.3000 
    180 H180       -3.3079   -9.6861  -49.4484 H         1 UNK         0.0600 
    181 H181       -3.5713   -7.5939  -48.1066 H         1 UNK         0.0600 
    182 H182       -2.5659   -7.3170  -49.5195 H         1 UNK         0.0600 
    183 H183       -1.8251   -7.4744  -47.9260 H         1 UNK         0.0600 
    184 H184       -0.5466   -8.9151  -49.4630 H         1 UNK         0.3000 
    185 H185        0.4759  -11.6014  -51.3868 H         1 UNK         0.0600 
    186 H186        1.4223   -9.0481  -49.9603 H         1 UNK         0.0600 
    187 H187        2.2135   -9.8590  -51.3032 H         1 UNK         0.0600 
    188 H188        0.6467   -9.1086  -51.5411 H         1 UNK         0.0600 
    189 H189        1.7650  -12.6529  -49.9266 H         1 UNK         0.3000 
    190 H190       -0.3578  -23.1883  -47.8598 H         1 UNK         0.3000 
    191 H191       -1.2480  -24.3022  -50.4616 H         1 UNK         0.0600 
    192 H192       -2.8953  -23.3174  -48.0680 H         1 UNK         0.0600 
    193 H193       -3.5120  -23.8080  -49.6334 H         1 UNK         0.0600 
    194 H194       -2.5218  -22.3694  -49.4954 H         1 UNK         0.0600 
    195 H195       -1.5620  -24.9052  -46.9440 H         1 UNK         0.3000 
    196 H196       -1.9926  -26.6658  -45.6745 H         1 UNK         0.0600 
    197 H197       -0.5816  -28.7197  -46.1187 H         1 UNK         0.0600 
    198 H198        0.3227  -27.2226  -46.1925 H         1 UNK         0.0600 
    199 H199       -0.1221  -28.0419  -47.6816 H         1 UNK         0.0600 
    200 H200       -1.7995  -29.0939  -48.1223 H         1 UNK         0.3000 
    201 H201       -4.3831  -30.1651  -47.6771 H         1 UNK         0.0600 
    202 H202       -2.4446  -31.5179  -48.4300 H         1 UNK         0.0600 
    203 H203       -2.3859  -30.6351  -49.9565 H         1 UNK         0.0600 
    204 H204       -3.7616  -31.6663  -49.5816 H         1 UNK         0.0600 
    205 H205       -3.3527  -27.6167  -49.8553 H         1 UNK         0.3000 
    206 H206       -5.7004  -27.7207  -51.5957 H         1 UNK         0.0600 
    207 H207       -3.5219  -26.8636  -52.4263 H         1 UNK         0.0600 
    208 H208       -4.7664  -25.6267  -52.5134 H         1 UNK         0.0600 
    209 H209       -3.5591  -25.5635  -51.2398 H         1 UNK         0.0600 
    210 H210       -6.8830  -27.9478  -49.4015 H         1 UNK         0.3000 
    211 H211       -8.5122  -27.3014  -48.0547 H         1 UNK         0.0600 
    212 H212       -8.8391  -24.9442  -49.9857 H         1 UNK         0.0600 
    213 H213      -10.0836  -25.6096  -48.9357 H         1 UNK         0.0600 
    214 H214       -9.4580  -26.5721  -50.2615 H         1 UNK         0.0600 
    215 H215       -5.7851  -26.0809  -47.4642 H         1 UNK         0.3000 
    216 H216       -4.7171  -24.6070  -46.2174 H         1 UNK         0.0600 
    217 H217       -5.6674  -24.0450  -44.0086 H         1 UNK         0.0600 
    218 H218       -6.0236  -25.7182  -44.4048 H         1 UNK         0.0600 
    219 H219       -7.2823  -24.4908  -44.5453 H         1 UNK         0.0600 
    220 H220       -5.7814  -23.5352  -48.5434 H         1 UNK         0.3000 
    221 H221       -7.0302  -21.0079  -48.2662 H         1 UNK         0.0600 
    222 H222       -5.2026  -22.1105  -50.4791 H         1 UNK         0.0600 
    223 H223       -6.9424  -22.3602  -50.3727 H         1 UNK         0.0600 
    224 H224       -6.3064  -20.7515  -50.6538 H         1 UNK         0.0600 
    225 H225       -5.9150  -18.9754  -49.2360 H         1 UNK         0.3000 
    226 H226       -3.8090  -18.0929  -47.4860 H         1 UNK         0.0600 
    227 H227       -5.6268  -16.5857  -48.1965 H         1 UNK         0.0600 
    228 H228       -4.0869  -15.9557  -48.7531 H         1 UNK         0.0600 
    229 H229       -5.1624  -16.7594  -49.8896 H         1 UNK         0.0600 
    230 H230       -2.3719  -19.8465  -48.1065 H         1 UNK         0.3000 
    231 H231       -0.3915  -20.5455  -48.7565 H         1 UNK         0.0600 
    232 H232        1.3055  -18.9156  -49.4096 H         1 UNK         0.0600 
    233 H233        0.2233  -18.1265  -48.2875 H         1 UNK         0.0600 
    234 H234        0.0940  -17.7957  -50.0110 H         1 UNK         0.0600 
    235 H235       -2.7233  -20.3219  -50.8222 H         1 UNK         0.3000 
    236 H236       -3.3084  -21.0178  -52.8270 H         1 UNK         0.0600 
    237 H237       -1.9731  -22.6213  -54.1243 H         1 UNK         0.0600 
    238 H238       -0.5381  -22.2750  -53.1725 H         1 UNK         0.0600 
    239 H239       -1.9311  -23.0582  -52.4264 H         1 UNK         0.0600 
    240 H240       -2.1663  -18.3729  -52.3534 H         1 UNK         0.3000 
    241 H241       -2.0433  -17.5749  -55.1491 H         1 UNK         0.0600 
    242 H242       -3.7038  -15.2275  -52.3614 H         1 UNK         0.3800 
    243 H243       -3.0004  -16.7351  -51.8421 H         1 UNK         0.3800 
    244 H244        0.3313  -17.8373  -54.7737 H         1 UNK         0.0800 
    245 H245       -0.0339  -16.1480  -54.9372 H         1 UNK         0.0800 
    246 H246        1.7030  -18.7922  -52.9628 H         1 UNK         0.0800 
    247 H247        2.7150  -17.5013  -53.5773 H         1 UNK         0.0800 
@<TRIPOS>BOND
     1    1    2 1    
     2    1  127 1    
     3    1  128 1    
     4    1  129 1    
     5    2    3 2    
     6    2    4 am   BACKBONE|DICT|INTERRES
     7    4    5 1    
     8    4  130 1    
     9    5    6 1    
    10    5   65 1    
    11    5  131 1    
    12    6    7 1    
    13    6  132 1    
    14    6  133 1    
    15    7    8 1    
    16    8    9 1    
    17    8  134 1    
    18    8  135 1    
    19    9   10 ar   
    20    9   14 ar   
    21   10   11 ar   
    22   10  136 1    
    23   11   12 ar   
    24   11  126 1    
    25   12   13 ar   
    26   12  137 1    
    27   13   14 ar   
    28   13   15 1    
    29   14  138 1    
    30   15   16 1    
    31   15  139 1    
    32   15  140 1    
    33   16   17 1    
    34   17   18 1    
    35   17  141 1    
    36   17  142 1    
    37   18   19 1    
    38   18   67 1    
    39   18  143 1    
    40   19   20 am   BACKBONE|DICT|INTERRES
    41   19  144 1    
    42   20   21 2    
    43   20   22 1    
    44   22   23 1    
    45   22   24 1    
    46   22  145 1    
    47   23  146 1    
    48   23  147 1    
    49   23  148 1    
    50   24   25 am   BACKBONE|DICT|INTERRES
    51   24  149 1    
    52   25   26 2    
    53   25   27 1    
    54   27   28 1    
    55   27   29 1    
    56   27  150 1    
    57   28  151 1    
    58   28  152 1    
    59   28  153 1    
    60   29   30 am   BACKBONE|DICT|INTERRES
    61   29  154 1    
    62   30   31 2    
    63   30   32 1    
    64   32   33 1    
    65   32   34 1    
    66   32  155 1    
    67   33  156 1    
    68   33  157 1    
    69   33  158 1    
    70   34   35 am   BACKBONE|DICT|INTERRES
    71   34  159 1    
    72   35   36 2    
    73   35   37 1    
    74   37   38 1    
    75   37   39 1    
    76   37  160 1    
    77   38  161 1    
    78   38  162 1    
    79   38  163 1    
    80   39   40 am   BACKBONE|DICT|INTERRES
    81   39  164 1    
    82   40   41 2    
    83   40   42 1    
    84   42   43 1    
    85   42   44 1    
    86   42  165 1    
    87   43  166 1    
    88   43  167 1    
    89   43  168 1    
    90   44   45 am   BACKBONE|DICT|INTERRES
    91   44  169 1    
    92   45   46 2    
    93   45   47 1    
    94   47   48 1    
    95   47   49 1    
    96   47  170 1    
    97   48  171 1    
    98   48  172 1    
    99   48  173 1    
   100   49   50 am   BACKBONE|DICT|INTERRES
   101   49  174 1    
   102   50   51 2    
   103   50   52 1    
   104   52   53 1    
   105   52   54 1    
   106   52  175 1    
   107   53  176 1    
   108   53  177 1    
   109   53  178 1    
   110   54   55 am   BACKBONE|DICT|INTERRES
   111   54  179 1    
   112   55   56 2    
   113   55   57 1    
   114   57   58 1    
   115   57   59 1    
   116   57  180 1    
   117   58  181 1    
   118   58  182 1    
   119   58  183 1    
   120   59   60 am   BACKBONE|DICT|INTERRES
   121   59  184 1    
   122   60   61 2    
   123   60   62 1    
   124   62   63 1    
   125   62   64 1    
   126   62  185 1    
   127   63  186 1    
   128   63  187 1    
   129   63  188 1    
   130   64   65 am   BACKBONE|DICT|INTERRES
   131   64  189 1    
   132   65   66 2    
   133   67   68 2    
   134   67   69 am   BACKBONE|DICT|INTERRES
   135   69   70 1    
   136   69  190 1    
   137   70   71 1    
   138   70   72 1    
   139   70  191 1    
   140   71  192 1    
   141   71  193 1    
   142   71  194 1    
   143   72   73 2    
   144   72   74 am   BACKBONE|DICT|INTERRES
   145   74   75 1    
   146   74  195 1    
   147   75   76 1    
   148   75   77 1    
   149   75  196 1    
   150   76  197 1    
   151   76  198 1    
   152   76  199 1    
   153   77   78 2    
   154   77   79 am   BACKBONE|DICT|INTERRES
   155   79   80 1    
   156   79  200 1    
   157   80   81 1    
   158   80   82 1    
   159   80  201 1    
   160   81  202 1    
   161   81  203 1    
   162   81  204 1    
   163   82   83 2    
   164   82   84 am   BACKBONE|DICT|INTERRES
   165   84   85 1    
   166   84  205 1    
   167   85   86 1    
   168   85   87 1    
   169   85  206 1    
   170   86  207 1    
   171   86  208 1    
   172   86  209 1    
   173   87   88 2    
   174   87   89 am   BACKBONE|DICT|INTERRES
   175   89   90 1    
   176   89  210 1    
   177   90   91 1    
   178   90   92 1    
   179   90  211 1    
   180   91  212 1    
   181   91  213 1    
   182   91  214 1    
   183   92   93 2    
   184   92   94 am   BACKBONE|DICT|INTERRES
   185   94   95 1    
   186   94  215 1    
   187   95   96 1    
   188   95   97 1    
   189   95  216 1    
   190   96  217 1    
   191   96  218 1    
   192   96  219 1    
   193   97   98 2    
   194   97   99 am   BACKBONE|DICT|INTERRES
   195   99  100 1    
   196   99  220 1    
   197  100  101 1    
   198  100  102 1    
   199  100  221 1    
   200  101  222 1    
   201  101  223 1    
   202  101  224 1    
   203  102  103 2    
   204  102  104 am   BACKBONE|DICT|INTERRES
   205  104  105 1    
   206  104  225 1    
   207  105  106 1    
   208  105  107 1    
   209  105  226 1    
   210  106  227 1    
   211  106  228 1    
   212  106  229 1    
   213  107  108 2    
   214  107  109 am   BACKBONE|DICT|INTERRES
   215  109  110 1    
   216  109  230 1    
   217  110  111 1    
   218  110  112 1    
   219  110  231 1    
   220  111  232 1    
   221  111  233 1    
   222  111  234 1    
   223  112  113 2    
   224  112  114 am   BACKBONE|DICT|INTERRES
   225  114  115 1    
   226  114  235 1    
   227  115  116 1    
   228  115  117 1    
   229  115  236 1    
   230  116  237 1    
   231  116  238 1    
   232  116  239 1    
   233  117  118 2    
   234  117  119 am   BACKBONE|DICT|INTERRES
   235  119  120 1    
   236  119  240 1    
   237  120  121 1    
   238  120  124 1    
   239  120  241 1    
   240  121  122 am   BACKBONE|DICT|INTERRES
   241  121  123 2    
   242  122  242 1    
   243  122  243 1    
   244  124  125 1    
   245  124  244 1    
   246  124  245 1    
   247  125  126 1    
   248  126  246 1    
   249  126  247 1    
@<TRIPOS>SUBSTRUCTURE
     1 UNK         1 GROUP             0       ****    0 ROOT    
