@<TRIPOS>MOLECULE
3R540
247   249    1
SMALL
USER_CHARGES


@<TRIPOS>ATOM
      1 CA          1.1592   -8.4381  -50.3183 C.3       0 UNK        -0.1800 
      2 C           0.9906   -9.8301  -49.7253 C.2       0 UNK         0.5000 
      3 O           0.2256   -9.9979  -48.7754 O.2       0 UNK        -0.5000 
      4 N           1.6983  -10.8207  -50.2877 N.am      1 UNK        -0.5000 
      5 CA          1.7393  -12.2249  -49.8562 C.3       1 UNK         0.1400 
      6 C6          0.3370  -12.9055  -49.9226 C.3       23 UNK        -0.0398 
      7 S7          0.2469  -14.7368  -49.9603 S.3       23 UNK        -0.2404 
      8 C8          1.7296  -15.2906  -50.8583 C.3       23 UNK        -0.0205 
      9 C9          1.7549  -16.8072  -50.9453 C.ar      23 UNK        -0.0193 
     10 C10         1.0026  -17.4610  -51.9248 C.ar      23 UNK        -0.1150 
     11 C11         1.0060  -18.8555  -52.0094 C.ar      23 UNK        -0.0193 
     12 C12         1.8013  -19.5916  -51.1282 C.ar      23 UNK        -0.1150 
     13 C13         2.5305  -18.9544  -50.1196 C.ar      23 UNK        -0.0193 
     14 C14         2.5097  -17.5590  -50.0382 C.ar      23 UNK        -0.1150 
     15 C15         3.3207  -19.7801  -49.1102 C.3       23 UNK        -0.0205 
     16 S16         2.4320  -19.9867  -47.5268 S.3       23 UNK        -0.2404 
     17 C17         0.8494  -20.7065  -48.0760 C.3       23 UNK        -0.0398 
     18 CA          0.3358  -21.8974  -47.2343 C.3       11 UNK         0.1400 
     19 N           0.0817  -21.5744  -45.8255 N.am      11 UNK        -0.5000 
     20 C          -0.3282  -22.4624  -44.9044 C.2       10 UNK         0.5000 
     21 O          -0.4420  -23.6688  -45.1206 O.2       10 UNK        -0.5000 
     22 CA         -0.7596  -21.9088  -43.5352 C.3       10 UNK         0.1400 
     23 CB          0.4385  -21.7488  -42.5867 C.3       10 UNK        -0.1800 
     24 N          -1.4792  -20.6421  -43.6694 N.am      10 UNK        -0.5000 
     25 C          -2.7138  -20.5334  -44.1824 C.2       9 UNK         0.5000 
     26 O          -3.3955  -21.4988  -44.5240 O.2       9 UNK        -0.5000 
     27 CA         -3.2621  -19.1113  -44.3941 C.3       9 UNK         0.1400 
     28 CB         -3.9724  -18.6075  -43.1292 C.3       9 UNK        -0.1800 
     29 N          -2.2134  -18.1688  -44.7853 N.am      9 UNK        -0.5000 
     30 C          -1.6097  -18.1828  -45.9840 C.2       8 UNK         0.5000 
     31 O          -1.9151  -18.9668  -46.8832 O.2       8 UNK        -0.5000 
     32 CA         -0.4384  -17.1997  -46.1969 C.3       8 UNK         0.1400 
     33 CB         -0.9646  -15.8527  -46.7109 C.3       8 UNK        -0.1800 
     34 N           0.3597  -16.9616  -44.9921 N.am      8 UNK        -0.5000 
     35 C           0.9590  -17.9027  -44.2520 C.2       7 UNK         0.5000 
     36 O           0.9784  -19.0920  -44.5617 O.2       7 UNK        -0.5000 
     37 CA          1.5659  -17.4683  -42.9021 C.3       7 UNK         0.1400 
     38 CB          3.0822  -17.2606  -43.0128 C.3       7 UNK        -0.1800 
     39 N           0.9566  -16.2728  -42.3097 N.am      7 UNK        -0.5000 
     40 C          -0.3414  -16.1310  -41.9982 C.2       6 UNK         0.5000 
     41 O          -1.1878  -16.9968  -42.2271 O.2       6 UNK        -0.5000 
     42 CA         -0.7630  -14.7996  -41.3367 C.3       6 UNK         0.1400 
     43 CB         -2.1098  -14.9001  -40.5911 C.3       6 UNK        -0.1800 
     44 N           0.2713  -14.2297  -40.4674 N.am      6 UNK        -0.5000 
     45 C           0.8505  -14.8058  -39.4005 C.2       5 UNK         0.5000 
     46 O           0.4939  -15.8883  -38.9325 O.2       5 UNK        -0.5000 
     47 CA          2.0368  -14.0517  -38.7529 C.3       5 UNK         0.1400 
     48 CB          3.1076  -15.0148  -38.1983 C.3       5 UNK        -0.1800 
     49 N           2.6580  -13.0442  -39.6249 N.am      5 UNK        -0.5000 
     50 C           3.2304  -13.2490  -40.8202 C.2       4 UNK         0.5000 
     51 O           3.3348  -14.3512  -41.3620 O.2       4 UNK        -0.5000 
     52 CA          3.6966  -11.9882  -41.5698 C.3       4 UNK         0.1400 
     53 CB          5.1940  -12.0689  -41.9054 C.3       4 UNK        -0.1800 
     54 N           2.9389  -11.7912  -42.8056 N.am      4 UNK        -0.5000 
     55 C           1.6068  -11.6641  -42.9030 C.2       3 UNK         0.5000 
     56 O           0.8462  -11.6473  -41.9336 O.2       3 UNK        -0.5000 
     57 CA          1.0217  -11.5537  -44.3241 C.3       3 UNK         0.1400 
     58 CB          0.8066  -10.0824  -44.7086 C.3       3 UNK        -0.1800 
     59 N           1.8554  -12.1938  -45.3431 N.am      3 UNK        -0.5000 
     60 C           2.0402  -13.5139  -45.4611 C.2       2 UNK         0.5000 
     61 O           1.5000  -14.3417  -44.7266 O.2       2 UNK        -0.5000 
     62 CA          2.9491  -13.9636  -46.6218 C.3       2 UNK         0.1400 
     63 CB          3.2199  -15.4776  -46.6378 C.3       2 UNK        -0.1800 
     64 N           2.3647  -13.5871  -47.9058 N.am      2 UNK        -0.5000 
     65 C           2.4526  -12.3870  -48.4884 C.2       1 UNK         0.5000 
     66 O           3.0876  -11.4516  -47.9920 O.2       1 UNK        -0.5000 
     67 C          -0.9226  -22.4765  -47.9105 C.2       11 UNK         0.5000 
     68 O          -0.8406  -23.5409  -48.5197 O.2       11 UNK        -0.5000 
     69 N          -2.0614  -21.7829  -47.7648 N.am      12 UNK        -0.5000 
     70 CA         -3.3556  -22.1939  -48.3105 C.3       12 UNK         0.1400 
     71 CB         -4.3728  -21.0591  -48.1173 C.3       12 UNK        -0.1800 
     72 C          -3.8847  -23.5110  -47.7133 C.2       12 UNK         0.5000 
     73 O          -4.5163  -24.2829  -48.4312 O.2       12 UNK        -0.5000 
     74 N          -3.6125  -23.7580  -46.4249 N.am      13 UNK        -0.5000 
     75 CA         -3.9397  -25.0122  -45.7476 C.3       13 UNK         0.1400 
     76 CB         -3.7943  -24.8341  -44.2287 C.3       13 UNK        -0.1800 
     77 C          -3.0817  -26.1901  -46.2460 C.2       13 UNK         0.5000 
     78 O          -3.6162  -27.2789  -46.4603 O.2       13 UNK        -0.5000 
     79 N          -1.7736  -25.9538  -46.4198 N.am      14 UNK        -0.5000 
     80 CA         -0.8093  -26.9399  -46.9057 C.3       14 UNK         0.1400 
     81 CB          0.6185  -26.4343  -46.6440 C.3       14 UNK        -0.1800 
     82 C          -1.0127  -27.2733  -48.3937 C.2       14 UNK         0.5000 
     83 O          -1.1503  -28.4456  -48.7462 O.2       14 UNK        -0.5000 
     84 N          -1.0485  -26.2361  -49.2371 N.am      15 UNK        -0.5000 
     85 CA         -1.2639  -26.3244  -50.6768 C.3       15 UNK         0.1400 
     86 CB         -0.3468  -25.3092  -51.3839 C.3       15 UNK        -0.1800 
     87 C          -2.7519  -26.0887  -50.9774 C.2       15 UNK         0.5000 
     88 O          -3.1095  -25.0827  -51.5902 O.2       15 UNK        -0.5000 
     89 N          -3.5986  -27.0286  -50.5345 N.am      16 UNK        -0.5000 
     90 CA         -5.0627  -26.9727  -50.6254 C.3       16 UNK         0.1400 
     91 CB         -5.6523  -28.2310  -49.9720 C.3       16 UNK        -0.1800 
     92 C          -5.6123  -26.7943  -52.0551 C.2       16 UNK         0.5000 
     93 O          -6.6487  -26.1548  -52.2337 O.2       16 UNK        -0.5000 
     94 N          -4.8888  -27.3232  -53.0508 N.am      17 UNK        -0.5000 
     95 CA         -5.1892  -27.1696  -54.4756 C.3       17 UNK         0.1400 
     96 CB         -4.3698  -28.2026  -55.2646 C.3       17 UNK        -0.1800 
     97 C          -4.9240  -25.7483  -55.0172 C.2       17 UNK         0.5000 
     98 O          -5.4744  -25.3942  -56.0604 O.2       17 UNK        -0.5000 
     99 N          -4.0915  -24.9667  -54.3163 N.am      18 UNK        -0.5000 
    100 CA        -3.6938  -23.6061  -54.6796 C.3       18 UNK         0.1400 
    101 CB        -2.1584  -23.5230  -54.6584 C.3       18 UNK        -0.1800 
    102 C         -4.3061  -22.5522  -53.7388 C.2       18 UNK         0.5000 
    103 O         -3.9853  -21.3719  -53.8768 O.2       18 UNK        -0.5000 
    104 N         -5.1795  -22.9682  -52.8086 N.am      19 UNK        -0.5000 
    105 CA        -5.7700  -22.1361  -51.7546 C.3       19 UNK         0.1400 
    106 CB        -6.7147  -22.9956  -50.9041 C.3       19 UNK        -0.1800 
    107 C         -6.5032  -20.8791  -52.2593 C.2       19 UNK         0.5000 
    108 O         -6.4814  -19.8537  -51.5797 O.2       19 UNK        -0.5000 
    109 N         -7.0949  -20.9637  -53.4585 N.am      20 UNK        -0.5000 
    110 CA        -7.7420  -19.8484  -54.1516 C.3       20 UNK         0.1400 
    111 CB        -8.5033  -20.3948  -55.3690 C.3       20 UNK        -0.1800 
    112 C         -6.7644  -18.7346  -54.5824 C.2       20 UNK         0.5000 
    113 O         -7.1851  -17.5833  -54.7034 O.2       20 UNK        -0.5000 
    114 N         -5.4907  -19.0879  -54.8026 N.am      21 UNK        -0.5000 
    115 CA        -4.4131  -18.1548  -55.1214 C.3       21 UNK         0.1400 
    116 CB        -3.4492  -18.8073  -56.1262 C.3       21 UNK        -0.1800 
    117 C         -3.6632  -17.7263  -53.8500 C.2       21 UNK         0.5000 
    118 O         -3.3643  -16.5409  -53.6996 O.2       21 UNK        -0.5000 
    119 N         -3.3653  -18.6899  -52.9674 N.am      22 UNK        -0.5000 
    120 CA        -2.6253  -18.4585  -51.7166 C.3       22 UNK         0.1400 
    121 C         -3.4310  -17.7048  -50.6205 C.2       22 UNK         0.5000 
    122 N         -4.7519  -17.8206  -50.5633 N.am      22 UNK        -0.7600 
    123 O         -2.8482  -16.9911  -49.8119 O.2       22 UNK        -0.5000 
    124 C124       -2.0155  -19.7607  -51.1364 C.3       23 UNK        -0.0398 
    125 S125       -1.0154  -20.7646  -52.2941 S.3       23 UNK        -0.2404 
    126 C126        0.1426  -19.5666  -53.0430 C.3       23 UNK        -0.0205 
    127 H127        1.8563   -8.4351  -51.1566 H         1 UNK         0.0600 
    128 H128        1.5362   -7.7515  -49.5603 H         1 UNK         0.0600 
    129 H129        0.1994   -8.0626  -50.6731 H         1 UNK         0.0600 
    130 H130        2.3252  -10.5922  -51.0465 H         1 UNK         0.3000 
    131 H131        2.3890  -12.6979  -50.5907 H         1 UNK         0.0600 
    132 H132       -0.1763  -12.5660  -50.8233 H         1 UNK         0.0800 
    133 H133       -0.2869  -12.5665  -49.0940 H         1 UNK         0.0800 
    134 H134        2.6365  -14.9451  -50.3621 H         1 UNK         0.0800 
    135 H135        1.7331  -14.8597  -51.8608 H         1 UNK         0.0800 
    136 H136        0.4010  -16.8795  -52.6094 H         1 UNK         0.1150 
    137 H137        1.8157  -20.6697  -51.2054 H         1 UNK         0.1150 
    138 H138        3.0732  -17.0622  -49.2620 H         1 UNK         0.1150 
    139 H139        3.5529  -20.7639  -49.5210 H         1 UNK         0.0800 
    140 H140        4.2799  -19.2981  -48.9162 H         1 UNK         0.0800 
    141 H141        0.9710  -21.0533  -49.1007 H         1 UNK         0.0800 
    142 H142        0.1164  -19.9018  -48.1201 H         1 UNK         0.0800 
    143 H143        1.1025  -22.6749  -47.2505 H         1 UNK         0.0600 
    144 H144        0.2261  -20.6098  -45.5410 H         1 UNK         0.3000 
    145 H145       -1.4405  -22.6335  -43.0839 H         1 UNK         0.0600 
    146 H146        0.1282  -21.3466  -41.6223 H         1 UNK         0.0600 
    147 H147        1.2042  -21.0906  -42.9948 H         1 UNK         0.0600 
    148 H148        0.9106  -22.7139  -42.3995 H         1 UNK         0.0600 
    149 H149       -0.9569  -19.7990  -43.4768 H         1 UNK         0.3000 
    150 H150       -3.9988  -19.1530  -45.1992 H         1 UNK         0.0600 
    151 H151       -4.8162  -19.2509  -42.8770 H         1 UNK         0.0600 
    152 H152       -4.3614  -17.5988  -43.2683 H         1 UNK         0.0600 
    153 H153       -3.3046  -18.5945  -42.2674 H         1 UNK         0.0600 
    154 H154       -1.8702  -17.5454  -44.0615 H         1 UNK         0.3000 
    155 H155        0.2221  -17.6265  -46.9541 H         1 UNK         0.0600 
    156 H156       -1.5478  -15.9840  -47.6229 H         1 UNK         0.0600 
    157 H157       -0.1474  -15.1720  -46.9451 H         1 UNK         0.0600 
    158 H158       -1.6061  -15.3643  -45.9765 H         1 UNK         0.0600 
    159 H159        0.4774  -15.9947  -44.7034 H         1 UNK         0.3000 
    160 H160        1.3929  -18.2928  -42.2077 H         1 UNK         0.0600 
    161 H161        3.3201  -16.3364  -43.5374 H         1 UNK         0.0600 
    162 H162        3.5605  -18.0832  -43.5464 H         1 UNK         0.0600 
    163 H163        3.5399  -17.2027  -42.0250 H         1 UNK         0.0600 
    164 H164        1.5911  -15.5099  -42.1031 H         1 UNK         0.3000 
    165 H165       -0.8924  -14.0899  -42.1550 H         1 UNK         0.0600 
    166 H166       -2.3888  -13.9430  -40.1506 H         1 UNK         0.0600 
    167 H167       -2.9127  -15.1895  -41.2702 H         1 UNK         0.0600 
    168 H168       -2.0759  -15.6411  -39.7920 H         1 UNK         0.0600 
    169 H169        0.6310  -13.3301  -40.7703 H         1 UNK         0.3000 
    170 H170        1.6166  -13.5042  -37.9082 H         1 UNK         0.0600 
    171 H171        3.5205  -15.6537  -38.9797 H         1 UNK         0.0600 
    172 H172        3.9322  -14.4676  -37.7416 H         1 UNK         0.0600 
    173 H173        2.6901  -15.6672  -37.4306 H         1 UNK         0.0600 
    174 H174        2.5835  -12.0918  -39.2944 H         1 UNK         0.3000 
    175 H175        3.5354  -11.1136  -40.9364 H         1 UNK         0.0600 
    176 H176        5.4130  -12.9022  -42.5745 H         1 UNK         0.0600 
    177 H177        5.5418  -11.1534  -42.3842 H         1 UNK         0.0600 
    178 H178        5.7887  -12.2089  -41.0018 H         1 UNK         0.0600 
    179 H179        3.4691  -11.8189  -43.6632 H         1 UNK         0.3000 
    180 H180        0.0498  -12.0517  -44.3186 H         1 UNK         0.0600 
    181 H181        0.3300   -9.9962  -45.6856 H         1 UNK         0.0600 
    182 H182        1.7488   -9.5343  -44.7460 H         1 UNK         0.0600 
    183 H183        0.1614   -9.5798  -43.9868 H         1 UNK         0.0600 
    184 H184        2.2986  -11.5889  -46.0256 H         1 UNK         0.3000 
    185 H185        3.9097  -13.4592  -46.4979 H         1 UNK         0.0600 
    186 H186        2.3092  -16.0547  -46.7958 H         1 UNK         0.0600 
    187 H187        3.9205  -15.7390  -47.4304 H         1 UNK         0.0600 
    188 H188        3.6662  -15.8065  -45.7010 H         1 UNK         0.0600 
    189 H189        1.7825  -14.2859  -48.3492 H         1 UNK         0.3000 
    190 H190       -2.0372  -20.8928  -47.2748 H         1 UNK         0.3000 
    191 H191       -3.2228  -22.3583  -49.3818 H         1 UNK         0.0600 
    192 H192       -4.5397  -20.8476  -47.0608 H         1 UNK         0.0600 
    193 H193       -5.3368  -21.3173  -48.5567 H         1 UNK         0.0600 
    194 H194       -4.0355  -20.1373  -48.5912 H         1 UNK         0.0600 
    195 H195       -3.1632  -23.0384  -45.8697 H         1 UNK         0.3000 
    196 H196       -4.9848  -25.2486  -45.9587 H         1 UNK         0.0600 
    197 H197       -4.4502  -24.0454  -43.8599 H         1 UNK         0.0600 
    198 H198       -2.7727  -24.5783  -43.9478 H         1 UNK         0.0600 
    199 H199       -4.0597  -25.7511  -43.7014 H         1 UNK         0.0600 
    200 H200       -1.4039  -25.0388  -46.1795 H         1 UNK         0.3000 
    201 H201       -0.9483  -27.8608  -46.3356 H         1 UNK         0.0600 
    202 H202        0.7934  -26.2881  -45.5779 H         1 UNK         0.0600 
    203 H203        0.8097  -25.4842  -47.1445 H         1 UNK         0.0600 
    204 H204        1.3595  -27.1505  -47.0007 H         1 UNK         0.0600 
    205 H205       -0.9775  -25.2898  -48.8636 H         1 UNK         0.3000 
    206 H206       -1.0003  -27.3193  -51.0413 H         1 UNK         0.0600 
    207 H207        0.6997  -25.4825  -51.1332 H         1 UNK         0.0600 
    208 H208       -0.4393  -25.3921  -52.4671 H         1 UNK         0.0600 
    209 H209       -0.5889  -24.2810  -51.1113 H         1 UNK         0.0600 
    210 H210       -3.2110  -27.8090  -50.0219 H         1 UNK         0.3000 
    211 H211       -5.3924  -26.1092  -50.0476 H         1 UNK         0.0600 
    212 H212       -5.3261  -29.1391  -50.4805 H         1 UNK         0.0600 
    213 H213       -6.7426  -28.2117  -49.9988 H         1 UNK         0.0600 
    214 H214       -5.3558  -28.3057  -48.9252 H         1 UNK         0.0600 
    215 H215       -4.0494  -27.8317  -52.8147 H         1 UNK         0.3000 
    216 H216       -6.2488  -27.3856  -54.6279 H         1 UNK         0.0600 
    217 H217       -4.5898  -28.1445  -56.3315 H         1 UNK         0.0600 
    218 H218       -4.5995  -29.2184  -54.9425 H         1 UNK         0.0600 
    219 H219       -3.2976  -28.0443  -55.1416 H         1 UNK         0.0600 
    220 H220       -3.7192  -25.3005  -53.4319 H         1 UNK         0.3000 
    221 H221       -4.0309  -23.3642  -55.6892 H         1 UNK         0.0600 
    222 H222       -1.7638  -23.6776  -53.6538 H         1 UNK         0.0600 
    223 H223       -1.7117  -24.2694  -55.3151 H         1 UNK         0.0600 
    224 H224       -1.8132  -22.5449  -54.9963 H         1 UNK         0.0600 
    225 H225       -5.3859  -23.9560  -52.7656 H         1 UNK         0.3000 
    226 H226       -4.9501  -21.7978  -51.1191 H         1 UNK         0.0600 
    227 H227       -6.1867  -23.8399  -50.4633 H         1 UNK         0.0600 
    228 H228       -7.1427  -22.4174  -50.0843 H         1 UNK         0.0600 
    229 H229       -7.5405  -23.3918  -51.4963 H         1 UNK         0.0600 
    230 H230       -7.0551  -21.8447  -53.9496 H         1 UNK         0.3000 
    231 H231       -8.4662  -19.4020  -53.4669 H         1 UNK         0.0600 
    232 H232       -9.0233  -19.5940  -55.8965 H         1 UNK         0.0600 
    233 H233       -9.2546  -21.1259  -55.0697 H         1 UNK         0.0600 
    234 H234       -7.8310  -20.8747  -56.0814 H         1 UNK         0.0600 
    235 H235       -5.2068  -20.0444  -54.6189 H         1 UNK         0.3000 
    236 H236       -4.8235  -17.2579  -55.5903 H         1 UNK         0.0600 
    237 H237       -2.9787  -19.7030  -55.7192 H         1 UNK         0.0600 
    238 H238       -3.9682  -19.0893  -57.0423 H         1 UNK         0.0600 
    239 H239       -2.6515  -18.1171  -56.4031 H         1 UNK         0.0600 
    240 H240       -3.5981  -19.6540  -53.1887 H         1 UNK         0.3000 
    241 H241       -1.7947  -17.7968  -51.9618 H         1 UNK         0.0600 
    242 H242       -5.2516  -17.3141  -49.8513 H         1 UNK         0.3800 
    243 H243       -5.2635  -18.4599  -51.1645 H         1 UNK         0.3800 
    244 H244       -1.3906  -19.5300  -50.2714 H         1 UNK         0.0800 
    245 H245       -2.8135  -20.4052  -50.7677 H         1 UNK         0.0800 
    246 H246       -0.4202  -18.8530  -53.6463 H         1 UNK         0.0800 
    247 H247        0.7945  -20.1002  -53.7355 H         1 UNK         0.0800 
@<TRIPOS>BOND
     1    1    2 1    
     2    1  127 1    
     3    1  128 1    
     4    1  129 1    
     5    2    3 2    
     6    2    4 am   BACKBONE|DICT|INTERRES
     7    4    5 1    
     8    4  130 1    
     9    5    6 1    
    10    5   65 1    
    11    5  131 1    
    12    6    7 1    
    13    6  132 1    
    14    6  133 1    
    15    7    8 1    
    16    8    9 1    
    17    8  134 1    
    18    8  135 1    
    19    9   10 ar   
    20    9   14 ar   
    21   10   11 ar   
    22   10  136 1    
    23   11   12 ar   
    24   11  126 1    
    25   12   13 ar   
    26   12  137 1    
    27   13   14 ar   
    28   13   15 1    
    29   14  138 1    
    30   15   16 1    
    31   15  139 1    
    32   15  140 1    
    33   16   17 1    
    34   17   18 1    
    35   17  141 1    
    36   17  142 1    
    37   18   19 1    
    38   18   67 1    
    39   18  143 1    
    40   19   20 am   BACKBONE|DICT|INTERRES
    41   19  144 1    
    42   20   21 2    
    43   20   22 1    
    44   22   23 1    
    45   22   24 1    
    46   22  145 1    
    47   23  146 1    
    48   23  147 1    
    49   23  148 1    
    50   24   25 am   BACKBONE|DICT|INTERRES
    51   24  149 1    
    52   25   26 2    
    53   25   27 1    
    54   27   28 1    
    55   27   29 1    
    56   27  150 1    
    57   28  151 1    
    58   28  152 1    
    59   28  153 1    
    60   29   30 am   BACKBONE|DICT|INTERRES
    61   29  154 1    
    62   30   31 2    
    63   30   32 1    
    64   32   33 1    
    65   32   34 1    
    66   32  155 1    
    67   33  156 1    
    68   33  157 1    
    69   33  158 1    
    70   34   35 am   BACKBONE|DICT|INTERRES
    71   34  159 1    
    72   35   36 2    
    73   35   37 1    
    74   37   38 1    
    75   37   39 1    
    76   37  160 1    
    77   38  161 1    
    78   38  162 1    
    79   38  163 1    
    80   39   40 am   BACKBONE|DICT|INTERRES
    81   39  164 1    
    82   40   41 2    
    83   40   42 1    
    84   42   43 1    
    85   42   44 1    
    86   42  165 1    
    87   43  166 1    
    88   43  167 1    
    89   43  168 1    
    90   44   45 am   BACKBONE|DICT|INTERRES
    91   44  169 1    
    92   45   46 2    
    93   45   47 1    
    94   47   48 1    
    95   47   49 1    
    96   47  170 1    
    97   48  171 1    
    98   48  172 1    
    99   48  173 1    
   100   49   50 am   BACKBONE|DICT|INTERRES
   101   49  174 1    
   102   50   51 2    
   103   50   52 1    
   104   52   53 1    
   105   52   54 1    
   106   52  175 1    
   107   53  176 1    
   108   53  177 1    
   109   53  178 1    
   110   54   55 am   BACKBONE|DICT|INTERRES
   111   54  179 1    
   112   55   56 2    
   113   55   57 1    
   114   57   58 1    
   115   57   59 1    
   116   57  180 1    
   117   58  181 1    
   118   58  182 1    
   119   58  183 1    
   120   59   60 am   BACKBONE|DICT|INTERRES
   121   59  184 1    
   122   60   61 2    
   123   60   62 1    
   124   62   63 1    
   125   62   64 1    
   126   62  185 1    
   127   63  186 1    
   128   63  187 1    
   129   63  188 1    
   130   64   65 am   BACKBONE|DICT|INTERRES
   131   64  189 1    
   132   65   66 2    
   133   67   68 2    
   134   67   69 am   BACKBONE|DICT|INTERRES
   135   69   70 1    
   136   69  190 1    
   137   70   71 1    
   138   70   72 1    
   139   70  191 1    
   140   71  192 1    
   141   71  193 1    
   142   71  194 1    
   143   72   73 2    
   144   72   74 am   BACKBONE|DICT|INTERRES
   145   74   75 1    
   146   74  195 1    
   147   75   76 1    
   148   75   77 1    
   149   75  196 1    
   150   76  197 1    
   151   76  198 1    
   152   76  199 1    
   153   77   78 2    
   154   77   79 am   BACKBONE|DICT|INTERRES
   155   79   80 1    
   156   79  200 1    
   157   80   81 1    
   158   80   82 1    
   159   80  201 1    
   160   81  202 1    
   161   81  203 1    
   162   81  204 1    
   163   82   83 2    
   164   82   84 am   BACKBONE|DICT|INTERRES
   165   84   85 1    
   166   84  205 1    
   167   85   86 1    
   168   85   87 1    
   169   85  206 1    
   170   86  207 1    
   171   86  208 1    
   172   86  209 1    
   173   87   88 2    
   174   87   89 am   BACKBONE|DICT|INTERRES
   175   89   90 1    
   176   89  210 1    
   177   90   91 1    
   178   90   92 1    
   179   90  211 1    
   180   91  212 1    
   181   91  213 1    
   182   91  214 1    
   183   92   93 2    
   184   92   94 am   BACKBONE|DICT|INTERRES
   185   94   95 1    
   186   94  215 1    
   187   95   96 1    
   188   95   97 1    
   189   95  216 1    
   190   96  217 1    
   191   96  218 1    
   192   96  219 1    
   193   97   98 2    
   194   97   99 am   BACKBONE|DICT|INTERRES
   195   99  100 1    
   196   99  220 1    
   197  100  101 1    
   198  100  102 1    
   199  100  221 1    
   200  101  222 1    
   201  101  223 1    
   202  101  224 1    
   203  102  103 2    
   204  102  104 am   BACKBONE|DICT|INTERRES
   205  104  105 1    
   206  104  225 1    
   207  105  106 1    
   208  105  107 1    
   209  105  226 1    
   210  106  227 1    
   211  106  228 1    
   212  106  229 1    
   213  107  108 2    
   214  107  109 am   BACKBONE|DICT|INTERRES
   215  109  110 1    
   216  109  230 1    
   217  110  111 1    
   218  110  112 1    
   219  110  231 1    
   220  111  232 1    
   221  111  233 1    
   222  111  234 1    
   223  112  113 2    
   224  112  114 am   BACKBONE|DICT|INTERRES
   225  114  115 1    
   226  114  235 1    
   227  115  116 1    
   228  115  117 1    
   229  115  236 1    
   230  116  237 1    
   231  116  238 1    
   232  116  239 1    
   233  117  118 2    
   234  117  119 am   BACKBONE|DICT|INTERRES
   235  119  120 1    
   236  119  240 1    
   237  120  121 1    
   238  120  124 1    
   239  120  241 1    
   240  121  122 am   BACKBONE|DICT|INTERRES
   241  121  123 2    
   242  122  242 1    
   243  122  243 1    
   244  124  125 1    
   245  124  244 1    
   246  124  245 1    
   247  125  126 1    
   248  126  246 1    
   249  126  247 1    
@<TRIPOS>SUBSTRUCTURE
     1 UNK         1 GROUP             0       ****    0 ROOT    
