@<TRIPOS>MOLECULE
3R540
247   249    1
SMALL
USER_CHARGES


@<TRIPOS>ATOM
      1 CA          1.2676  -18.3385  -51.5135 C.3       0 UNK        -0.1800 
      2 C           1.5071  -17.5626  -50.2251 C.2       0 UNK         0.5000 
      3 O           2.6163  -17.5901  -49.6923 O.2       0 UNK        -0.5000 
      4 N           0.4666  -16.8926  -49.7154 N.am      1 UNK        -0.5000 
      5 CA          0.4871  -16.1303  -48.4638 C.3       1 UNK         0.1400 
      6 C6         -0.9335  -15.7071  -48.0217 C.3       23 UNK        -0.0398 
      7 S7         -1.9627  -17.1515  -47.6375 S.3       23 UNK        -0.2404 
      8 C8         -3.5867  -16.3659  -47.3769 C.3       23 UNK        -0.0205 
      9 C9         -4.7467  -17.3446  -47.5251 C.ar      23 UNK        -0.0193 
     10 C10        -5.9256  -16.9331  -48.1536 C.ar      23 UNK        -0.1150 
     11 C11        -6.9876  -17.8245  -48.3328 C.ar      23 UNK        -0.0193 
     12 C12        -6.8694  -19.1386  -47.8704 C.ar      23 UNK        -0.1150 
     13 C13        -5.6897  -19.5663  -47.2590 C.ar      23 UNK        -0.0193 
     14 C14        -4.6452  -18.6628  -47.0699 C.ar      23 UNK        -0.1150 
     15 C15        -5.4999  -21.0196  -46.8726 C.3       23 UNK        -0.0205 
     16 S16        -4.8204  -21.9217  -48.2952 S.3       23 UNK        -0.2404 
     17 C17        -3.9854  -23.3287  -47.5036 C.3       23 UNK        -0.0398 
     18 CA         -2.4491  -23.2353  -47.6640 C.3       11 UNK         0.1400 
     19 N          -1.8626  -22.1136  -46.9096 N.am      11 UNK        -0.5000 
     20 C          -0.5590  -21.7999  -46.8584 C.2       10 UNK         0.5000 
     21 O           0.3100  -22.4660  -47.4183 O.2       10 UNK        -0.5000 
     22 CA         -0.1139  -20.5606  -46.0583 C.3       10 UNK         0.1400 
     23 CB          0.6738  -19.6030  -46.9650 C.3       10 UNK        -0.1800 
     24 N          -1.1768  -19.8127  -45.3815 N.am      10 UNK        -0.5000 
     25 C          -1.8546  -20.2337  -44.3043 C.2       9 UNK         0.5000 
     26 O          -1.7837  -21.3813  -43.8627 O.2       9 UNK        -0.5000 
     27 CA         -2.7162  -19.1729  -43.5974 C.3       9 UNK         0.1400 
     28 CB         -3.3065  -19.6590  -42.2614 C.3       9 UNK        -0.1800 
     29 N          -1.8935  -17.9888  -43.3644 N.am      9 UNK        -0.5000 
     30 C          -2.2891  -16.7170  -43.5105 C.2       8 UNK         0.5000 
     31 O          -3.4365  -16.3967  -43.8179 O.2       8 UNK        -0.5000 
     32 CA         -1.2404  -15.6081  -43.2758 C.3       8 UNK         0.1400 
     33 CB         -1.6071  -14.7638  -42.0457 C.3       8 UNK        -0.1800 
     34 N           0.1074  -16.1503  -43.1002 N.am      8 UNK        -0.5000 
     35 C           0.9547  -16.4253  -44.1010 C.2       7 UNK         0.5000 
     36 O           0.8018  -15.9930  -45.2433 O.2       7 UNK        -0.5000 
     37 CA          2.1557  -17.3495  -43.8006 C.3       7 UNK         0.1400 
     38 CB          3.4744  -16.7922  -44.3569 C.3       7 UNK        -0.1800 
     39 N           2.3232  -17.6568  -42.3811 N.am      7 UNK        -0.5000 
     40 C           1.5847  -18.5301  -41.6828 C.2       6 UNK         0.5000 
     41 O           0.6744  -19.1940  -42.1785 O.2       6 UNK        -0.5000 
     42 CA          1.8683  -18.6228  -40.1699 C.3       6 UNK         0.1400 
     43 CB          2.8362  -19.7779  -39.8741 C.3       6 UNK        -0.1800 
     44 N           2.4166  -17.3801  -39.6151 N.am      6 UNK        -0.5000 
     45 C           1.7518  -16.2177  -39.5502 C.2       5 UNK         0.5000 
     46 O           0.5706  -16.1023  -39.8833 O.2       5 UNK        -0.5000 
     47 CA          2.5273  -14.9736  -39.0577 C.3       5 UNK         0.1400 
     48 CB          4.0613  -15.1625  -39.0269 C.3       5 UNK        -0.1800 
     49 N           2.1829  -13.7657  -39.8194 N.am      5 UNK        -0.5000 
     50 C           2.2837  -13.5963  -41.1456 C.2       4 UNK         0.5000 
     51 O           2.7157  -14.4486  -41.9253 O.2       4 UNK        -0.5000 
     52 CA          1.8438  -12.2338  -41.6948 C.3       4 UNK         0.1400 
     53 CB          3.0323  -11.2599  -41.7685 C.3       4 UNK        -0.1800 
     54 N           1.2781  -12.4297  -43.0248 N.am      4 UNK        -0.5000 
     55 C           0.3683  -11.6388  -43.6053 C.2       3 UNK         0.5000 
     56 O          -0.0608  -10.6061  -43.0875 O.2       3 UNK        -0.5000 
     57 CA         -0.1726  -12.0968  -44.9770 C.3       3 UNK         0.1400 
     58 CB         -0.8041  -10.9525  -45.7983 C.3       3 UNK        -0.1800 
     59 N           0.8080  -12.8472  -45.7713 N.am      3 UNK        -0.5000 
     60 C           1.9395  -12.3773  -46.3248 C.2       2 UNK         0.5000 
     61 O           2.3232  -11.2121  -46.2225 O.2       2 UNK        -0.5000 
     62 CA          2.7950  -13.3770  -47.1292 C.3       2 UNK         0.1400 
     63 CB          4.0789  -13.7144  -46.3559 C.3       2 UNK        -0.1800 
     64 N           2.0604  -14.6143  -47.3988 N.am      2 UNK        -0.5000 
     65 C           1.4008  -14.8922  -48.5289 C.2       1 UNK         0.5000 
     66 O           1.4367  -14.1980  -49.5473 O.2       1 UNK        -0.5000 
     67 C          -1.8105  -24.6077  -47.3658 C.2       11 UNK         0.5000 
     68 O          -1.7271  -25.4306  -48.2771 O.2       11 UNK        -0.5000 
     69 N          -1.3437  -24.8181  -46.1276 N.am      12 UNK        -0.5000 
     70 CA         -0.6410  -26.0310  -45.7041 C.3       12 UNK         0.1400 
     71 CB         -0.5459  -26.0412  -44.1708 C.3       12 UNK        -0.1800 
     72 C           0.7609  -26.1836  -46.3304 C.2       12 UNK         0.5000 
     73 O           1.2091  -27.3125  -46.5326 O.2       12 UNK        -0.5000 
     74 N           1.4239  -25.0573  -46.6240 N.am      13 UNK        -0.5000 
     75 CA          2.7496  -25.0047  -47.2421 C.3       13 UNK         0.1400 
     76 CB          3.5332  -23.8220  -46.6504 C.3       13 UNK        -0.1800 
     77 C           2.6461  -24.8715  -48.7702 C.2       13 UNK         0.5000 
     78 O           3.4084  -25.5126  -49.4938 O.2       13 UNK        -0.5000 
     79 N           1.6917  -24.0520  -49.2307 N.am      14 UNK        -0.5000 
     80 CA          1.4000  -23.7866  -50.6396 C.3       14 UNK         0.1400 
     81 CB          0.5643  -22.4981  -50.7242 C.3       14 UNK        -0.1800 
     82 C           0.6756  -24.9509  -51.3454 C.2       14 UNK         0.5000 
     83 O           0.6208  -24.9625  -52.5750 O.2       14 UNK        -0.5000 
     84 N           0.1245  -25.8887  -50.5590 N.am      15 UNK        -0.5000 
     85 CA         -0.6604  -27.0583  -50.9668 C.3       15 UNK         0.1400 
     86 CB          0.2054  -28.0520  -51.7696 C.3       15 UNK        -0.1800 
     87 C          -1.9674  -26.6616  -51.6839 C.2       15 UNK         0.5000 
     88 O          -2.3283  -27.2716  -52.6919 O.2       15 UNK        -0.5000 
     89 N          -2.6380  -25.6343  -51.1361 N.am      16 UNK        -0.5000 
     90 CA         -3.8656  -24.9975  -51.6294 C.3       16 UNK         0.1400 
     91 CB         -5.0760  -25.9276  -51.4108 C.3       16 UNK        -0.1800 
     92 C          -3.7238  -24.5202  -53.0912 C.2       16 UNK         0.5000 
     93 O          -4.3974  -25.0344  -53.9860 O.2       16 UNK        -0.5000 
     94 N          -2.7969  -23.5746  -53.2984 N.am      17 UNK        -0.5000 
     95 CA         -2.3336  -23.1004  -54.6063 C.3       17 UNK         0.1400 
     96 CB         -1.1887  -22.0974  -54.3903 C.3       17 UNK        -0.1800 
     97 C          -3.4091  -22.4783  -55.5185 C.2       17 UNK         0.5000 
     98 O          -3.2392  -22.5110  -56.7381 O.2       17 UNK        -0.5000 
     99 N          -4.4665  -21.9089  -54.9209 N.am      18 UNK        -0.5000 
    100 CA        -5.5290  -21.1314  -55.5709 C.3       18 UNK         0.1400 
    101 CB        -6.3657  -22.0044  -56.5293 C.3       18 UNK        -0.1800 
    102 C         -4.9718  -19.8494  -56.2226 C.2       18 UNK         0.5000 
    103 O         -5.2988  -19.5274  -57.3667 O.2       18 UNK        -0.5000 
    104 N         -4.1158  -19.1584  -55.4645 N.am      19 UNK        -0.5000 
    105 CA        -3.4360  -17.9251  -55.8371 C.3       19 UNK         0.1400 
    106 CB        -1.9826  -18.2555  -56.2358 C.3       19 UNK        -0.1800 
    107 C         -3.5731  -16.9564  -54.6521 C.2       19 UNK         0.5000 
    108 O         -4.7013  -16.6476  -54.2640 O.2       19 UNK        -0.5000 
    109 N         -2.4467  -16.5179  -54.0704 N.am      20 UNK        -0.5000 
    110 CA        -2.4106  -15.7328  -52.8319 C.3       20 UNK         0.1400 
    111 CB        -0.9865  -15.2047  -52.5994 C.3       20 UNK        -0.1800 
    112 C         -2.9045  -16.5396  -51.6150 C.2       20 UNK         0.5000 
    113 O         -3.5543  -15.9744  -50.7380 O.2       20 UNK        -0.5000 
    114 N         -2.6120  -17.8472  -51.6170 N.am      21 UNK        -0.5000 
    115 CA        -3.2348  -18.8462  -50.7558 C.3       21 UNK         0.1400 
    116 CB        -2.1778  -19.8876  -50.3513 C.3       21 UNK        -0.1800 
    117 C         -4.3696  -19.4898  -51.5654 C.2       21 UNK         0.5000 
    118 O         -4.1088  -19.9784  -52.6688 O.2       21 UNK        -0.5000 
    119 N         -5.5995  -19.4447  -51.0413 N.am      22 UNK        -0.5000 
    120 CA        -6.8176  -19.8569  -51.7637 C.3       22 UNK         0.1400 
    121 C         -6.9757  -21.3894  -51.9822 C.2       22 UNK         0.5000 
    122 N         -6.2570  -22.2438  -51.2676 N.am      22 UNK        -0.7600 
    123 O         -7.7683  -21.8097  -52.8192 O.2       22 UNK        -0.5000 
    124 C124       -8.1151  -19.2803  -51.1383 C.3       23 UNK        -0.0398 
    125 S125       -8.0710  -17.4748  -50.8613 S.3       23 UNK        -0.2404 
    126 C126       -8.2486  -17.3698  -49.0502 C.3       23 UNK        -0.0205 
    127 H127        0.2122  -18.3666  -51.7817 H         1 UNK         0.0600 
    128 H128        1.6116  -19.3668  -51.4014 H         1 UNK         0.0600 
    129 H129        1.8185  -17.8810  -52.3352 H         1 UNK         0.0600 
    130 H130       -0.4244  -16.9199  -50.1866 H         1 UNK         0.3000 
    131 H131        0.8973  -16.7959  -47.7043 H         1 UNK         0.0600 
    132 H132       -0.9041  -15.0801  -47.1292 H         1 UNK         0.0800 
    133 H133       -1.4178  -15.1165  -48.8019 H         1 UNK         0.0800 
    134 H134       -3.6188  -15.9153  -46.3858 H         1 UNK         0.0800 
    135 H135       -3.7021  -15.5504  -48.0918 H         1 UNK         0.0800 
    136 H136       -6.0109  -15.9212  -48.5248 H         1 UNK         0.1150 
    137 H137       -7.6781  -19.8406  -48.0147 H         1 UNK         0.1150 
    138 H138       -3.7325  -19.0044  -46.6077 H         1 UNK         0.1150 
    139 H139       -4.8288  -21.0930  -46.0158 H         1 UNK         0.0800 
    140 H140       -6.4479  -21.4672  -46.5703 H         1 UNK         0.0800 
    141 H141       -4.2666  -23.4016  -46.4517 H         1 UNK         0.0800 
    142 H142       -4.3739  -24.2294  -47.9839 H         1 UNK         0.0800 
    143 H143       -2.2370  -23.0358  -48.7160 H         1 UNK         0.0600 
    144 H144       -2.5084  -21.5222  -46.4109 H         1 UNK         0.3000 
    145 H145        0.5697  -20.9208  -45.2866 H         1 UNK         0.0600 
    146 H146        1.0096  -18.7237  -46.4189 H         1 UNK         0.0600 
    147 H147        1.5632  -20.0859  -47.3723 H         1 UNK         0.0600 
    148 H148        0.0740  -19.2685  -47.8107 H         1 UNK         0.0600 
    149 H149       -1.3161  -18.8621  -45.6959 H         1 UNK         0.3000 
    150 H150       -3.5415  -18.9320  -44.2693 H         1 UNK         0.0600 
    151 H151       -3.9378  -20.5364  -42.4073 H         1 UNK         0.0600 
    152 H152       -3.9241  -18.8879  -41.8007 H         1 UNK         0.0600 
    153 H153       -2.5224  -19.9282  -41.5524 H         1 UNK         0.0600 
    154 H154       -0.9360  -18.1833  -43.0914 H         1 UNK         0.3000 
    155 H155       -1.2611  -14.9629  -44.1540 H         1 UNK         0.0600 
    156 H156       -0.8569  -13.9992  -41.8478 H         1 UNK         0.0600 
    157 H157       -1.6997  -15.3794  -41.1504 H         1 UNK         0.0600 
    158 H158       -2.5604  -14.2546  -42.1920 H         1 UNK         0.0600 
    159 H159        0.3433  -16.4613  -42.1664 H         1 UNK         0.3000 
    160 H160        1.9563  -18.2870  -44.3219 H         1 UNK         0.0600 
    161 H161        3.7601  -15.8644  -43.8631 H         1 UNK         0.0600 
    162 H162        3.4031  -16.5951  -45.4270 H         1 UNK         0.0600 
    163 H163        4.2881  -17.5042  -44.2184 H         1 UNK         0.0600 
    164 H164        3.0007  -17.0949  -41.8848 H         1 UNK         0.3000 
    165 H165        0.9206  -18.8310  -39.6687 H         1 UNK         0.0600 
    166 H166        3.8106  -19.6161  -40.3369 H         1 UNK         0.0600 
    167 H167        2.9889  -19.9002  -38.8016 H         1 UNK         0.0600 
    168 H168        2.4445  -20.7222  -40.2550 H         1 UNK         0.0600 
    169 H169        3.3822  -17.4028  -39.3202 H         1 UNK         0.3000 
    170 H170        2.1940  -14.7969  -38.0342 H         1 UNK         0.0600 
    171 H171        4.3529  -15.9513  -38.3327 H         1 UNK         0.0600 
    172 H172        4.4624  -15.4140  -40.0096 H         1 UNK         0.0600 
    173 H173        4.5581  -14.2512  -38.6936 H         1 UNK         0.0600 
    174 H174        1.7914  -13.0128  -39.2713 H         1 UNK         0.3000 
    175 H175        1.0774  -11.8248  -41.0327 H         1 UNK         0.0600 
    176 H176        2.7196  -10.2803  -42.1304 H         1 UNK         0.0600 
    177 H177        3.4818  -11.1151  -40.7855 H         1 UNK         0.0600 
    178 H178        3.8111  -11.6300  -42.4367 H         1 UNK         0.0600 
    179 H179        1.5739  -13.2820  -43.4823 H         1 UNK         0.3000 
    180 H180       -0.9769  -12.7965  -44.7541 H         1 UNK         0.0600 
    181 H181       -1.1740  -11.3132  -46.7581 H         1 UNK         0.0600 
    182 H182       -1.6518  -10.5149  -45.2699 H         1 UNK         0.0600 
    183 H183       -0.0937  -10.1485  -45.9919 H         1 UNK         0.0600 
    184 H184        0.6165  -13.8346  -45.8760 H         1 UNK         0.3000 
    185 H185        3.0768  -12.8976  -48.0689 H         1 UNK         0.0600 
    186 H186        4.7128  -12.8326  -46.2548 H         1 UNK         0.0600 
    187 H187        3.8600  -14.0708  -45.3499 H         1 UNK         0.0600 
    188 H188        4.6638  -14.4786  -46.8681 H         1 UNK         0.0600 
    189 H189        1.9161  -15.2321  -46.6054 H         1 UNK         0.3000 
    190 H190       -1.4454  -24.0846  -45.4402 H         1 UNK         0.3000 
    191 H191       -1.2350  -26.8934  -46.0143 H         1 UNK         0.0600 
    192 H192       -0.0477  -26.9444  -43.8158 H         1 UNK         0.0600 
    193 H193       -1.5355  -26.0166  -43.7140 H         1 UNK         0.0600 
    194 H194        0.0184  -25.1859  -43.7969 H         1 UNK         0.0600 
    195 H195        0.9556  -24.1685  -46.4950 H         1 UNK         0.3000 
    196 H196        3.3023  -25.9198  -47.0187 H         1 UNK         0.0600 
    197 H197        4.5321  -23.7602  -47.0838 H         1 UNK         0.0600 
    198 H198        3.6527  -23.9304  -45.5723 H         1 UNK         0.0600 
    199 H199        3.0345  -22.8700  -46.8373 H         1 UNK         0.0600 
    200 H200        1.1424  -23.5226  -48.5555 H         1 UNK         0.3000 
    201 H201        2.3448  -23.6195  -51.1606 H         1 UNK         0.0600 
    202 H202        1.0590  -21.6712  -50.2140 H         1 UNK         0.0600 
    203 H203       -0.4193  -22.6256  -50.2721 H         1 UNK         0.0600 
    204 H204        0.4157  -22.1928  -51.7591 H         1 UNK         0.0600 
    205 H205        0.1820  -25.7428  -49.5601 H         1 UNK         0.3000 
    206 H206       -0.9611  -27.5587  -50.0450 H         1 UNK         0.0600 
    207 H207        1.1144  -28.3099  -51.2261 H         1 UNK         0.0600 
    208 H208       -0.3364  -28.9802  -51.9540 H         1 UNK         0.0600 
    209 H209        0.4975  -27.6469  -52.7388 H         1 UNK         0.0600 
    210 H210       -2.2614  -25.2674  -50.2695 H         1 UNK         0.3000 
    211 H211       -4.0208  -24.1062  -51.0197 H         1 UNK         0.0600 
    212 H212       -4.9792  -26.8586  -51.9702 H         1 UNK         0.0600 
    213 H213       -6.0016  -25.4494  -51.7326 H         1 UNK         0.0600 
    214 H214       -5.1901  -26.1816  -50.3569 H         1 UNK         0.0600 
    215 H215       -2.2856  -23.2275  -52.5018 H         1 UNK         0.3000 
    216 H216       -1.9300  -23.9651  -55.1369 H         1 UNK         0.0600 
    217 H217       -1.4974  -21.2628  -53.7592 H         1 UNK         0.0600 
    218 H218       -0.8443  -21.6809  -55.3381 H         1 UNK         0.0600 
    219 H219       -0.3301  -22.5802  -53.9253 H         1 UNK         0.0600 
    220 H220       -4.4691  -21.8823  -53.9094 H         1 UNK         0.3000 
    221 H221       -6.1942  -20.7947  -54.7775 H         1 UNK         0.0600 
    222 H222       -5.7914  -22.3289  -57.3971 H         1 UNK         0.0600 
    223 H223       -6.7404  -22.8935  -56.0219 H         1 UNK         0.0600 
    224 H224       -7.2308  -21.4534  -56.8996 H         1 UNK         0.0600 
    225 H225       -3.9760  -19.4704  -54.5061 H         1 UNK         0.3000 
    226 H226       -3.9345  -17.4552  -56.6873 H         1 UNK         0.0600 
    227 H227       -1.9628  -18.9324  -57.0903 H         1 UNK         0.0600 
    228 H228       -1.4363  -17.3581  -56.5288 H         1 UNK         0.0600 
    229 H229       -1.4356  -18.7399  -55.4258 H         1 UNK         0.0600 
    230 H230       -1.5582  -16.7908  -54.4646 H         1 UNK         0.3000 
    231 H231       -3.0763  -14.8753  -52.9509 H         1 UNK         0.0600 
    232 H232       -0.9210  -14.6477  -51.6634 H         1 UNK         0.0600 
    233 H233       -0.6844  -14.5283  -53.3990 H         1 UNK         0.0600 
    234 H234       -0.2558  -16.0116  -52.5535 H         1 UNK         0.0600 
    235 H235       -2.1383  -18.2174  -52.4272 H         1 UNK         0.3000 
    236 H236       -3.6398  -18.3840  -49.8556 H         1 UNK         0.0600 
    237 H237       -2.6036  -20.6420  -49.6918 H         1 UNK         0.0600 
    238 H238       -1.7614  -20.4036  -51.2171 H         1 UNK         0.0600 
    239 H239       -1.3533  -19.4210  -49.8134 H         1 UNK         0.0600 
    240 H240       -5.7433  -19.0179  -50.1362 H         1 UNK         0.3000 
    241 H241       -6.7385  -19.4255  -52.7635 H         1 UNK         0.0600 
    242 H242       -5.6571  -21.9153  -50.5252 H         1 UNK         0.3800 
    243 H243       -6.4153  -23.2282  -51.3975 H         1 UNK         0.3800 
    244 H244       -8.9624  -19.4789  -51.7972 H         1 UNK         0.0800 
    245 H245       -8.3490  -19.7930  -50.2058 H         1 UNK         0.0800 
    246 H246       -9.1101  -17.9566  -48.7275 H         1 UNK         0.0800 
    247 H247       -8.4686  -16.3362  -48.7786 H         1 UNK         0.0800 
@<TRIPOS>BOND
     1    1    2 1    
     2    1  127 1    
     3    1  128 1    
     4    1  129 1    
     5    2    3 2    
     6    2    4 am   BACKBONE|DICT|INTERRES
     7    4    5 1    
     8    4  130 1    
     9    5    6 1    
    10    5   65 1    
    11    5  131 1    
    12    6    7 1    
    13    6  132 1    
    14    6  133 1    
    15    7    8 1    
    16    8    9 1    
    17    8  134 1    
    18    8  135 1    
    19    9   10 ar   
    20    9   14 ar   
    21   10   11 ar   
    22   10  136 1    
    23   11   12 ar   
    24   11  126 1    
    25   12   13 ar   
    26   12  137 1    
    27   13   14 ar   
    28   13   15 1    
    29   14  138 1    
    30   15   16 1    
    31   15  139 1    
    32   15  140 1    
    33   16   17 1    
    34   17   18 1    
    35   17  141 1    
    36   17  142 1    
    37   18   19 1    
    38   18   67 1    
    39   18  143 1    
    40   19   20 am   BACKBONE|DICT|INTERRES
    41   19  144 1    
    42   20   21 2    
    43   20   22 1    
    44   22   23 1    
    45   22   24 1    
    46   22  145 1    
    47   23  146 1    
    48   23  147 1    
    49   23  148 1    
    50   24   25 am   BACKBONE|DICT|INTERRES
    51   24  149 1    
    52   25   26 2    
    53   25   27 1    
    54   27   28 1    
    55   27   29 1    
    56   27  150 1    
    57   28  151 1    
    58   28  152 1    
    59   28  153 1    
    60   29   30 am   BACKBONE|DICT|INTERRES
    61   29  154 1    
    62   30   31 2    
    63   30   32 1    
    64   32   33 1    
    65   32   34 1    
    66   32  155 1    
    67   33  156 1    
    68   33  157 1    
    69   33  158 1    
    70   34   35 am   BACKBONE|DICT|INTERRES
    71   34  159 1    
    72   35   36 2    
    73   35   37 1    
    74   37   38 1    
    75   37   39 1    
    76   37  160 1    
    77   38  161 1    
    78   38  162 1    
    79   38  163 1    
    80   39   40 am   BACKBONE|DICT|INTERRES
    81   39  164 1    
    82   40   41 2    
    83   40   42 1    
    84   42   43 1    
    85   42   44 1    
    86   42  165 1    
    87   43  166 1    
    88   43  167 1    
    89   43  168 1    
    90   44   45 am   BACKBONE|DICT|INTERRES
    91   44  169 1    
    92   45   46 2    
    93   45   47 1    
    94   47   48 1    
    95   47   49 1    
    96   47  170 1    
    97   48  171 1    
    98   48  172 1    
    99   48  173 1    
   100   49   50 am   BACKBONE|DICT|INTERRES
   101   49  174 1    
   102   50   51 2    
   103   50   52 1    
   104   52   53 1    
   105   52   54 1    
   106   52  175 1    
   107   53  176 1    
   108   53  177 1    
   109   53  178 1    
   110   54   55 am   BACKBONE|DICT|INTERRES
   111   54  179 1    
   112   55   56 2    
   113   55   57 1    
   114   57   58 1    
   115   57   59 1    
   116   57  180 1    
   117   58  181 1    
   118   58  182 1    
   119   58  183 1    
   120   59   60 am   BACKBONE|DICT|INTERRES
   121   59  184 1    
   122   60   61 2    
   123   60   62 1    
   124   62   63 1    
   125   62   64 1    
   126   62  185 1    
   127   63  186 1    
   128   63  187 1    
   129   63  188 1    
   130   64   65 am   BACKBONE|DICT|INTERRES
   131   64  189 1    
   132   65   66 2    
   133   67   68 2    
   134   67   69 am   BACKBONE|DICT|INTERRES
   135   69   70 1    
   136   69  190 1    
   137   70   71 1    
   138   70   72 1    
   139   70  191 1    
   140   71  192 1    
   141   71  193 1    
   142   71  194 1    
   143   72   73 2    
   144   72   74 am   BACKBONE|DICT|INTERRES
   145   74   75 1    
   146   74  195 1    
   147   75   76 1    
   148   75   77 1    
   149   75  196 1    
   150   76  197 1    
   151   76  198 1    
   152   76  199 1    
   153   77   78 2    
   154   77   79 am   BACKBONE|DICT|INTERRES
   155   79   80 1    
   156   79  200 1    
   157   80   81 1    
   158   80   82 1    
   159   80  201 1    
   160   81  202 1    
   161   81  203 1    
   162   81  204 1    
   163   82   83 2    
   164   82   84 am   BACKBONE|DICT|INTERRES
   165   84   85 1    
   166   84  205 1    
   167   85   86 1    
   168   85   87 1    
   169   85  206 1    
   170   86  207 1    
   171   86  208 1    
   172   86  209 1    
   173   87   88 2    
   174   87   89 am   BACKBONE|DICT|INTERRES
   175   89   90 1    
   176   89  210 1    
   177   90   91 1    
   178   90   92 1    
   179   90  211 1    
   180   91  212 1    
   181   91  213 1    
   182   91  214 1    
   183   92   93 2    
   184   92   94 am   BACKBONE|DICT|INTERRES
   185   94   95 1    
   186   94  215 1    
   187   95   96 1    
   188   95   97 1    
   189   95  216 1    
   190   96  217 1    
   191   96  218 1    
   192   96  219 1    
   193   97   98 2    
   194   97   99 am   BACKBONE|DICT|INTERRES
   195   99  100 1    
   196   99  220 1    
   197  100  101 1    
   198  100  102 1    
   199  100  221 1    
   200  101  222 1    
   201  101  223 1    
   202  101  224 1    
   203  102  103 2    
   204  102  104 am   BACKBONE|DICT|INTERRES
   205  104  105 1    
   206  104  225 1    
   207  105  106 1    
   208  105  107 1    
   209  105  226 1    
   210  106  227 1    
   211  106  228 1    
   212  106  229 1    
   213  107  108 2    
   214  107  109 am   BACKBONE|DICT|INTERRES
   215  109  110 1    
   216  109  230 1    
   217  110  111 1    
   218  110  112 1    
   219  110  231 1    
   220  111  232 1    
   221  111  233 1    
   222  111  234 1    
   223  112  113 2    
   224  112  114 am   BACKBONE|DICT|INTERRES
   225  114  115 1    
   226  114  235 1    
   227  115  116 1    
   228  115  117 1    
   229  115  236 1    
   230  116  237 1    
   231  116  238 1    
   232  116  239 1    
   233  117  118 2    
   234  117  119 am   BACKBONE|DICT|INTERRES
   235  119  120 1    
   236  119  240 1    
   237  120  121 1    
   238  120  124 1    
   239  120  241 1    
   240  121  122 am   BACKBONE|DICT|INTERRES
   241  121  123 2    
   242  122  242 1    
   243  122  243 1    
   244  124  125 1    
   245  124  244 1    
   246  124  245 1    
   247  125  126 1    
   248  126  246 1    
   249  126  247 1    
@<TRIPOS>SUBSTRUCTURE
     1 UNK         1 GROUP             0       ****    0 ROOT    
