@<TRIPOS>MOLECULE
3R540
247   249    1
SMALL
USER_CHARGES


@<TRIPOS>ATOM
      1 CA         -2.1963  -11.7489  -45.2530 C.3       0 UNK        -0.1800 
      2 C          -0.9462  -11.6277  -46.1135 C.2       0 UNK         0.5000 
      3 O          -0.1688  -10.6896  -45.9352 O.2       0 UNK        -0.5000 
      4 N          -0.7567  -12.5677  -47.0472 N.am      1 UNK        -0.5000 
      5 CA          0.4457  -12.7049  -47.8751 C.3       1 UNK         0.1400 
      6 C6          0.1695  -13.5575  -49.1418 C.3       23 UNK        -0.0398 
      7 S7         -0.3658  -15.2706  -48.8063 S.3       23 UNK        -0.2404 
      8 C8         -0.4986  -15.9070  -50.5024 C.3       23 UNK        -0.0205 
      9 C9         -0.8210  -17.3916  -50.5035 C.ar      23 UNK        -0.0193 
     10 C10        -2.1483  -17.8275  -50.5469 C.ar      23 UNK        -0.1150 
     11 C11        -2.4465  -19.1926  -50.5710 C.ar      23 UNK        -0.0193 
     12 C12        -1.4053  -20.1227  -50.5149 C.ar      23 UNK        -0.1150 
     13 C13        -0.0731  -19.7004  -50.4664 C.ar      23 UNK        -0.0193 
     14 C14         0.2118  -18.3318  -50.4742 C.ar      23 UNK        -0.1150 
     15 C15         1.0495  -20.7305  -50.4313 C.3       23 UNK        -0.0205 
     16 S16         2.2808  -20.4579  -49.1100 S.3       23 UNK        -0.2404 
     17 C17         1.2644  -20.2349  -47.6100 C.3       23 UNK        -0.0398 
     18 CA          0.8877  -21.5648  -46.9112 C.3       11 UNK         0.1400 
     19 N           0.7475  -21.4037  -45.4620 N.am      11 UNK        -0.5000 
     20 C           0.5575  -22.4031  -44.5891 C.2       10 UNK         0.5000 
     21 O           0.5398  -23.5932  -44.9036 O.2       10 UNK        -0.5000 
     22 CA          0.2887  -22.0015  -43.1266 C.3       10 UNK         0.1400 
     23 CB          1.5992  -21.6824  -42.3922 C.3       10 UNK        -0.1800 
     24 N          -0.6314  -20.8673  -43.0171 N.am      10 UNK        -0.5000 
     25 C          -1.9112  -20.8973  -43.4171 C.2       9 UNK         0.5000 
     26 O          -2.4609  -21.9014  -43.8679 O.2       9 UNK        -0.5000 
     27 CA         -2.7007  -19.5787  -43.3451 C.3       9 UNK         0.1400 
     28 CB         -3.2106  -19.3249  -41.9190 C.3       9 UNK        -0.1800 
     29 N          -1.9270  -18.4263  -43.8054 N.am      9 UNK        -0.5000 
     30 C          -1.4479  -18.2712  -45.0486 C.2       8 UNK         0.5000 
     31 O          -1.6305  -19.0770  -45.9597 O.2       8 UNK        -0.5000 
     32 CA         -0.5702  -17.0319  -45.2975 C.3       8 UNK         0.1400 
     33 CB         -1.4439  -15.7737  -45.4098 C.3       8 UNK        -0.1800 
     34 N           0.4376  -16.8492  -44.2504 N.am      8 UNK        -0.5000 
     35 C           1.3849  -17.7462  -43.9378 C.2       7 UNK         0.5000 
     36 O           1.5568  -18.8021  -44.5442 O.2       7 UNK        -0.5000 
     37 CA          2.2413  -17.4503  -42.6966 C.3       7 UNK         0.1400 
     38 CB          3.4198  -16.5252  -43.0390 C.3       7 UNK        -0.1800 
     39 N           1.4361  -16.8706  -41.6217 N.am      7 UNK        -0.5000 
     40 C           0.5445  -17.5608  -40.8953 C.2       6 UNK         0.5000 
     41 O           0.3529  -18.7706  -41.0221 O.2       6 UNK        -0.5000 
     42 CA         -0.3016  -16.7586  -39.8871 C.3       6 UNK         0.1400 
     43 CB          0.4586  -16.5806  -38.5645 C.3       6 UNK        -0.1800 
     44 N          -0.6941  -15.4446  -40.3998 N.am      6 UNK        -0.5000 
     45 C          -1.5352  -15.2542  -41.4262 C.2       5 UNK         0.5000 
     46 O          -2.1329  -16.1696  -41.9897 O.2       5 UNK        -0.5000 
     47 CA         -1.6981  -13.8102  -41.9470 C.3       5 UNK         0.1400 
     48 CB         -2.9072  -13.1316  -41.2877 C.3       5 UNK        -0.1800 
     49 N          -0.5106  -12.9667  -41.7660 N.am      5 UNK        -0.5000 
     50 C           0.7039  -13.2400  -42.2613 C.2       4 UNK         0.5000 
     51 O           0.9529  -14.2481  -42.9250 O.2       4 UNK        -0.5000 
     52 CA          1.8376  -12.2795  -41.8774 C.3       4 UNK         0.1400 
     53 CB          2.1407  -12.4112  -40.3679 C.3       4 UNK        -0.1800 
     54 N           3.0222  -12.6098  -42.6678 N.am      4 UNK        -0.5000 
     55 C           4.1771  -11.9337  -42.6836 C.2       3 UNK         0.5000 
     56 O           4.3598  -10.8764  -42.0785 O.2       3 UNK        -0.5000 
     57 CA          5.3376  -12.5410  -43.4952 C.3       3 UNK         0.1400 
     58 CB          6.1552  -13.5036  -42.6198 C.3       3 UNK        -0.1800 
     59 N           4.9131  -13.2430  -44.7073 N.am      3 UNK        -0.5000 
     60 C           4.4533  -12.6362  -45.8090 C.2       2 UNK         0.5000 
     61 O           4.3123  -11.4146  -45.9015 O.2       2 UNK        -0.5000 
     62 CA          4.1323  -13.5201  -47.0350 C.3       2 UNK         0.1400 
     63 CB          4.2018  -15.0439  -46.7706 C.3       2 UNK        -0.1800 
     64 N           2.8506  -13.1453  -47.6405 N.am      2 UNK        -0.5000 
     65 C           1.6478  -13.2327  -47.0554 C.2       1 UNK         0.5000 
     66 O           1.4742  -13.7112  -45.9331 O.2       1 UNK        -0.5000 
     67 C          -0.3791  -22.1862  -47.5310 C.2       11 UNK         0.5000 
     68 O          -0.2756  -23.1623  -48.2728 O.2       11 UNK        -0.5000 
     69 N          -1.5525  -21.6417  -47.1791 N.am      12 UNK        -0.5000 
     70 CA         -2.8605  -22.1247  -47.6172 C.3       12 UNK         0.1400 
     71 CB         -3.9561  -21.1621  -47.1372 C.3       12 UNK        -0.1800 
     72 C          -3.1544  -23.5642  -47.1655 C.2       12 UNK         0.5000 
     73 O          -3.6758  -24.3442  -47.9592 O.2       12 UNK        -0.5000 
     74 N          -2.7808  -23.9080  -45.9258 N.am      13 UNK        -0.5000 
     75 CA         -2.8833  -25.2623  -45.3818 C.3       13 UNK         0.1400 
     76 CB         -2.5808  -25.2372  -43.8759 C.3       13 UNK        -0.1800 
     77 C          -1.9696  -26.2688  -46.1069 C.2       13 UNK         0.5000 
     78 O          -2.3921  -27.3993  -46.3517 O.2       13 UNK        -0.5000 
     79 N          -0.7463  -25.8402  -46.4474 N.am      14 UNK        -0.5000 
     80 CA          0.2368  -26.6400  -47.1769 C.3       14 UNK         0.1400 
     81 CB          1.6218  -25.9848  -47.0563 C.3       14 UNK        -0.1800 
     82 C          -0.1446  -26.8506  -48.6538 C.2       14 UNK         0.5000 
     83 O          -0.0714  -27.9780  -49.1446 O.2       14 UNK        -0.5000 
     84 N          -0.5378  -25.7667  -49.3357 N.am      15 UNK        -0.5000 
     85 CA         -0.9009  -25.7679  -50.7543 C.3       15 UNK         0.1400 
     86 CB         -0.8362  -24.3299  -51.2893 C.3       15 UNK        -0.1800 
     87 C          -2.2914  -26.3622  -51.0359 C.2       15 UNK         0.5000 
     88 O          -2.5268  -26.8420  -52.1447 O.2       15 UNK        -0.5000 
     89 N          -3.1942  -26.2758  -50.0507 N.am      16 UNK        -0.5000 
     90 CA         -4.6259  -26.5939  -50.0729 C.3       16 UNK         0.1400 
     91 CB         -4.9066  -28.0351  -50.5405 C.3       16 UNK        -0.1800 
     92 C          -5.4643  -25.5615  -50.8517 C.2       16 UNK         0.5000 
     93 O          -6.5042  -25.1355  -50.3475 O.2       16 UNK        -0.5000 
     94 N          -5.0018  -25.1583  -52.0410 N.am      17 UNK        -0.5000 
     95 CA         -5.6099  -24.1565  -52.9122 C.3       17 UNK         0.1400 
     96 CB         -6.9318  -24.6918  -53.5083 C.3       17 UNK        -0.1800 
     97 C          -4.6138  -23.7645  -54.0199 C.2       17 UNK         0.5000 
     98 O          -3.4686  -24.2212  -54.0098 O.2       17 UNK        -0.5000 
     99 N          -5.0811  -22.9441  -54.9713 N.am      18 UNK        -0.5000 
    100 CA        -4.4918  -22.6092  -56.2750 C.3       18 UNK         0.1400 
    101 CB        -4.2759  -23.8763  -57.1244 C.3       18 UNK        -0.1800 
    102 C         -3.2198  -21.7402  -56.2637 C.2       18 UNK         0.5000 
    103 O         -3.0424  -20.9605  -57.2008 O.2       18 UNK        -0.5000 
    104 N         -2.3728  -21.8621  -55.2329 N.am      19 UNK        -0.5000 
    105 CA        -1.0499  -21.2297  -55.1193 C.3       19 UNK         0.1400 
    106 CB        -0.4091  -21.6349  -53.7860 C.3       19 UNK        -0.1800 
    107 C         -1.0288  -19.6971  -55.2958 C.2       19 UNK         0.5000 
    108 O         -0.0728  -19.1658  -55.8624 O.2       19 UNK        -0.5000 
    109 N         -2.1005  -19.0293  -54.8605 N.am      20 UNK        -0.5000 
    110 CA        -2.4013  -17.6311  -55.1595 C.3       20 UNK         0.1400 
    111 CB        -1.9238  -16.7335  -54.0047 C.3       20 UNK        -0.1800 
    112 C         -3.9091  -17.5135  -55.4371 C.2       20 UNK         0.5000 
    113 O         -4.5764  -16.6372  -54.8841 O.2       20 UNK        -0.5000 
    114 N         -4.4323  -18.4615  -56.2319 N.am      21 UNK        -0.5000 
    115 CA        -5.8453  -18.7758  -56.4879 C.3       21 UNK         0.1400 
    116 CB        -6.6179  -17.5805  -57.0783 C.3       21 UNK        -0.1800 
    117 C         -6.5474  -19.3642  -55.2486 C.2       21 UNK         0.5000 
    118 O         -7.0744  -20.4750  -55.3200 O.2       21 UNK        -0.5000 
    119 N         -6.4798  -18.6367  -54.1275 N.am      22 UNK        -0.5000 
    120 CA        -6.9007  -19.0442  -52.7755 C.3       22 UNK         0.1400 
    121 C         -8.4422  -19.1716  -52.5759 C.2       22 UNK         0.5000 
    122 N         -9.2711  -18.6573  -53.4759 N.am      22 UNK        -0.7600 
    123 O         -8.8994  -19.7166  -51.5749 O.2       22 UNK        -0.5000 
    124 C124       -6.1303  -20.2901  -52.2519 C.3       23 UNK        -0.0398 
    125 S125       -4.3134  -20.1245  -52.3777 S.3       23 UNK        -0.2404 
    126 C126       -3.8904  -19.6591  -50.6714 C.3       23 UNK        -0.0205 
    127 H127       -2.6868  -12.7137  -45.3851 H         1 UNK         0.0600 
    128 H128       -2.9072  -10.9640  -45.5105 H         1 UNK         0.0600 
    129 H129       -1.9372  -11.6423  -44.1998 H         1 UNK         0.0600 
    130 H130       -1.4160  -13.3276  -47.1292 H         1 UNK         0.3000 
    131 H131        0.7193  -11.7040  -48.2160 H         1 UNK         0.0600 
    132 H132        1.0532  -13.5874  -49.7810 H         1 UNK         0.0800 
    133 H133       -0.6051  -13.0732  -49.7381 H         1 UNK         0.0800 
    134 H134        0.4377  -15.7317  -51.0345 H         1 UNK         0.0800 
    135 H135       -1.2694  -15.3533  -51.0408 H         1 UNK         0.0800 
    136 H136       -2.9485  -17.1018  -50.5811 H         1 UNK         0.1150 
    137 H137       -1.6344  -21.1783  -50.5303 H         1 UNK         0.1150 
    138 H138        1.2394  -17.9978  -50.4447 H         1 UNK         0.1150 
    139 H139        0.6448  -21.7367  -50.3278 H         1 UNK         0.0800 
    140 H140        1.5664  -20.7120  -51.3911 H         1 UNK         0.0800 
    141 H141        0.3917  -19.6118  -47.8117 H         1 UNK         0.0800 
    142 H142        1.8855  -19.6377  -46.9433 H         1 UNK         0.0800 
    143 H143        1.7048  -22.2745  -47.0581 H         1 UNK         0.0600 
    144 H144        0.7950  -20.4520  -45.1071 H         1 UNK         0.3000 
    145 H145       -0.1765  -22.8553  -42.6296 H         1 UNK         0.0600 
    146 H146        1.4171  -21.4572  -41.3413 H         1 UNK         0.0600 
    147 H147        2.1127  -20.8281  -42.8326 H         1 UNK         0.0600 
    148 H148        2.2831  -22.5312  -42.4299 H         1 UNK         0.0600 
    149 H149       -0.2612  -20.0132  -42.6155 H         1 UNK         0.3000 
    150 H150       -3.5675  -19.6764  -44.0016 H         1 UNK         0.0600 
    151 H151       -3.8022  -20.1677  -41.5594 H         1 UNK         0.0600 
    152 H152       -3.8472  -18.4408  -41.8804 H         1 UNK         0.0600 
    153 H153       -2.3895  -19.1757  -41.2174 H         1 UNK         0.0600 
    154 H154       -1.7751  -17.6841  -43.1282 H         1 UNK         0.3000 
    155 H155       -0.0404  -17.1700  -46.2423 H         1 UNK         0.0600 
    156 H156       -2.0695  -15.8184  -46.3016 H         1 UNK         0.0600 
    157 H157       -0.8341  -14.8752  -45.4779 H         1 UNK         0.0600 
    158 H158       -2.1104  -15.6593  -44.5569 H         1 UNK         0.0600 
    159 H159        0.4186  -15.9725  -43.7385 H         1 UNK         0.3000 
    160 H160        2.6539  -18.3964  -42.3401 H         1 UNK         0.0600 
    161 H161        3.0882  -15.5795  -43.4650 H         1 UNK         0.0600 
    162 H162        4.0784  -16.9955  -43.7701 H         1 UNK         0.0600 
    163 H163        4.0180  -16.3070  -42.1546 H         1 UNK         0.0600 
    164 H164        1.4655  -15.8645  -41.5331 H         1 UNK         0.3000 
    165 H165       -1.2097  -17.3308  -39.6852 H         1 UNK         0.0600 
    166 H166       -0.1600  -16.0813  -37.8185 H         1 UNK         0.0600 
    167 H167        0.7504  -17.5464  -38.1497 H         1 UNK         0.0600 
    168 H168        1.3672  -15.9917  -38.6967 H         1 UNK         0.0600 
    169 H169       -0.2511  -14.6389  -39.9845 H         1 UNK         0.3000 
    170 H170       -1.8892  -13.8742  -43.0190 H         1 UNK         0.0600 
    171 H171       -2.7612  -13.0036  -40.2145 H         1 UNK         0.0600 
    172 H172       -3.0942  -12.1494  -41.7221 H         1 UNK         0.0600 
    173 H173       -3.8122  -13.7244  -41.4281 H         1 UNK         0.0600 
    174 H174       -0.6361  -12.1313  -41.2126 H         1 UNK         0.3000 
    175 H175        1.5255  -11.2604  -42.1131 H         1 UNK         0.0600 
    176 H176        2.4906  -13.4135  -40.1168 H         1 UNK         0.0600 
    177 H177        2.9028  -11.7034  -40.0435 H         1 UNK         0.0600 
    178 H178        1.2558  -12.2116  -39.7629 H         1 UNK         0.0600 
    179 H179        2.9088  -13.4327  -43.2476 H         1 UNK         0.3000 
    180 H180        5.9939  -11.7200  -43.7921 H         1 UNK         0.0600 
    181 H181        7.0279  -13.8796  -43.1541 H         1 UNK         0.0600 
    182 H182        5.5618  -14.3600  -42.2989 H         1 UNK         0.0600 
    183 H183        6.5173  -13.0016  -41.7216 H         1 UNK         0.0600 
    184 H184        5.0055  -14.2477  -44.7091 H         1 UNK         0.3000 
    185 H185        4.8964  -13.2862  -47.7775 H         1 UNK         0.0600 
    186 H186        3.5103  -15.3629  -45.9902 H         1 UNK         0.0600 
    187 H187        3.9563  -15.6051  -47.6723 H         1 UNK         0.0600 
    188 H188        5.2052  -15.3487  -46.4716 H         1 UNK         0.0600 
    189 H189        2.9175  -12.7070  -48.5480 H         1 UNK         0.3000 
    190 H190       -1.5521  -20.8093  -46.5928 H         1 UNK         0.3000 
    191 H191       -2.8600  -22.1245  -48.7079 H         1 UNK         0.0600 
    192 H192       -3.7813  -20.1508  -47.5049 H         1 UNK         0.0600 
    193 H193       -4.0028  -21.1170  -46.0491 H         1 UNK         0.0600 
    194 H194       -4.9368  -21.4760  -47.4967 H         1 UNK         0.0600 
    195 H195       -2.4163  -23.1908  -45.3047 H         1 UNK         0.3000 
    196 H196       -3.9143  -25.5972  -45.5134 H         1 UNK         0.0600 
    197 H197       -3.2794  -24.5905  -43.3450 H         1 UNK         0.0600 
    198 H198       -1.5722  -24.8764  -43.6733 H         1 UNK         0.0600 
    199 H199       -2.6670  -26.2345  -43.4430 H         1 UNK         0.0600 
    200 H200       -0.4600  -24.9069  -46.1712 H         1 UNK         0.3000 
    201 H201        0.2910  -27.6232  -46.7046 H         1 UNK         0.0600 
    202 H202        1.9323  -25.9119  -46.0138 H         1 UNK         0.0600 
    203 H203        1.6324  -24.9789  -47.4770 H         1 UNK         0.0600 
    204 H204        2.3781  -26.5693  -47.5815 H         1 UNK         0.0600 
    205 H205       -0.5296  -24.8611  -48.8684 H         1 UNK         0.3000 
    206 H206       -0.1694  -26.3669  -51.3008 H         1 UNK         0.0600 
    207 H207       -1.5107  -23.6673  -50.7456 H         1 UNK         0.0600 
    208 H208        0.1728  -23.9261  -51.2111 H         1 UNK         0.0600 
    209 H209       -1.1225  -24.2955  -52.3407 H         1 UNK         0.0600 
    210 H210       -2.9089  -25.7854  -49.2098 H         1 UNK         0.3000 
    211 H211       -4.9453  -26.5312  -49.0314 H         1 UNK         0.0600 
    212 H212       -4.6909  -28.1749  -51.5998 H         1 UNK         0.0600 
    213 H213       -5.9565  -28.2894  -50.3909 H         1 UNK         0.0600 
    214 H214       -4.3134  -28.7552  -49.9769 H         1 UNK         0.0600 
    215 H215       -4.1230  -25.5393  -52.3828 H         1 UNK         0.3000 
    216 H216       -5.8102  -23.2704  -52.3104 H         1 UNK         0.0600 
    217 H217       -7.4314  -23.9396  -54.1193 H         1 UNK         0.0600 
    218 H218       -7.6413  -24.9785  -52.7328 H         1 UNK         0.0600 
    219 H219       -6.7584  -25.5656  -54.1377 H         1 UNK         0.0600 
    220 H220       -6.0092  -22.5613  -54.8439 H         1 UNK         0.3000 
    221 H221       -5.2531  -22.0162  -56.7832 H         1 UNK         0.0600 
    222 H222       -3.9537  -23.6184  -58.1341 H         1 UNK         0.0600 
    223 H223       -3.5130  -24.5281  -56.6977 H         1 UNK         0.0600 
    224 H224       -5.1970  -24.4520  -57.2157 H         1 UNK         0.0600 
    225 H225       -2.6023  -22.5675  -54.5395 H         1 UNK         0.3000 
    226 H226       -0.4347  -21.6412  -55.9218 H         1 UNK         0.0600 
    227 H227       -0.1804  -22.6997  -53.7736 H         1 UNK         0.0600 
    228 H228        0.5280  -21.1027  -53.6182 H         1 UNK         0.0600 
    229 H229       -1.0694  -21.4202  -52.9469 H         1 UNK         0.0600 
    230 H230       -2.8281  -19.5453  -54.3822 H         1 UNK         0.3000 
    231 H231       -1.8886  -17.3255  -56.0739 H         1 UNK         0.0600 
    232 H232       -0.8687  -16.8951  -53.7831 H         1 UNK         0.0600 
    233 H233       -2.4921  -16.9272  -53.0963 H         1 UNK         0.0600 
    234 H234       -2.0496  -15.6789  -54.2516 H         1 UNK         0.0600 
    235 H235       -3.7836  -19.1403  -56.6190 H         1 UNK         0.3000 
    236 H236       -5.8373  -19.5591  -57.2473 H         1 UNK         0.0600 
    237 H237       -6.7214  -16.7598  -56.3685 H         1 UNK         0.0600 
    238 H238       -6.1213  -17.1929  -57.9678 H         1 UNK         0.0600 
    239 H239       -7.6242  -17.8804  -57.3729 H         1 UNK         0.0600 
    240 H240       -5.9888  -17.7493  -54.1877 H         1 UNK         0.3000 
    241 H241       -6.6175  -18.2097  -52.1334 H         1 UNK         0.0600 
    242 H242       -8.9112  -18.1999  -54.2980 H         1 UNK         0.3800 
    243 H243      -10.2666  -18.7332  -53.3369 H         1 UNK         0.3800 
    244 H244       -6.4337  -21.1678  -52.8198 H         1 UNK         0.0800 
    245 H245       -6.3933  -20.5009  -51.2140 H         1 UNK         0.0800 
    246 H246       -4.5637  -18.8711  -50.3305 H         1 UNK         0.0800 
    247 H247       -4.0560  -20.5139  -50.0165 H         1 UNK         0.0800 
@<TRIPOS>BOND
     1    1    2 1    
     2    1  127 1    
     3    1  128 1    
     4    1  129 1    
     5    2    3 2    
     6    2    4 am   BACKBONE|DICT|INTERRES
     7    4    5 1    
     8    4  130 1    
     9    5    6 1    
    10    5   65 1    
    11    5  131 1    
    12    6    7 1    
    13    6  132 1    
    14    6  133 1    
    15    7    8 1    
    16    8    9 1    
    17    8  134 1    
    18    8  135 1    
    19    9   10 ar   
    20    9   14 ar   
    21   10   11 ar   
    22   10  136 1    
    23   11   12 ar   
    24   11  126 1    
    25   12   13 ar   
    26   12  137 1    
    27   13   14 ar   
    28   13   15 1    
    29   14  138 1    
    30   15   16 1    
    31   15  139 1    
    32   15  140 1    
    33   16   17 1    
    34   17   18 1    
    35   17  141 1    
    36   17  142 1    
    37   18   19 1    
    38   18   67 1    
    39   18  143 1    
    40   19   20 am   BACKBONE|DICT|INTERRES
    41   19  144 1    
    42   20   21 2    
    43   20   22 1    
    44   22   23 1    
    45   22   24 1    
    46   22  145 1    
    47   23  146 1    
    48   23  147 1    
    49   23  148 1    
    50   24   25 am   BACKBONE|DICT|INTERRES
    51   24  149 1    
    52   25   26 2    
    53   25   27 1    
    54   27   28 1    
    55   27   29 1    
    56   27  150 1    
    57   28  151 1    
    58   28  152 1    
    59   28  153 1    
    60   29   30 am   BACKBONE|DICT|INTERRES
    61   29  154 1    
    62   30   31 2    
    63   30   32 1    
    64   32   33 1    
    65   32   34 1    
    66   32  155 1    
    67   33  156 1    
    68   33  157 1    
    69   33  158 1    
    70   34   35 am   BACKBONE|DICT|INTERRES
    71   34  159 1    
    72   35   36 2    
    73   35   37 1    
    74   37   38 1    
    75   37   39 1    
    76   37  160 1    
    77   38  161 1    
    78   38  162 1    
    79   38  163 1    
    80   39   40 am   BACKBONE|DICT|INTERRES
    81   39  164 1    
    82   40   41 2    
    83   40   42 1    
    84   42   43 1    
    85   42   44 1    
    86   42  165 1    
    87   43  166 1    
    88   43  167 1    
    89   43  168 1    
    90   44   45 am   BACKBONE|DICT|INTERRES
    91   44  169 1    
    92   45   46 2    
    93   45   47 1    
    94   47   48 1    
    95   47   49 1    
    96   47  170 1    
    97   48  171 1    
    98   48  172 1    
    99   48  173 1    
   100   49   50 am   BACKBONE|DICT|INTERRES
   101   49  174 1    
   102   50   51 2    
   103   50   52 1    
   104   52   53 1    
   105   52   54 1    
   106   52  175 1    
   107   53  176 1    
   108   53  177 1    
   109   53  178 1    
   110   54   55 am   BACKBONE|DICT|INTERRES
   111   54  179 1    
   112   55   56 2    
   113   55   57 1    
   114   57   58 1    
   115   57   59 1    
   116   57  180 1    
   117   58  181 1    
   118   58  182 1    
   119   58  183 1    
   120   59   60 am   BACKBONE|DICT|INTERRES
   121   59  184 1    
   122   60   61 2    
   123   60   62 1    
   124   62   63 1    
   125   62   64 1    
   126   62  185 1    
   127   63  186 1    
   128   63  187 1    
   129   63  188 1    
   130   64   65 am   BACKBONE|DICT|INTERRES
   131   64  189 1    
   132   65   66 2    
   133   67   68 2    
   134   67   69 am   BACKBONE|DICT|INTERRES
   135   69   70 1    
   136   69  190 1    
   137   70   71 1    
   138   70   72 1    
   139   70  191 1    
   140   71  192 1    
   141   71  193 1    
   142   71  194 1    
   143   72   73 2    
   144   72   74 am   BACKBONE|DICT|INTERRES
   145   74   75 1    
   146   74  195 1    
   147   75   76 1    
   148   75   77 1    
   149   75  196 1    
   150   76  197 1    
   151   76  198 1    
   152   76  199 1    
   153   77   78 2    
   154   77   79 am   BACKBONE|DICT|INTERRES
   155   79   80 1    
   156   79  200 1    
   157   80   81 1    
   158   80   82 1    
   159   80  201 1    
   160   81  202 1    
   161   81  203 1    
   162   81  204 1    
   163   82   83 2    
   164   82   84 am   BACKBONE|DICT|INTERRES
   165   84   85 1    
   166   84  205 1    
   167   85   86 1    
   168   85   87 1    
   169   85  206 1    
   170   86  207 1    
   171   86  208 1    
   172   86  209 1    
   173   87   88 2    
   174   87   89 am   BACKBONE|DICT|INTERRES
   175   89   90 1    
   176   89  210 1    
   177   90   91 1    
   178   90   92 1    
   179   90  211 1    
   180   91  212 1    
   181   91  213 1    
   182   91  214 1    
   183   92   93 2    
   184   92   94 am   BACKBONE|DICT|INTERRES
   185   94   95 1    
   186   94  215 1    
   187   95   96 1    
   188   95   97 1    
   189   95  216 1    
   190   96  217 1    
   191   96  218 1    
   192   96  219 1    
   193   97   98 2    
   194   97   99 am   BACKBONE|DICT|INTERRES
   195   99  100 1    
   196   99  220 1    
   197  100  101 1    
   198  100  102 1    
   199  100  221 1    
   200  101  222 1    
   201  101  223 1    
   202  101  224 1    
   203  102  103 2    
   204  102  104 am   BACKBONE|DICT|INTERRES
   205  104  105 1    
   206  104  225 1    
   207  105  106 1    
   208  105  107 1    
   209  105  226 1    
   210  106  227 1    
   211  106  228 1    
   212  106  229 1    
   213  107  108 2    
   214  107  109 am   BACKBONE|DICT|INTERRES
   215  109  110 1    
   216  109  230 1    
   217  110  111 1    
   218  110  112 1    
   219  110  231 1    
   220  111  232 1    
   221  111  233 1    
   222  111  234 1    
   223  112  113 2    
   224  112  114 am   BACKBONE|DICT|INTERRES
   225  114  115 1    
   226  114  235 1    
   227  115  116 1    
   228  115  117 1    
   229  115  236 1    
   230  116  237 1    
   231  116  238 1    
   232  116  239 1    
   233  117  118 2    
   234  117  119 am   BACKBONE|DICT|INTERRES
   235  119  120 1    
   236  119  240 1    
   237  120  121 1    
   238  120  124 1    
   239  120  241 1    
   240  121  122 am   BACKBONE|DICT|INTERRES
   241  121  123 2    
   242  122  242 1    
   243  122  243 1    
   244  124  125 1    
   245  124  244 1    
   246  124  245 1    
   247  125  126 1    
   248  126  246 1    
   249  126  247 1    
@<TRIPOS>SUBSTRUCTURE
     1 UNK         1 GROUP             0       ****    0 ROOT    
