@<TRIPOS>MOLECULE
3R540
247   249    1
SMALL
USER_CHARGES


@<TRIPOS>ATOM
      1 CA         -3.3702  -11.0582  -51.3819 C.3       0 UNK        -0.1800 
      2 C          -2.1611  -11.2188  -50.4710 C.2       0 UNK         0.5000 
      3 O          -1.3501  -10.2987  -50.3604 O.2       0 UNK        -0.5000 
      4 N          -2.0332  -12.3850  -49.8281 N.am      1 UNK        -0.5000 
      5 CA         -0.9877  -12.7053  -48.8526 C.3       1 UNK         0.1400 
      6 C6         -0.8821  -14.2279  -48.5732 C.3       23 UNK        -0.0398 
      7 S7         -2.4832  -15.0869  -48.3411 S.3       23 UNK        -0.2404 
      8 C8         -1.9680  -16.7022  -47.6639 C.3       23 UNK        -0.0205 
      9 C9         -0.7892  -17.3244  -48.4037 C.ar      23 UNK        -0.0193 
     10 C10        -0.8163  -17.4904  -49.7939 C.ar      23 UNK        -0.1150 
     11 C11         0.2894  -18.0174  -50.4680 C.ar      23 UNK        -0.0193 
     12 C12         1.4133  -18.4123  -49.7372 C.ar      23 UNK        -0.1150 
     13 C13         1.4458  -18.2687  -48.3475 C.ar      23 UNK        -0.0193 
     14 C14         0.3454  -17.7172  -47.6883 C.ar      23 UNK        -0.1150 
     15 C15         2.6782  -18.6881  -47.5598 C.3       23 UNK        -0.0205 
     16 S16         2.3635  -20.1266  -46.4903 S.3       23 UNK        -0.2404 
     17 C17         2.0006  -21.4360  -47.7114 C.3       23 UNK        -0.0398 
     18 CA          0.8391  -22.3689  -47.2986 C.3       11 UNK         0.1400 
     19 N           1.0950  -23.0414  -46.0243 N.am      11 UNK        -0.5000 
     20 C           0.4802  -24.1626  -45.6298 C.2       10 UNK         0.5000 
     21 O          -0.3546  -24.7604  -46.3096 O.2       10 UNK        -0.5000 
     22 CA          0.8293  -24.6677  -44.2192 C.3       10 UNK         0.1400 
     23 CB          2.1749  -25.4081  -44.2207 C.3       10 UNK        -0.1800 
     24 N           0.8653  -23.5966  -43.2200 N.am      10 UNK        -0.5000 
     25 C          -0.1834  -22.8459  -42.8649 C.2       9 UNK         0.5000 
     26 O          -1.2865  -22.9331  -43.4015 O.2       9 UNK        -0.5000 
     27 CA          0.0135  -21.8240  -41.7321 C.3       9 UNK         0.1400 
     28 CB         -0.0239  -22.5094  -40.3538 C.3       9 UNK        -0.1800 
     29 N           1.1865  -20.9530  -41.8628 N.am      9 UNK        -0.5000 
     30 C           2.4918  -21.2573  -41.7856 C.2       8 UNK         0.5000 
     31 O           2.9231  -22.4087  -41.7096 O.2       8 UNK        -0.5000 
     32 CA          3.4920  -20.0792  -41.7716 C.3       8 UNK         0.1400 
     33 CB          4.2260  -19.9679  -43.1142 C.3       8 UNK        -0.1800 
     34 N           2.8700  -18.7894  -41.4579 N.am      8 UNK        -0.5000 
     35 C           2.3861  -18.4557  -40.2512 C.2       7 UNK         0.5000 
     36 O           2.5264  -19.1593  -39.2501 O.2       7 UNK        -0.5000 
     37 CA          1.5874  -17.1400  -40.1308 C.3       7 UNK         0.1400 
     38 CB          2.4441  -16.0607  -39.4503 C.3       7 UNK        -0.1800 
     39 N           1.0659  -16.6095  -41.3946 N.am      7 UNK        -0.5000 
     40 C           0.2403  -17.2398  -42.2431 C.2       6 UNK         0.5000 
     41 O          -0.2120  -18.3673  -42.0439 O.2       6 UNK        -0.5000 
     42 CA         -0.0907  -16.5178  -43.5645 C.3       6 UNK         0.1400 
     43 CB         -1.4073  -15.7386  -43.4468 C.3       6 UNK        -0.1800 
     44 N           0.9657  -15.6198  -44.0346 N.am      6 UNK        -0.5000 
     45 C           2.2104  -16.0017  -44.3576 C.2       5 UNK         0.5000 
     46 O           2.6181  -17.1588  -44.2642 O.2       5 UNK        -0.5000 
     47 CA          3.1675  -14.8922  -44.8173 C.3       5 UNK         0.1400 
     48 CB          2.8672  -14.4667  -46.2642 C.3       5 UNK        -0.1800 
     49 N           3.0762  -13.7356  -43.9269 N.am      5 UNK        -0.5000 
     50 C           3.6995  -13.6505  -42.7426 C.2       4 UNK         0.5000 
     51 O           4.4935  -14.4946  -42.3272 O.2       4 UNK        -0.5000 
     52 CA          3.3763  -12.4266  -41.8625 C.3       4 UNK         0.1400 
     53 CB          4.3816  -11.2955  -42.1264 C.3       4 UNK        -0.1800 
     54 N           2.0195  -11.9118  -42.0546 N.am      4 UNK        -0.5000 
     55 C           0.8969  -12.5634  -41.7189 C.2       3 UNK         0.5000 
     56 O           0.8827  -13.6691  -41.1818 O.2       3 UNK        -0.5000 
     57 CA         -0.4342  -11.8883  -42.1037 C.3       3 UNK         0.1400 
     58 CB         -0.9024  -10.9442  -40.9866 C.3       3 UNK        -0.1800 
     59 N          -0.3657  -11.1494  -43.3687 N.am      3 UNK        -0.5000 
     60 C          -0.0467  -11.6922  -44.5508 C.2       2 UNK         0.5000 
     61 O           0.2277  -12.8862  -44.7019 O.2       2 UNK        -0.5000 
     62 CA          0.0659  -10.7197  -45.7366 C.3       2 UNK         0.1400 
     63 CB          1.4110   -9.9770  -45.6817 C.3       2 UNK        -0.1800 
     64 N          -0.0196  -11.4256  -47.0124 N.am      2 UNK        -0.5000 
     65 C          -1.1517  -11.8910  -47.5528 C.2       1 UNK         0.5000 
     66 O          -2.2725  -11.7043  -47.0711 O.2       1 UNK        -0.5000 
     67 C          -0.5333  -21.6625  -47.3147 C.2       11 UNK         0.5000 
     68 O          -1.1819  -21.6421  -48.3581 O.2       11 UNK        -0.5000 
     69 N          -0.9840  -21.1548  -46.1572 N.am      12 UNK        -0.5000 
     70 CA         -2.3058  -20.5497  -45.9842 C.3       12 UNK         0.1400 
     71 CB         -2.3660  -19.7996  -44.6466 C.3       12 UNK        -0.1800 
     72 C          -3.4359  -21.5900  -46.0850 C.2       12 UNK         0.5000 
     73 O          -4.4575  -21.3205  -46.7161 O.2       12 UNK        -0.5000 
     74 N          -3.2131  -22.7768  -45.5028 N.am      13 UNK        -0.5000 
     75 CA         -4.1011  -23.9353  -45.5999 C.3       13 UNK         0.1400 
     76 CB         -3.6183  -25.0343  -44.6418 C.3       13 UNK        -0.1800 
     77 C          -4.2179  -24.4729  -47.0380 C.2       13 UNK         0.5000 
     78 O          -5.3032  -24.8935  -47.4380 O.2       13 UNK        -0.5000 
     79 N          -3.1171  -24.4141  -47.8016 N.am      14 UNK        -0.5000 
     80 CA         -3.1042  -24.7026  -49.2348 C.3       14 UNK         0.1400 
     81 CB         -1.6587  -24.8711  -49.7268 C.3       14 UNK        -0.1800 
     82 C          -3.8429  -23.6171  -50.0374 C.2       14 UNK         0.5000 
     83 O          -4.6731  -23.9513  -50.8822 O.2       14 UNK        -0.5000 
     84 N          -3.5584  -22.3396  -49.7412 N.am      15 UNK        -0.5000 
     85 CA         -4.1504  -21.1637  -50.3864 C.3       15 UNK         0.1400 
     86 CB         -3.4485  -19.8897  -49.8979 C.3       15 UNK        -0.1800 
     87 C          -5.6740  -21.0437  -50.2102 C.2       15 UNK         0.5000 
     88 O          -6.3333  -20.4788  -51.0823 O.2       15 UNK        -0.5000 
     89 N          -6.2232  -21.6355  -49.1411 N.am      16 UNK        -0.5000 
     90 CA         -7.6635  -21.8091  -48.9277 C.3       16 UNK         0.1400 
     91 CB         -7.8988  -22.3821  -47.5225 C.3       16 UNK        -0.1800 
     92 C          -8.3441  -22.6916  -49.9997 C.2       16 UNK         0.5000 
     93 O          -9.5476  -22.5522  -50.2192 O.2       16 UNK        -0.5000 
     94 N          -7.5611  -23.5497  -50.6680 N.am      17 UNK        -0.5000 
     95 CA         -7.9477  -24.3540  -51.8277 C.3       17 UNK         0.1400 
     96 CB         -7.6193  -25.8275  -51.5288 C.3       17 UNK        -0.1800 
     97 C          -7.2386  -23.8571  -53.1085 C.2       17 UNK         0.5000 
     98 O          -7.1148  -24.6168  -54.0695 O.2       17 UNK        -0.5000 
     99 N          -6.7626  -22.6012  -53.0922 N.am      18 UNK        -0.5000 
    100 CA        -6.0381  -21.8664  -54.1381 C.3       18 UNK         0.1400 
    101 CB        -6.8606  -21.7869  -55.4398 C.3       18 UNK        -0.1800 
    102 C         -4.5981  -22.3483  -54.4091 C.2       18 UNK         0.5000 
    103 O         -3.9202  -21.7422  -55.2408 O.2       18 UNK        -0.5000 
    104 N         -4.1421  -23.4131  -53.7328 N.am      19 UNK        -0.5000 
    105 CA        -2.8069  -24.0364  -53.7737 C.3       19 UNK         0.1400 
    106 CB        -1.7686  -23.0838  -53.1479 C.3       19 UNK        -0.1800 
    107 C         -2.3177  -24.5154  -55.1616 C.2       19 UNK         0.5000 
    108 O         -1.1785  -24.9707  -55.2690 O.2       19 UNK        -0.5000 
    109 N         -3.1539  -24.3590  -56.1981 N.am      20 UNK        -0.5000 
    110 CA        -2.8223  -24.3901  -57.6259 C.3       20 UNK         0.1400 
    111 CB        -2.4194  -25.8114  -58.0719 C.3       20 UNK        -0.1800 
    112 C         -1.7852  -23.3102  -58.0230 C.2       20 UNK         0.5000 
    113 O         -1.0307  -23.5149  -58.9762 O.2       20 UNK        -0.5000 
    114 N         -1.7578  -22.1832  -57.2925 N.am      21 UNK        -0.5000 
    115 CA        -0.7924  -21.0971  -57.4780 C.3       21 UNK         0.1400 
    116 CB         0.6032  -21.5162  -56.9731 C.3       21 UNK        -0.1800 
    117 C         -1.2421  -19.8020  -56.7852 C.2       21 UNK         0.5000 
    118 O         -1.2045  -18.7394  -57.4070 O.2       21 UNK        -0.5000 
    119 N         -1.6400  -19.9066  -55.5111 N.am      22 UNK        -0.5000 
    120 CA        -2.0719  -18.7770  -54.6684 C.3       22 UNK         0.1400 
    121 C         -3.4509  -18.1734  -55.0596 C.2       22 UNK         0.5000 
    122 N         -4.3370  -18.9243  -55.7000 N.am      22 UNK        -0.7600 
    123 O         -3.7139  -17.0067  -54.7825 O.2       22 UNK        -0.5000 
    124 C124       -2.0540  -19.1379  -53.1604 C.3       23 UNK        -0.0398 
    125 S125       -0.4104  -19.6818  -52.5814 S.3       23 UNK        -0.2404 
    126 C126        0.3014  -18.1168  -51.9865 C.3       23 UNK        -0.0205 
    127 H127       -3.0471  -10.8572  -52.4034 H         1 UNK         0.0600 
    128 H128       -3.9918  -11.9540  -51.3921 H         1 UNK         0.0600 
    129 H129       -3.9842  -10.2224  -51.0463 H         1 UNK         0.0600 
    130 H130       -2.7471  -13.0929  -49.9292 H         1 UNK         0.3000 
    131 H131       -0.0394  -12.4023  -49.3027 H         1 UNK         0.0600 
    132 H132       -0.2407  -14.4264  -47.7122 H         1 UNK         0.0800 
    133 H133       -0.3823  -14.6962  -49.4218 H         1 UNK         0.0800 
    134 H134       -2.8142  -17.3887  -47.7059 H         1 UNK         0.0800 
    135 H135       -1.7311  -16.5700  -46.6072 H         1 UNK         0.0800 
    136 H136       -1.6876  -17.1805  -50.3529 H         1 UNK         0.1150 
    137 H137        2.2688  -18.8229  -50.2549 H         1 UNK         0.1150 
    138 H138        0.3800  -17.5968  -46.6153 H         1 UNK         0.1150 
    139 H139        3.5108  -18.9146  -48.2275 H         1 UNK         0.0800 
    140 H140        3.0047  -17.8547  -46.9373 H         1 UNK         0.0800 
    141 H141        2.9089  -22.0251  -47.8437 H         1 UNK         0.0800 
    142 H142        1.7944  -21.0000  -48.6892 H         1 UNK         0.0800 
    143 H143        0.7855  -23.1461  -48.0646 H         1 UNK         0.0600 
    144 H144        1.7585  -22.5992  -45.4048 H         1 UNK         0.3000 
    145 H145        0.0517  -25.3743  -43.9214 H         1 UNK         0.0600 
    146 H146        2.3811  -25.8504  -43.2459 H         1 UNK         0.0600 
    147 H147        2.1749  -26.2182  -44.9513 H         1 UNK         0.0600 
    148 H148        3.0024  -24.7416  -44.4671 H         1 UNK         0.0600 
    149 H149        1.7426  -23.4342  -42.7316 H         1 UNK         0.3000 
    150 H150       -0.8442  -21.1509  -41.7755 H         1 UNK         0.0600 
    151 H151       -0.9500  -23.0709  -40.2241 H         1 UNK         0.0600 
    152 H152        0.0269  -21.7758  -39.5490 H         1 UNK         0.0600 
    153 H153        0.8016  -23.2093  -40.2216 H         1 UNK         0.0600 
    154 H154        0.9474  -19.9697  -41.9520 H         1 UNK         0.3000 
    155 H155        4.2335  -20.2971  -41.0003 H         1 UNK         0.0600 
    156 H156        3.5409  -19.7022  -43.9172 H         1 UNK         0.0600 
    157 H157        4.7033  -20.9107  -43.3846 H         1 UNK         0.0600 
    158 H158        5.0049  -19.2063  -43.0762 H         1 UNK         0.0600 
    159 H159        2.7216  -18.1580  -42.2366 H         1 UNK         0.3000 
    160 H160        0.7290  -17.3484  -39.4894 H         1 UNK         0.0600 
    161 H161        1.8510  -15.1788  -39.2097 H         1 UNK         0.0600 
    162 H162        3.2725  -15.7469  -40.0863 H         1 UNK         0.0600 
    163 H163        2.8681  -16.4252  -38.5137 H         1 UNK         0.0600 
    164 H164        1.3178  -15.6510  -41.6091 H         1 UNK         0.3000 
    165 H165       -0.2146  -17.2832  -44.3301 H         1 UNK         0.0600 
    166 H166       -1.6607  -15.2412  -44.3835 H         1 UNK         0.0600 
    167 H167       -2.2332  -16.4057  -43.1968 H         1 UNK         0.0600 
    168 H168       -1.3514  -14.9791  -42.6675 H         1 UNK         0.0600 
    169 H169        0.7084  -14.6445  -44.1625 H         1 UNK         0.3000 
    170 H170        4.1847  -15.2891  -44.7897 H         1 UNK         0.0600 
    171 H171        3.5669  -13.7022  -46.6019 H         1 UNK         0.0600 
    172 H172        2.9575  -15.3136  -46.9454 H         1 UNK         0.0600 
    173 H173        1.8592  -14.0686  -46.3744 H         1 UNK         0.0600 
    174 H174        2.3905  -13.0336  -44.1684 H         1 UNK         0.3000 
    175 H175        3.4745  -12.7366  -40.8198 H         1 UNK         0.0600 
    176 H176        4.2152  -10.4543  -41.4532 H         1 UNK         0.0600 
    177 H177        5.4053  -11.6381  -41.9691 H         1 UNK         0.0600 
    178 H178        4.3127  -10.9261  -43.1505 H         1 UNK         0.0600 
    179 H179        1.9349  -11.0066  -42.4923 H         1 UNK         0.3000 
    180 H180       -1.1826  -12.6736  -42.2200 H         1 UNK         0.0600 
    181 H181       -0.2097  -10.1141  -40.8427 H         1 UNK         0.0600 
    182 H182       -0.9821  -11.4740  -40.0363 H         1 UNK         0.0600 
    183 H183       -1.8854  -10.5279  -41.2078 H         1 UNK         0.0600 
    184 H184       -0.5642  -10.1603  -43.3212 H         1 UNK         0.3000 
    185 H185       -0.7462   -9.9921  -45.6756 H         1 UNK         0.0600 
    186 H186        2.2556  -10.6665  -45.7215 H         1 UNK         0.0600 
    187 H187        1.5094   -9.2793  -46.5136 H         1 UNK         0.0600 
    188 H188        1.5048   -9.3960  -44.7634 H         1 UNK         0.0600 
    189 H189        0.8602  -11.6379  -47.4587 H         1 UNK         0.3000 
    190 H190       -0.4063  -21.2388  -45.3350 H         1 UNK         0.3000 
    191 H191       -2.4453  -19.8194  -46.7830 H         1 UNK         0.0600 
    192 H192       -1.5708  -19.0611  -44.5772 H         1 UNK         0.0600 
    193 H193       -2.2713  -20.4725  -43.7948 H         1 UNK         0.0600 
    194 H194       -3.3132  -19.2695  -44.5408 H         1 UNK         0.0600 
    195 H195       -2.3784  -22.8924  -44.9336 H         1 UNK         0.3000 
    196 H196       -5.0973  -23.6197  -45.2830 H         1 UNK         0.0600 
    197 H197       -4.2779  -25.9022  -44.6782 H         1 UNK         0.0600 
    198 H198       -3.6036  -24.6792  -43.6112 H         1 UNK         0.0600 
    199 H199       -2.6129  -25.3741  -44.8917 H         1 UNK         0.0600 
    200 H200       -2.2488  -24.1063  -47.3825 H         1 UNK         0.3000 
    201 H201       -3.6243  -25.6493  -49.3960 H         1 UNK         0.0600 
    202 H202       -1.1377  -25.6441  -49.1615 H         1 UNK         0.0600 
    203 H203       -1.0854  -23.9491  -49.6374 H         1 UNK         0.0600 
    204 H204       -1.6387  -25.1660  -50.7764 H         1 UNK         0.0600 
    205 H205       -2.8155  -22.1485  -49.0725 H         1 UNK         0.3000 
    206 H206       -3.9650  -21.2626  -51.4564 H         1 UNK         0.0600 
    207 H207       -2.3760  -19.9349  -50.0860 H         1 UNK         0.0600 
    208 H208       -3.8313  -19.0078  -50.4125 H         1 UNK         0.0600 
    209 H209       -3.5969  -19.7348  -48.8302 H         1 UNK         0.0600 
    210 H210       -5.6042  -22.0068  -48.4298 H         1 UNK         0.3000 
    211 H211       -8.1257  -20.8211  -48.9749 H         1 UNK         0.0600 
    212 H212       -7.4854  -23.3856  -47.4237 H         1 UNK         0.0600 
    213 H213       -8.9648  -22.4446  -47.3007 H         1 UNK         0.0600 
    214 H214       -7.4427  -21.7539  -46.7569 H         1 UNK         0.0600 
    215 H215       -6.5735  -23.5920  -50.4345 H         1 UNK         0.3000 
    216 H216       -9.0211  -24.2732  -52.0082 H         1 UNK         0.0600 
    217 H217       -7.9495  -26.4784  -52.3392 H         1 UNK         0.0600 
    218 H218       -8.1186  -26.1648  -50.6204 H         1 UNK         0.0600 
    219 H219       -6.5474  -25.9811  -51.3975 H         1 UNK         0.0600 
    220 H220       -6.9029  -22.0650  -52.2430 H         1 UNK         0.3000 
    221 H221       -5.9352  -20.8480  -53.7614 H         1 UNK         0.0600 
    222 H222       -6.9492  -22.7575  -55.9281 H         1 UNK         0.0600 
    223 H223       -7.8665  -21.4136  -55.2480 H         1 UNK         0.0600 
    224 H224       -6.3972  -21.1081  -56.1564 H         1 UNK         0.0600 
    225 H225       -4.7694  -23.8207  -53.0496 H         1 UNK         0.3000 
    226 H226       -2.8708  -24.9257  -53.1453 H         1 UNK         0.0600 
    227 H227       -2.0917  -22.7078  -52.1795 H         1 UNK         0.0600 
    228 H228       -0.8148  -23.5888  -52.9911 H         1 UNK         0.0600 
    229 H229       -1.5772  -22.2256  -53.7897 H         1 UNK         0.0600 
    230 H230       -4.0583  -23.9653  -55.9796 H         1 UNK         0.3000 
    231 H231       -3.7407  -24.1295  -58.1536 H         1 UNK         0.0600 
    232 H232       -3.1638  -26.5464  -57.7660 H         1 UNK         0.0600 
    233 H233       -1.4586  -26.1122  -57.6539 H         1 UNK         0.0600 
    234 H234       -2.3344  -25.8705  -59.1575 H         1 UNK         0.0600 
    235 H235       -2.4614  -22.0505  -56.5721 H         1 UNK         0.3000 
    236 H236       -0.7227  -20.8797  -58.5461 H         1 UNK         0.0600 
    237 H237        1.3118  -20.6903  -57.0486 H         1 UNK         0.0600 
    238 H238        0.5741  -21.8308  -55.9291 H         1 UNK         0.0600 
    239 H239        1.0099  -22.3411  -57.5577 H         1 UNK         0.0600 
    240 H240       -1.6577  -20.8134  -55.0713 H         1 UNK         0.3000 
    241 H241       -1.3446  -17.9759  -54.8151 H         1 UNK         0.0600 
    242 H242       -5.2239  -18.5314  -55.9703 H         1 UNK         0.3800 
    243 H243       -4.1400  -19.9061  -55.8582 H         1 UNK         0.3800 
    244 H244       -2.3840  -18.2951  -52.5505 H         1 UNK         0.0800 
    245 H245       -2.7613  -19.9443  -52.9669 H         1 UNK         0.0800 
    246 H246       -0.2218  -17.2651  -52.4235 H         1 UNK         0.0800 
    247 H247        1.3277  -18.0484  -52.3502 H         1 UNK         0.0800 
@<TRIPOS>BOND
     1    1    2 1    
     2    1  127 1    
     3    1  128 1    
     4    1  129 1    
     5    2    3 2    
     6    2    4 am   BACKBONE|DICT|INTERRES
     7    4    5 1    
     8    4  130 1    
     9    5    6 1    
    10    5   65 1    
    11    5  131 1    
    12    6    7 1    
    13    6  132 1    
    14    6  133 1    
    15    7    8 1    
    16    8    9 1    
    17    8  134 1    
    18    8  135 1    
    19    9   10 ar   
    20    9   14 ar   
    21   10   11 ar   
    22   10  136 1    
    23   11   12 ar   
    24   11  126 1    
    25   12   13 ar   
    26   12  137 1    
    27   13   14 ar   
    28   13   15 1    
    29   14  138 1    
    30   15   16 1    
    31   15  139 1    
    32   15  140 1    
    33   16   17 1    
    34   17   18 1    
    35   17  141 1    
    36   17  142 1    
    37   18   19 1    
    38   18   67 1    
    39   18  143 1    
    40   19   20 am   BACKBONE|DICT|INTERRES
    41   19  144 1    
    42   20   21 2    
    43   20   22 1    
    44   22   23 1    
    45   22   24 1    
    46   22  145 1    
    47   23  146 1    
    48   23  147 1    
    49   23  148 1    
    50   24   25 am   BACKBONE|DICT|INTERRES
    51   24  149 1    
    52   25   26 2    
    53   25   27 1    
    54   27   28 1    
    55   27   29 1    
    56   27  150 1    
    57   28  151 1    
    58   28  152 1    
    59   28  153 1    
    60   29   30 am   BACKBONE|DICT|INTERRES
    61   29  154 1    
    62   30   31 2    
    63   30   32 1    
    64   32   33 1    
    65   32   34 1    
    66   32  155 1    
    67   33  156 1    
    68   33  157 1    
    69   33  158 1    
    70   34   35 am   BACKBONE|DICT|INTERRES
    71   34  159 1    
    72   35   36 2    
    73   35   37 1    
    74   37   38 1    
    75   37   39 1    
    76   37  160 1    
    77   38  161 1    
    78   38  162 1    
    79   38  163 1    
    80   39   40 am   BACKBONE|DICT|INTERRES
    81   39  164 1    
    82   40   41 2    
    83   40   42 1    
    84   42   43 1    
    85   42   44 1    
    86   42  165 1    
    87   43  166 1    
    88   43  167 1    
    89   43  168 1    
    90   44   45 am   BACKBONE|DICT|INTERRES
    91   44  169 1    
    92   45   46 2    
    93   45   47 1    
    94   47   48 1    
    95   47   49 1    
    96   47  170 1    
    97   48  171 1    
    98   48  172 1    
    99   48  173 1    
   100   49   50 am   BACKBONE|DICT|INTERRES
   101   49  174 1    
   102   50   51 2    
   103   50   52 1    
   104   52   53 1    
   105   52   54 1    
   106   52  175 1    
   107   53  176 1    
   108   53  177 1    
   109   53  178 1    
   110   54   55 am   BACKBONE|DICT|INTERRES
   111   54  179 1    
   112   55   56 2    
   113   55   57 1    
   114   57   58 1    
   115   57   59 1    
   116   57  180 1    
   117   58  181 1    
   118   58  182 1    
   119   58  183 1    
   120   59   60 am   BACKBONE|DICT|INTERRES
   121   59  184 1    
   122   60   61 2    
   123   60   62 1    
   124   62   63 1    
   125   62   64 1    
   126   62  185 1    
   127   63  186 1    
   128   63  187 1    
   129   63  188 1    
   130   64   65 am   BACKBONE|DICT|INTERRES
   131   64  189 1    
   132   65   66 2    
   133   67   68 2    
   134   67   69 am   BACKBONE|DICT|INTERRES
   135   69   70 1    
   136   69  190 1    
   137   70   71 1    
   138   70   72 1    
   139   70  191 1    
   140   71  192 1    
   141   71  193 1    
   142   71  194 1    
   143   72   73 2    
   144   72   74 am   BACKBONE|DICT|INTERRES
   145   74   75 1    
   146   74  195 1    
   147   75   76 1    
   148   75   77 1    
   149   75  196 1    
   150   76  197 1    
   151   76  198 1    
   152   76  199 1    
   153   77   78 2    
   154   77   79 am   BACKBONE|DICT|INTERRES
   155   79   80 1    
   156   79  200 1    
   157   80   81 1    
   158   80   82 1    
   159   80  201 1    
   160   81  202 1    
   161   81  203 1    
   162   81  204 1    
   163   82   83 2    
   164   82   84 am   BACKBONE|DICT|INTERRES
   165   84   85 1    
   166   84  205 1    
   167   85   86 1    
   168   85   87 1    
   169   85  206 1    
   170   86  207 1    
   171   86  208 1    
   172   86  209 1    
   173   87   88 2    
   174   87   89 am   BACKBONE|DICT|INTERRES
   175   89   90 1    
   176   89  210 1    
   177   90   91 1    
   178   90   92 1    
   179   90  211 1    
   180   91  212 1    
   181   91  213 1    
   182   91  214 1    
   183   92   93 2    
   184   92   94 am   BACKBONE|DICT|INTERRES
   185   94   95 1    
   186   94  215 1    
   187   95   96 1    
   188   95   97 1    
   189   95  216 1    
   190   96  217 1    
   191   96  218 1    
   192   96  219 1    
   193   97   98 2    
   194   97   99 am   BACKBONE|DICT|INTERRES
   195   99  100 1    
   196   99  220 1    
   197  100  101 1    
   198  100  102 1    
   199  100  221 1    
   200  101  222 1    
   201  101  223 1    
   202  101  224 1    
   203  102  103 2    
   204  102  104 am   BACKBONE|DICT|INTERRES
   205  104  105 1    
   206  104  225 1    
   207  105  106 1    
   208  105  107 1    
   209  105  226 1    
   210  106  227 1    
   211  106  228 1    
   212  106  229 1    
   213  107  108 2    
   214  107  109 am   BACKBONE|DICT|INTERRES
   215  109  110 1    
   216  109  230 1    
   217  110  111 1    
   218  110  112 1    
   219  110  231 1    
   220  111  232 1    
   221  111  233 1    
   222  111  234 1    
   223  112  113 2    
   224  112  114 am   BACKBONE|DICT|INTERRES
   225  114  115 1    
   226  114  235 1    
   227  115  116 1    
   228  115  117 1    
   229  115  236 1    
   230  116  237 1    
   231  116  238 1    
   232  116  239 1    
   233  117  118 2    
   234  117  119 am   BACKBONE|DICT|INTERRES
   235  119  120 1    
   236  119  240 1    
   237  120  121 1    
   238  120  124 1    
   239  120  241 1    
   240  121  122 am   BACKBONE|DICT|INTERRES
   241  121  123 2    
   242  122  242 1    
   243  122  243 1    
   244  124  125 1    
   245  124  244 1    
   246  124  245 1    
   247  125  126 1    
   248  126  246 1    
   249  126  247 1    
@<TRIPOS>SUBSTRUCTURE
     1 UNK         1 GROUP             0       ****    0 ROOT    
