@<TRIPOS>MOLECULE
3R540
247   249    1
SMALL
USER_CHARGES


@<TRIPOS>ATOM
      1 CA          1.3323  -13.2798  -48.1479 C.3       0 UNK        -0.1800 
      2 C           0.5145  -14.4021  -47.5264 C.2       0 UNK         0.5000 
      3 O           1.0880  -15.3687  -47.0279 O.2       0 UNK        -0.5000 
      4 N          -0.8183  -14.2738  -47.5537 N.am      1 UNK        -0.5000 
      5 CA         -1.7658  -15.2560  -47.0061 C.3       1 UNK         0.1400 
      6 C6         -3.0576  -15.3485  -47.8554 C.3       23 UNK        -0.0398 
      7 S7         -2.7209  -15.9049  -49.5631 S.3       23 UNK        -0.2404 
      8 C8         -2.6578  -17.7103  -49.3217 C.3       23 UNK        -0.0205 
      9 C9         -1.4043  -18.3422  -49.9139 C.ar      23 UNK        -0.0193 
     10 C10        -1.5099  -19.3823  -50.8436 C.ar      23 UNK        -0.1150 
     11 C11        -0.3639  -19.9983  -51.3556 C.ar      23 UNK        -0.0193 
     12 C12         0.8955  -19.5540  -50.9451 C.ar      23 UNK        -0.1150 
     13 C13         1.0167  -18.5257  -50.0072 C.ar      23 UNK        -0.0193 
     14 C14        -0.1364  -17.9291  -49.4914 C.ar      23 UNK        -0.1150 
     15 C15         2.3941  -18.0529  -49.5663 C.3       23 UNK        -0.0205 
     16 S16         3.3050  -19.3294  -48.6384 S.3       23 UNK        -0.2404 
     17 C17         2.4456  -19.3216  -47.0306 C.3       23 UNK        -0.0398 
     18 CA          1.8973  -20.7190  -46.6382 C.3       11 UNK         0.1400 
     19 N           1.9109  -20.9202  -45.1863 N.am      11 UNK        -0.5000 
     20 C           1.7727  -22.1041  -44.5730 C.2       10 UNK         0.5000 
     21 O           1.7256  -23.1785  -45.1703 O.2       10 UNK        -0.5000 
     22 CA          1.6261  -22.0861  -43.0379 C.3       10 UNK         0.1400 
     23 CB          2.9983  -22.1869  -42.3559 C.3       10 UNK        -0.1800 
     24 N           0.9226  -20.8984  -42.5491 N.am      10 UNK        -0.5000 
     25 C          -0.3683  -20.6288  -42.7938 C.2       9 UNK         0.5000 
     26 O          -1.1252  -21.4024  -43.3801 O.2       9 UNK        -0.5000 
     27 CA         -0.8818  -19.2400  -42.3646 C.3       9 UNK         0.1400 
     28 CB         -1.3147  -19.2462  -40.8918 C.3       9 UNK        -0.1800 
     29 N           0.1089  -18.1835  -42.5827 N.am      9 UNK        -0.5000 
     30 C           0.5810  -17.8219  -43.7835 C.2       8 UNK         0.5000 
     31 O           0.1811  -18.3018  -44.8414 O.2       8 UNK        -0.5000 
     32 CA          1.7407  -16.8139  -43.8097 C.3       8 UNK         0.1400 
     33 CB          1.2329  -15.3729  -43.7628 C.3       8 UNK        -0.1800 
     34 N           2.6827  -17.0348  -42.7169 N.am      8 UNK        -0.5000 
     35 C           3.5735  -18.0332  -42.6861 C.2       7 UNK         0.5000 
     36 O           3.7311  -18.8348  -43.6064 O.2       7 UNK        -0.5000 
     37 CA          4.3918  -18.1828  -41.3912 C.3       7 UNK         0.1400 
     38 CB          5.6767  -17.3451  -41.4570 C.3       7 UNK        -0.1800 
     39 N           3.6209  -17.8076  -40.2033 N.am      7 UNK        -0.5000 
     40 C           2.6098  -18.5400  -39.7140 C.2       6 UNK         0.5000 
     41 O           2.2487  -19.6099  -40.2043 O.2       6 UNK        -0.5000 
     42 CA          1.8449  -17.9670  -38.5054 C.3       6 UNK         0.1400 
     43 CB          2.5192  -18.3914  -37.1926 C.3       6 UNK        -0.1800 
     44 N           1.7055  -16.5089  -38.5269 N.am      6 UNK        -0.5000 
     45 C           1.0797  -15.8066  -39.4813 C.2       5 UNK         0.5000 
     46 O           0.5666  -16.3235  -40.4736 O.2       5 UNK        -0.5000 
     47 CA          1.0338  -14.2716  -39.3328 C.3       5 UNK         0.1400 
     48 CB          1.5257  -13.7535  -37.9627 C.3       5 UNK        -0.1800 
     49 N           1.7504  -13.5945  -40.4182 N.am      5 UNK        -0.5000 
     50 C           3.0370  -13.7606  -40.7650 C.2       4 UNK         0.5000 
     51 O           3.7868  -14.5730  -40.2205 O.2       4 UNK        -0.5000 
     52 CA          3.5772  -12.8878  -41.9168 C.3       4 UNK         0.1400 
     53 CB          4.5883  -13.6496  -42.7934 C.3       4 UNK        -0.1800 
     54 N           2.5019  -12.3669  -42.7664 N.am      4 UNK        -0.5000 
     55 C           2.0615  -11.1034  -42.7684 C.2       3 UNK         0.5000 
     56 O           2.5128  -10.2174  -42.0421 O.2       3 UNK        -0.5000 
     57 CA          0.9148  -10.7696  -43.7438 C.3       3 UNK         0.1400 
     58 CB          1.4857  -10.2692  -45.0799 C.3       3 UNK        -0.1800 
     59 N          -0.0235  -11.8672  -44.0136 N.am      3 UNK        -0.5000 
     60 C          -0.8046  -12.4613  -43.0968 C.2       2 UNK         0.5000 
     61 O          -0.6910  -12.2631  -41.8866 O.2       2 UNK        -0.5000 
     62 CA         -1.8939  -13.4343  -43.5926 C.3       2 UNK         0.1400 
     63 CB         -3.2984  -12.8534  -43.3513 C.3       2 UNK        -0.1800 
     64 N          -1.7515  -13.7997  -45.0071 N.am      2 UNK        -0.5000 
     65 C          -2.0949  -14.9906  -45.5207 C.2       1 UNK         0.5000 
     66 O          -2.6314  -15.8815  -44.8619 O.2       1 UNK        -0.5000 
     67 C           0.4877  -20.9774  -47.2126 C.2       11 UNK         0.5000 
     68 O           0.3431  -21.7332  -48.1729 O.2       11 UNK        -0.5000 
     69 N          -0.5338  -20.3999  -46.5626 N.am      12 UNK        -0.5000 
     70 CA         -1.9511  -20.5117  -46.9132 C.3       12 UNK         0.1400 
     71 CB         -2.7778  -19.6042  -45.9895 C.3       12 UNK        -0.1800 
     72 C          -2.5081  -21.9451  -46.9006 C.2       12 UNK         0.5000 
     73 O          -3.4729  -22.2180  -47.6127 O.2       12 UNK        -0.5000 
     74 N          -1.8729  -22.8513  -46.1465 N.am      13 UNK        -0.5000 
     75 CA         -2.1745  -24.2841  -46.1340 C.3       13 UNK         0.1400 
     76 CB         -1.3428  -24.9609  -45.0345 C.3       13 UNK        -0.1800 
     77 C          -1.9516  -24.9823  -47.4949 C.2       13 UNK         0.5000 
     78 O          -2.5331  -26.0433  -47.7244 O.2       13 UNK        -0.5000 
     79 N          -1.1386  -24.3812  -48.3770 N.am      14 UNK        -0.5000 
     80 CA         -0.8847  -24.8617  -49.7351 C.3       14 UNK         0.1400 
     81 CB          0.4984  -24.3658  -50.1883 C.3       14 UNK        -0.1800 
     82 C          -1.9654  -24.4389  -50.7518 C.2       14 UNK         0.5000 
     83 O          -1.9064  -24.8958  -51.8930 O.2       14 UNK        -0.5000 
     84 N          -2.9082  -23.5636  -50.3651 N.am      15 UNK        -0.5000 
     85 CA         -3.9830  -23.0722  -51.2297 C.3       15 UNK         0.1400 
     86 CB         -4.7324  -21.9277  -50.5288 C.3       15 UNK        -0.1800 
     87 C          -4.9529  -24.2014  -51.6221 C.2       15 UNK         0.5000 
     88 O          -5.6764  -24.7136  -50.7650 O.2       15 UNK        -0.5000 
     89 N          -4.9713  -24.5577  -52.9122 N.am      16 UNK        -0.5000 
     90 CA         -5.8549  -25.5670  -53.4998 C.3       16 UNK         0.1400 
     91 CB         -5.1970  -26.1225  -54.7737 C.3       16 UNK        -0.1800 
     92 C          -7.2489  -24.9673  -53.7635 C.2       16 UNK         0.5000 
     93 O          -7.6511  -24.8059  -54.9159 O.2       16 UNK        -0.5000 
     94 N          -7.9162  -24.5723  -52.6710 N.am      17 UNK        -0.5000 
     95 CA         -9.1814  -23.8314  -52.5870 C.3       17 UNK         0.1400 
     96 CB        -10.3290  -24.5918  -53.2831 C.3       17 UNK        -0.1800 
     97 C          -9.0919  -22.3615  -53.0563 C.2       17 UNK         0.5000 
     98 O         -10.0972  -21.6524  -52.9898 O.2       17 UNK        -0.5000 
     99 N          -7.9065  -21.9099  -53.4857 N.am      18 UNK        -0.5000 
    100 CA        -7.6240  -20.5501  -53.9221 C.3       18 UNK         0.1400 
    101 CB        -8.1478  -20.3303  -55.3536 C.3       18 UNK        -0.1800 
    102 C         -6.1119  -20.3051  -53.8676 C.2       18 UNK         0.5000 
    103 O         -5.3276  -21.2093  -54.1755 O.2       18 UNK        -0.5000 
    104 N         -5.7380  -19.0624  -53.5404 N.am      19 UNK        -0.5000 
    105 CA        -4.3620  -18.5575  -53.5857 C.3       19 UNK         0.1400 
    106 CB        -4.2705  -17.2967  -52.7144 C.3       19 UNK        -0.1800 
    107 C         -3.8883  -18.2539  -55.0218 C.2       19 UNK         0.5000 
    108 O         -2.6890  -18.1138  -55.2543 O.2       19 UNK        -0.5000 
    109 N         -4.8348  -18.1649  -55.9662 N.am      20 UNK        -0.5000 
    110 CA        -4.5670  -18.0908  -57.4016 C.3       20 UNK         0.1400 
    111 CB        -5.8159  -17.5436  -58.1102 C.3       20 UNK        -0.1800 
    112 C         -4.1690  -19.4584  -57.9930 C.2       20 UNK         0.5000 
    113 O         -3.5368  -19.4938  -59.0493 O.2       20 UNK        -0.5000 
    114 N         -4.5573  -20.5508  -57.3183 N.am      21 UNK        -0.5000 
    115 CA        -4.2752  -21.9217  -57.7265 C.3       21 UNK         0.1400 
    116 CB        -5.4536  -22.8321  -57.3334 C.3       21 UNK        -0.1800 
    117 C         -2.9467  -22.4038  -57.1242 C.2       21 UNK         0.5000 
    118 O         -1.9919  -22.6211  -57.8705 O.2       21 UNK        -0.5000 
    119 N         -2.9179  -22.5798  -55.7937 N.am      22 UNK        -0.5000 
    120 CA        -1.7868  -23.1381  -55.0184 C.3       22 UNK         0.1400 
    121 C         -1.3544  -24.5924  -55.4040 C.2       22 UNK         0.5000 
    122 N         -2.1497  -25.3527  -56.1461 N.am      22 UNK        -0.7600 
    123 O         -0.2883  -25.0561  -55.0084 O.2       22 UNK        -0.5000 
    124 C124       -0.5721  -22.1707  -54.9331 C.3       23 UNK        -0.0398 
    125 S125       -0.9373  -20.6500  -53.9955 S.3       23 UNK        -0.2404 
    126 C126       -0.4779  -21.1721  -52.3154 C.3       23 UNK        -0.0205 
    127 H127        0.7028  -12.4563  -48.4859 H         1 UNK         0.0600 
    128 H128        1.8910  -13.6564  -49.0047 H         1 UNK         0.0600 
    129 H129        2.0444  -12.8884  -47.4215 H         1 UNK         0.0600 
    130 H130       -1.2308  -13.4798  -48.0228 H         1 UNK         0.3000 
    131 H131       -1.2978  -16.2424  -47.0211 H         1 UNK         0.0600 
    132 H132       -3.5524  -14.3771  -47.9034 H         1 UNK         0.0800 
    133 H133       -3.7803  -16.0302  -47.4026 H         1 UNK         0.0800 
    134 H134       -3.5585  -18.1574  -49.7429 H         1 UNK         0.0800 
    135 H135       -2.6811  -17.9375  -48.2584 H         1 UNK         0.0800 
    136 H136       -2.4825  -19.7255  -51.1619 H         1 UNK         0.1150 
    137 H137        1.7868  -20.0235  -51.3369 H         1 UNK         0.1150 
    138 H138       -0.0466  -17.1378  -48.7625 H         1 UNK         0.1150 
    139 H139        2.9720  -17.7858  -50.4520 H         1 UNK         0.0800 
    140 H140        2.3245  -17.1454  -48.9638 H         1 UNK         0.0800 
    141 H141        1.6657  -18.5581  -47.0185 H         1 UNK         0.0800 
    142 H142        3.1839  -18.9920  -46.2985 H         1 UNK         0.0800 
    143 H143        2.5620  -21.4766  -47.0593 H         1 UNK         0.0600 
    144 H144        1.9696  -20.0881  -44.6153 H         1 UNK         0.3000 
    145 H145        1.0409  -22.9630  -42.7529 H         1 UNK         0.0600 
    146 H146        2.8968  -22.2366  -41.2716 H         1 UNK         0.0600 
    147 H147        3.6315  -21.3323  -42.5933 H         1 UNK         0.0600 
    148 H148        3.5272  -23.0858  -42.6749 H         1 UNK         0.0600 
    149 H149        1.4595  -20.2473  -41.9863 H         1 UNK         0.3000 
    150 H150       -1.7559  -19.0021  -42.9736 H         1 UNK         0.0600 
    151 H151       -2.1086  -19.9748  -40.7236 H         1 UNK         0.0600 
    152 H152       -1.6963  -18.2712  -40.5877 H         1 UNK         0.0600 
    153 H153       -0.4886  -19.5046  -40.2301 H         1 UNK         0.0600 
    154 H154        0.4324  -17.6801  -41.7608 H         1 UNK         0.3000 
    155 H155        2.2646  -16.9470  -44.7591 H         1 UNK         0.0600 
    156 H156        0.8392  -15.1008  -42.7845 H         1 UNK         0.0600 
    157 H157        0.4393  -15.2339  -44.4882 H         1 UNK         0.0600 
    158 H158        2.0243  -14.6800  -44.0359 H         1 UNK         0.0600 
    159 H159        2.5719  -16.4643  -41.8910 H         1 UNK         0.3000 
    160 H160        4.6777  -19.2329  -41.2994 H         1 UNK         0.0600 
    161 H161        5.4605  -16.2800  -41.5340 H         1 UNK         0.0600 
    162 H162        6.2787  -17.6214  -42.3236 H         1 UNK         0.0600 
    163 H163        6.2926  -17.4984  -40.5708 H         1 UNK         0.0600 
    164 H164        3.8312  -16.9118  -39.7813 H         1 UNK         0.3000 
    165 H165        0.8398  -18.3923  -38.5222 H         1 UNK         0.0600 
    166 H166        1.9354  -18.0745  -36.3283 H         1 UNK         0.0600 
    167 H167        2.6169  -19.4765  -37.1367 H         1 UNK         0.0600 
    168 H168        3.5192  -17.9662  -37.0977 H         1 UNK         0.0600 
    169 H169        2.1255  -16.0040  -37.7602 H         1 UNK         0.3000 
    170 H170       -0.0154  -13.9904  -39.4349 H         1 UNK         0.0600 
    171 H171        2.5812  -13.9685  -37.7923 H         1 UNK         0.0600 
    172 H172        1.3971  -12.6734  -37.8900 H         1 UNK         0.0600 
    173 H173        0.9560  -14.1965  -37.1447 H         1 UNK         0.0600 
    174 H174        1.1936  -12.9376  -40.9520 H         1 UNK         0.3000 
    175 H175        4.1145  -12.0617  -41.4472 H         1 UNK         0.0600 
    176 H176        4.1742  -14.5750  -43.1919 H         1 UNK         0.0600 
    177 H177        4.9191  -13.0402  -43.6345 H         1 UNK         0.0600 
    178 H178        5.4783  -13.9118  -42.2204 H         1 UNK         0.0600 
    179 H179        2.0557  -13.0253  -43.3870 H         1 UNK         0.3000 
    180 H180        0.3411   -9.9555  -43.2958 H         1 UNK         0.0600 
    181 H181        0.6937   -9.9265  -45.7461 H         1 UNK         0.0600 
    182 H182        2.0460  -11.0499  -45.5957 H         1 UNK         0.0600 
    183 H183        2.1630   -9.4280  -44.9257 H         1 UNK         0.0600 
    184 H184       -0.1507  -12.0934  -44.9853 H         1 UNK         0.3000 
    185 H185       -1.7847  -14.3329  -42.9809 H         1 UNK         0.0600 
    186 H186       -3.4712  -11.9614  -43.9544 H         1 UNK         0.0600 
    187 H187       -4.0736  -13.5794  -43.5969 H         1 UNK         0.0600 
    188 H188       -3.4365  -12.5764  -42.3053 H         1 UNK         0.0600 
    189 H189       -1.3514  -13.1140  -45.6274 H         1 UNK         0.3000 
    190 H190       -0.3133  -19.7602  -45.8017 H         1 UNK         0.3000 
    191 H191       -2.0524  -20.1554  -47.9369 H         1 UNK         0.0600 
    192 H192       -2.7792  -19.9722  -44.9641 H         1 UNK         0.0600 
    193 H193       -3.8161  -19.5557  -46.3195 H         1 UNK         0.0600 
    194 H194       -2.3912  -18.5850  -45.9755 H         1 UNK         0.0600 
    195 H195       -1.1102  -22.5362  -45.5623 H         1 UNK         0.3000 
    196 H196       -3.2304  -24.3951  -45.8797 H         1 UNK         0.0600 
    197 H197       -1.5010  -24.4844  -44.0666 H         1 UNK         0.0600 
    198 H198       -0.2768  -24.9233  -45.2583 H         1 UNK         0.0600 
    199 H199       -1.6172  -26.0113  -44.9296 H         1 UNK         0.0600 
    200 H200       -0.6958  -23.5025  -48.1252 H         1 UNK         0.3000 
    201 H201       -0.8598  -25.9533  -49.7247 H         1 UNK         0.0600 
    202 H202        1.2755  -24.6578  -49.4818 H         1 UNK         0.0600 
    203 H203        0.5250  -23.2806  -50.2866 H         1 UNK         0.0600 
    204 H204        0.7665  -24.7863  -51.1584 H         1 UNK         0.0600 
    205 H205       -2.9278  -23.2505  -49.4016 H         1 UNK         0.3000 
    206 H206       -3.5317  -22.6604  -52.1339 H         1 UNK         0.0600 
    207 H207       -5.4862  -21.4941  -51.1857 H         1 UNK         0.0600 
    208 H208       -5.2453  -22.2722  -49.6302 H         1 UNK         0.0600 
    209 H209       -4.0550  -21.1272  -50.2351 H         1 UNK         0.0600 
    210 H210       -4.3485  -24.0912  -53.5523 H         1 UNK         0.3000 
    211 H211       -5.9758  -26.3959  -52.7988 H         1 UNK         0.0600 
    212 H212       -4.2325  -26.5781  -54.5490 H         1 UNK         0.0600 
    213 H213       -5.0380  -25.3427  -55.5183 H         1 UNK         0.0600 
    214 H214       -5.8198  -26.8921  -55.2313 H         1 UNK         0.0600 
    215 H215       -7.4430  -24.7137  -51.7833 H         1 UNK         0.3000 
    216 H216       -9.4211  -23.7866  -51.5237 H         1 UNK         0.0600 
    217 H217      -11.2914  -24.1266  -53.0670 H         1 UNK         0.0600 
    218 H218      -10.3851  -25.6245  -52.9389 H         1 UNK         0.0600 
    219 H219      -10.2134  -24.6032  -54.3670 H         1 UNK         0.0600 
    220 H220       -7.1171  -22.5400  -53.5183 H         1 UNK         0.3000 
    221 H221       -8.1170  -19.8516  -53.2425 H         1 UNK         0.0600 
    222 H222       -7.6956  -21.0297  -56.0579 H         1 UNK         0.0600 
    223 H223       -9.2288  -20.4603  -55.4057 H         1 UNK         0.0600 
    224 H224       -7.9301  -19.3209  -55.7040 H         1 UNK         0.0600 
    225 H225       -6.4476  -18.3872  -53.2927 H         1 UNK         0.3000 
    226 H226       -3.6979  -19.3181  -53.1707 H         1 UNK         0.0600 
    227 H227       -4.6438  -17.4831  -51.7084 H         1 UNK         0.0600 
    228 H228       -3.2362  -16.9624  -52.6218 H         1 UNK         0.0600 
    229 H229       -4.8471  -16.4720  -53.1351 H         1 UNK         0.0600 
    230 H230       -5.8010  -18.2354  -55.6872 H         1 UNK         0.3000 
    231 H231       -3.7417  -17.3969  -57.5750 H         1 UNK         0.0600 
    232 H232       -5.6447  -17.4466  -59.1831 H         1 UNK         0.0600 
    233 H233       -6.0816  -16.5553  -57.7345 H         1 UNK         0.0600 
    234 H234       -6.6773  -18.1987  -57.9735 H         1 UNK         0.0600 
    235 H235       -5.0196  -20.4326  -56.4292 H         1 UNK         0.3000 
    236 H236       -4.1824  -21.9675  -58.8140 H         1 UNK         0.0600 
    237 H237       -5.6519  -22.8246  -56.2618 H         1 UNK         0.0600 
    238 H238       -6.3691  -22.5227  -57.8377 H         1 UNK         0.0600 
    239 H239       -5.2616  -23.8655  -57.6241 H         1 UNK         0.0600 
    240 H240       -3.7305  -22.3014  -55.2577 H         1 UNK         0.3000 
    241 H241       -2.1688  -23.2516  -54.0054 H         1 UNK         0.0600 
    242 H242       -1.8548  -26.2878  -56.3786 H         1 UNK         0.3800 
    243 H243       -3.0148  -24.9947  -56.5118 H         1 UNK         0.3800 
    244 H244        0.2890  -22.6498  -54.4656 H         1 UNK         0.0800 
    245 H245       -0.2396  -21.8889  -55.9327 H         1 UNK         0.0800 
    246 H246        0.4659  -21.7184  -52.3449 H         1 UNK         0.0800 
    247 H247       -1.2239  -21.8712  -51.9427 H         1 UNK         0.0800 
@<TRIPOS>BOND
     1    1    2 1    
     2    1  127 1    
     3    1  128 1    
     4    1  129 1    
     5    2    3 2    
     6    2    4 am   BACKBONE|DICT|INTERRES
     7    4    5 1    
     8    4  130 1    
     9    5    6 1    
    10    5   65 1    
    11    5  131 1    
    12    6    7 1    
    13    6  132 1    
    14    6  133 1    
    15    7    8 1    
    16    8    9 1    
    17    8  134 1    
    18    8  135 1    
    19    9   10 ar   
    20    9   14 ar   
    21   10   11 ar   
    22   10  136 1    
    23   11   12 ar   
    24   11  126 1    
    25   12   13 ar   
    26   12  137 1    
    27   13   14 ar   
    28   13   15 1    
    29   14  138 1    
    30   15   16 1    
    31   15  139 1    
    32   15  140 1    
    33   16   17 1    
    34   17   18 1    
    35   17  141 1    
    36   17  142 1    
    37   18   19 1    
    38   18   67 1    
    39   18  143 1    
    40   19   20 am   BACKBONE|DICT|INTERRES
    41   19  144 1    
    42   20   21 2    
    43   20   22 1    
    44   22   23 1    
    45   22   24 1    
    46   22  145 1    
    47   23  146 1    
    48   23  147 1    
    49   23  148 1    
    50   24   25 am   BACKBONE|DICT|INTERRES
    51   24  149 1    
    52   25   26 2    
    53   25   27 1    
    54   27   28 1    
    55   27   29 1    
    56   27  150 1    
    57   28  151 1    
    58   28  152 1    
    59   28  153 1    
    60   29   30 am   BACKBONE|DICT|INTERRES
    61   29  154 1    
    62   30   31 2    
    63   30   32 1    
    64   32   33 1    
    65   32   34 1    
    66   32  155 1    
    67   33  156 1    
    68   33  157 1    
    69   33  158 1    
    70   34   35 am   BACKBONE|DICT|INTERRES
    71   34  159 1    
    72   35   36 2    
    73   35   37 1    
    74   37   38 1    
    75   37   39 1    
    76   37  160 1    
    77   38  161 1    
    78   38  162 1    
    79   38  163 1    
    80   39   40 am   BACKBONE|DICT|INTERRES
    81   39  164 1    
    82   40   41 2    
    83   40   42 1    
    84   42   43 1    
    85   42   44 1    
    86   42  165 1    
    87   43  166 1    
    88   43  167 1    
    89   43  168 1    
    90   44   45 am   BACKBONE|DICT|INTERRES
    91   44  169 1    
    92   45   46 2    
    93   45   47 1    
    94   47   48 1    
    95   47   49 1    
    96   47  170 1    
    97   48  171 1    
    98   48  172 1    
    99   48  173 1    
   100   49   50 am   BACKBONE|DICT|INTERRES
   101   49  174 1    
   102   50   51 2    
   103   50   52 1    
   104   52   53 1    
   105   52   54 1    
   106   52  175 1    
   107   53  176 1    
   108   53  177 1    
   109   53  178 1    
   110   54   55 am   BACKBONE|DICT|INTERRES
   111   54  179 1    
   112   55   56 2    
   113   55   57 1    
   114   57   58 1    
   115   57   59 1    
   116   57  180 1    
   117   58  181 1    
   118   58  182 1    
   119   58  183 1    
   120   59   60 am   BACKBONE|DICT|INTERRES
   121   59  184 1    
   122   60   61 2    
   123   60   62 1    
   124   62   63 1    
   125   62   64 1    
   126   62  185 1    
   127   63  186 1    
   128   63  187 1    
   129   63  188 1    
   130   64   65 am   BACKBONE|DICT|INTERRES
   131   64  189 1    
   132   65   66 2    
   133   67   68 2    
   134   67   69 am   BACKBONE|DICT|INTERRES
   135   69   70 1    
   136   69  190 1    
   137   70   71 1    
   138   70   72 1    
   139   70  191 1    
   140   71  192 1    
   141   71  193 1    
   142   71  194 1    
   143   72   73 2    
   144   72   74 am   BACKBONE|DICT|INTERRES
   145   74   75 1    
   146   74  195 1    
   147   75   76 1    
   148   75   77 1    
   149   75  196 1    
   150   76  197 1    
   151   76  198 1    
   152   76  199 1    
   153   77   78 2    
   154   77   79 am   BACKBONE|DICT|INTERRES
   155   79   80 1    
   156   79  200 1    
   157   80   81 1    
   158   80   82 1    
   159   80  201 1    
   160   81  202 1    
   161   81  203 1    
   162   81  204 1    
   163   82   83 2    
   164   82   84 am   BACKBONE|DICT|INTERRES
   165   84   85 1    
   166   84  205 1    
   167   85   86 1    
   168   85   87 1    
   169   85  206 1    
   170   86  207 1    
   171   86  208 1    
   172   86  209 1    
   173   87   88 2    
   174   87   89 am   BACKBONE|DICT|INTERRES
   175   89   90 1    
   176   89  210 1    
   177   90   91 1    
   178   90   92 1    
   179   90  211 1    
   180   91  212 1    
   181   91  213 1    
   182   91  214 1    
   183   92   93 2    
   184   92   94 am   BACKBONE|DICT|INTERRES
   185   94   95 1    
   186   94  215 1    
   187   95   96 1    
   188   95   97 1    
   189   95  216 1    
   190   96  217 1    
   191   96  218 1    
   192   96  219 1    
   193   97   98 2    
   194   97   99 am   BACKBONE|DICT|INTERRES
   195   99  100 1    
   196   99  220 1    
   197  100  101 1    
   198  100  102 1    
   199  100  221 1    
   200  101  222 1    
   201  101  223 1    
   202  101  224 1    
   203  102  103 2    
   204  102  104 am   BACKBONE|DICT|INTERRES
   205  104  105 1    
   206  104  225 1    
   207  105  106 1    
   208  105  107 1    
   209  105  226 1    
   210  106  227 1    
   211  106  228 1    
   212  106  229 1    
   213  107  108 2    
   214  107  109 am   BACKBONE|DICT|INTERRES
   215  109  110 1    
   216  109  230 1    
   217  110  111 1    
   218  110  112 1    
   219  110  231 1    
   220  111  232 1    
   221  111  233 1    
   222  111  234 1    
   223  112  113 2    
   224  112  114 am   BACKBONE|DICT|INTERRES
   225  114  115 1    
   226  114  235 1    
   227  115  116 1    
   228  115  117 1    
   229  115  236 1    
   230  116  237 1    
   231  116  238 1    
   232  116  239 1    
   233  117  118 2    
   234  117  119 am   BACKBONE|DICT|INTERRES
   235  119  120 1    
   236  119  240 1    
   237  120  121 1    
   238  120  124 1    
   239  120  241 1    
   240  121  122 am   BACKBONE|DICT|INTERRES
   241  121  123 2    
   242  122  242 1    
   243  122  243 1    
   244  124  125 1    
   245  124  244 1    
   246  124  245 1    
   247  125  126 1    
   248  126  246 1    
   249  126  247 1    
@<TRIPOS>SUBSTRUCTURE
     1 UNK         1 GROUP             0       ****    0 ROOT    
