@<TRIPOS>MOLECULE
3R540
247   249    1
SMALL
USER_CHARGES


@<TRIPOS>ATOM
      1 CA         -2.8818   -9.5590  -46.9490 C.3       0 UNK        -0.1800 
      2 C          -1.9294  -10.7185  -47.2016 C.2       0 UNK         0.5000 
      3 O          -0.8000  -10.7011  -46.7123 O.2       0 UNK        -0.5000 
      4 N          -2.3858  -11.7372  -47.9448 N.am      1 UNK        -0.5000 
      5 CA         -1.6116  -12.9269  -48.3356 C.3       1 UNK         0.1400 
      6 C6         -2.3634  -13.7597  -49.4072 C.3       23 UNK        -0.0398 
      7 S7         -1.2293  -14.6433  -50.5305 S.3       23 UNK        -0.2404 
      8 C8         -1.5233  -16.3730  -50.0453 C.3       23 UNK        -0.0205 
      9 C9         -0.5098  -17.3126  -50.6780 C.ar      23 UNK        -0.0193 
     10 C10        -0.4699  -17.4672  -52.0662 C.ar      23 UNK        -0.1150 
     11 C11         0.4896  -18.2891  -52.6610 C.ar      23 UNK        -0.0193 
     12 C12         1.3915  -18.9874  -51.8555 C.ar      23 UNK        -0.1150 
     13 C13         1.3447  -18.8656  -50.4635 C.ar      23 UNK        -0.0193 
     14 C14         0.3972  -18.0181  -49.8798 C.ar      23 UNK        -0.1150 
     15 C15         2.3428  -19.6279  -49.6048 C.3       23 UNK        -0.0205 
     16 S16         1.6386  -21.1739  -48.9474 S.3       23 UNK        -0.2404 
     17 C17         1.0589  -20.6337  -47.3063 C.3       23 UNK        -0.0398 
     18 CA         -0.2697  -21.2937  -46.8692 C.3       11 UNK         0.1400 
     19 N          -0.4180  -21.2687  -45.4109 N.am      11 UNK        -0.5000 
     20 C          -1.3976  -21.8702  -44.7206 C.2       10 UNK         0.5000 
     21 O          -2.2744  -22.5640  -45.2338 O.2       10 UNK        -0.5000 
     22 CA         -1.4305  -21.6058  -43.2044 C.3       10 UNK         0.1400 
     23 CB         -0.4412  -22.5197  -42.4665 C.3       10 UNK        -0.1800 
     24 N          -1.1406  -20.2088  -42.8813 N.am      10 UNK        -0.5000 
     25 C          -1.9065  -19.1713  -43.2458 C.2       9 UNK         0.5000 
     26 O          -2.9806  -19.2872  -43.8325 O.2       9 UNK        -0.5000 
     27 CA         -1.3470  -17.7661  -42.9772 C.3       9 UNK         0.1400 
     28 CB         -1.5457  -17.3472  -41.5139 C.3       9 UNK        -0.1800 
     29 N           0.0649  -17.6603  -43.3472 N.am      9 UNK        -0.5000 
     30 C           0.5275  -17.7370  -44.6033 C.2       8 UNK         0.5000 
     31 O          -0.1987  -17.8699  -45.5860 O.2       8 UNK        -0.5000 
     32 CA          2.0545  -17.7198  -44.7978 C.3       8 UNK         0.1400 
     33 CB          2.5613  -16.3127  -45.1346 C.3       8 UNK        -0.1800 
     34 N           2.7740  -18.2497  -43.6384 N.am      8 UNK        -0.5000 
     35 C           2.7943  -19.5506  -43.3205 C.2       7 UNK         0.5000 
     36 O           2.2146  -20.4196  -43.9746 O.2       7 UNK        -0.5000 
     37 CA          3.5469  -19.9355  -42.0342 C.3       7 UNK         0.1400 
     38 CB          5.0615  -19.7318  -42.1968 C.3       7 UNK        -0.1800 
     39 N           3.0810  -19.2181  -40.8435 N.am      7 UNK        -0.5000 
     40 C           1.8304  -19.2560  -40.3626 C.2       6 UNK         0.5000 
     41 O           0.9040  -19.8323  -40.9290 O.2       6 UNK        -0.5000 
     42 CA          1.5456  -18.5367  -39.0292 C.3       6 UNK         0.1400 
     43 CB          1.2911  -19.5704  -37.9216 C.3       6 UNK        -0.1800 
     44 N           2.6247  -17.6467  -38.5925 N.am      6 UNK        -0.5000 
     45 C           2.8627  -16.3873  -38.9853 C.2       5 UNK         0.5000 
     46 O           3.7990  -15.7444  -38.5081 O.2       5 UNK        -0.5000 
     47 CA          1.9390  -15.7076  -40.0260 C.3       5 UNK         0.1400 
     48 CB          0.7829  -14.9695  -39.3336 C.3       5 UNK        -0.1800 
     49 N           2.6745  -14.7496  -40.8468 N.am      5 UNK        -0.5000 
     50 C           3.6470  -15.0668  -41.7066 C.2       4 UNK         0.5000 
     51 O           3.9573  -16.2289  -41.9819 O.2       4 UNK        -0.5000 
     52 CA          4.3548  -13.8835  -42.3954 C.3       4 UNK         0.1400 
     53 CB          5.6684  -14.3067  -43.0765 C.3       4 UNK        -0.1800 
     54 N           3.4912  -13.2630  -43.3969 N.am      4 UNK        -0.5000 
     55 C           2.4532  -12.4506  -43.1561 C.2       3 UNK         0.5000 
     56 O           2.1405  -12.0552  -42.0309 O.2       3 UNK        -0.5000 
     57 CA          1.6313  -11.9947  -44.3835 C.3       3 UNK         0.1400 
     58 CB          2.4063  -12.1121  -45.7132 C.3       3 UNK        -0.1800 
     59 N           0.3174  -12.6274  -44.5665 N.am      3 UNK        -0.5000 
     60 C          -0.1709  -13.7929  -44.1040 C.2       2 UNK         0.5000 
     61 O           0.3654  -14.4971  -43.2514 O.2       2 UNK        -0.5000 
     62 CA         -1.5001  -14.2843  -44.7176 C.3       2 UNK         0.1400 
     63 CB         -2.6611  -14.1014  -43.7287 C.3       2 UNK        -0.1800 
     64 N          -1.8483  -13.6487  -45.9889 N.am      2 UNK        -0.5000 
     65 C          -1.1694  -13.8004  -47.1364 C.2       1 UNK         0.5000 
     66 O          -0.2098  -14.5609  -47.2579 O.2       1 UNK        -0.5000 
     67 C          -1.4889  -20.6736  -47.5871 C.2       11 UNK         0.5000 
     68 O          -1.9992  -21.2691  -48.5368 O.2       11 UNK        -0.5000 
     69 N          -1.9572  -19.5183  -47.0918 N.am      12 UNK        -0.5000 
     70 CA         -3.1644  -18.8334  -47.5502 C.3       12 UNK         0.1400 
     71 CB         -3.2684  -17.4551  -46.8713 C.3       12 UNK        -0.1800 
     72 C          -4.4350  -19.6606  -47.2878 C.2       12 UNK         0.5000 
     73 O          -5.2217  -19.8706  -48.2125 O.2       12 UNK        -0.5000 
     74 N          -4.5931  -20.1284  -46.0393 N.am      13 UNK        -0.5000 
     75 CA         -5.7389  -20.9035  -45.5551 C.3       13 UNK         0.1400 
     76 CB         -5.6012  -21.1427  -44.0446 C.3       13 UNK        -0.1800 
     77 C          -5.9428  -22.2377  -46.2913 C.2       13 UNK         0.5000 
     78 O          -7.0865  -22.6460  -46.4946 O.2       13 UNK        -0.5000 
     79 N          -4.8461  -22.8617  -46.7394 N.am      14 UNK        -0.5000 
     80 CA         -4.8212  -24.0558  -47.5868 C.3       14 UNK         0.1400 
     81 CB         -3.4403  -24.7228  -47.4502 C.3       14 UNK        -0.1800 
     82 C          -5.1858  -23.7628  -49.0620 C.2       14 UNK         0.5000 
     83 O          -4.5730  -24.3338  -49.9642 O.2       14 UNK        -0.5000 
     84 N          -6.1625  -22.8716  -49.2891 N.am      15 UNK        -0.5000 
     85 CA         -6.6886  -22.4177  -50.5818 C.3       15 UNK         0.1400 
     86 CB         -7.5776  -23.5162  -51.1992 C.3       15 UNK        -0.1800 
     87 C          -5.5959  -21.8917  -51.5394 C.2       15 UNK         0.5000 
     88 O          -5.6433  -22.1621  -52.7411 O.2       15 UNK        -0.5000 
     89 N          -4.6289  -21.1624  -50.9626 N.am      16 UNK        -0.5000 
     90 CA         -3.3871  -20.6800  -51.5678 C.3       16 UNK         0.1400 
     91 CB         -3.6677  -19.6517  -52.6797 C.3       16 UNK        -0.1800 
     92 C          -2.4954  -21.8450  -52.0443 C.2       16 UNK         0.5000 
     93 O          -2.6432  -22.3212  -53.1714 O.2       16 UNK        -0.5000 
     94 N          -1.5912  -22.2741  -51.1544 N.am      17 UNK        -0.5000 
     95 CA         -0.5059  -23.2350  -51.3733 C.3       17 UNK         0.1400 
     96 CB          0.5324  -22.6634  -52.3595 C.3       17 UNK        -0.1800 
     97 C          -0.9905  -24.6431  -51.7678 C.2       17 UNK         0.5000 
     98 O          -0.5578  -25.1858  -52.7857 O.2       17 UNK        -0.5000 
     99 N          -1.8679  -25.2129  -50.9305 N.am      18 UNK        -0.5000 
    100 CA        -2.4584  -26.5513  -51.0503 C.3       18 UNK         0.1400 
    101 CB        -1.3821  -27.6524  -50.9400 C.3       18 UNK        -0.1800 
    102 C         -3.3438  -26.6762  -52.3045 C.2       18 UNK         0.5000 
    103 O         -3.1642  -27.5879  -53.1144 O.2       18 UNK        -0.5000 
    104 N         -4.2865  -25.7323  -52.4227 N.am      19 UNK        -0.5000 
    105 CA        -5.2796  -25.5941  -53.4895 C.3       19 UNK         0.1400 
    106 CB        -6.2852  -26.7641  -53.4556 C.3       19 UNK        -0.1800 
    107 C         -4.6664  -25.3564  -54.8833 C.2       19 UNK         0.5000 
    108 O         -5.2226  -25.8144  -55.8838 O.2       19 UNK        -0.5000 
    109 N         -3.5478  -24.6191  -54.9372 N.am      20 UNK        -0.5000 
    110 CA        -2.9451  -24.1596  -56.1892 C.3       20 UNK         0.1400 
    111 CB        -1.4643  -23.8177  -55.9625 C.3       20 UNK        -0.1800 
    112 C         -3.6998  -22.9526  -56.7772 C.2       20 UNK         0.5000 
    113 O         -3.6220  -22.7323  -57.9864 O.2       20 UNK        -0.5000 
    114 N         -4.4120  -22.2022  -55.9179 N.am      21 UNK        -0.5000 
    115 CA        -5.2065  -21.0062  -56.2280 C.3       21 UNK         0.1400 
    116 CB        -6.4130  -21.3673  -57.1194 C.3       21 UNK        -0.1800 
    117 C         -4.3580  -19.8480  -56.7995 C.2       21 UNK         0.5000 
    118 O         -4.8561  -19.0401  -57.5861 O.2       21 UNK        -0.5000 
    119 N         -3.0811  -19.8078  -56.4045 N.am      22 UNK        -0.5000 
    120 CA        -2.0843  -18.8100  -56.8055 C.3       22 UNK         0.1400 
    121 C         -2.3395  -17.3914  -56.2166 C.2       22 UNK         0.5000 
    122 N         -1.7526  -16.3597  -56.8089 N.am      22 UNK        -0.7600 
    123 O         -3.0379  -17.2114  -55.2216 O.2       22 UNK        -0.5000 
    124 C124       -0.6471  -19.3247  -56.5233 C.3       23 UNK        -0.0398 
    125 S125       -0.3664  -19.8235  -54.7877 S.3       23 UNK        -0.2404 
    126 C126        0.5687  -18.3934  -54.1737 C.3       23 UNK        -0.0205 
    127 H127       -3.8475   -9.7142  -47.4306 H         1 UNK         0.0600 
    128 H128       -2.4545   -8.6332  -47.3341 H         1 UNK         0.0600 
    129 H129       -3.0503   -9.4385  -45.8789 H         1 UNK         0.0600 
    130 H130       -3.3292  -11.6916  -48.3040 H         1 UNK         0.3000 
    131 H131       -0.6939  -12.5429  -48.7871 H         1 UNK         0.0600 
    132 H132       -3.0788  -14.4490  -48.9545 H         1 UNK         0.0800 
    133 H133       -2.9563  -13.1006  -50.0430 H         1 UNK         0.0800 
    134 H134       -1.4642  -16.4434  -48.9608 H         1 UNK         0.0800 
    135 H135       -2.5321  -16.6723  -50.3328 H         1 UNK         0.0800 
    136 H136       -1.1705  -16.9241  -52.6859 H         1 UNK         0.1150 
    137 H137        2.1328  -19.6252  -52.3161 H         1 UNK         0.1150 
    138 H138        0.3694  -17.8997  -48.8058 H         1 UNK         0.1150 
    139 H139        3.2231  -19.8798  -50.1981 H         1 UNK         0.0800 
    140 H140        2.7055  -18.9948  -48.7937 H         1 UNK         0.0800 
    141 H141        0.9802  -19.5479  -47.2722 H         1 UNK         0.0800 
    142 H142        1.8519  -20.8959  -46.6049 H         1 UNK         0.0800 
    143 H143       -0.2326  -22.3484  -47.1508 H         1 UNK         0.0600 
    144 H144        0.2826  -20.7526  -44.8917 H         1 UNK         0.3000 
    145 H145       -2.4362  -21.8328  -42.8459 H         1 UNK         0.0600 
    146 H146       -0.6441  -23.5697  -42.6808 H         1 UNK         0.0600 
    147 H147        0.5900  -22.3164  -42.7571 H         1 UNK         0.0600 
    148 H148       -0.5144  -22.3869  -41.3869 H         1 UNK         0.0600 
    149 H149       -0.2898  -20.0330  -42.3519 H         1 UNK         0.3000 
    150 H150       -1.9141  -17.0730  -43.5983 H         1 UNK         0.0600 
    151 H151       -1.1457  -16.3497  -41.3319 H         1 UNK         0.0600 
    152 H152       -1.0653  -18.0378  -40.8231 H         1 UNK         0.0600 
    153 H153       -2.6063  -17.3225  -41.2613 H         1 UNK         0.0600 
    154 H154        0.7335  -17.5673  -42.5997 H         1 UNK         0.3000 
    155 H155        2.2801  -18.3565  -45.6549 H         1 UNK         0.0600 
    156 H156        2.4101  -15.6303  -44.3027 H         1 UNK         0.0600 
    157 H157        2.0339  -15.9014  -45.9966 H         1 UNK         0.0600 
    158 H158        3.6248  -16.3216  -45.3726 H         1 UNK         0.0600 
    159 H159        3.2597  -17.5808  -43.0431 H         1 UNK         0.3000 
    160 H160        3.3691  -20.9993  -41.8630 H         1 UNK         0.0600 
    161 H161        5.4339  -20.2547  -43.0787 H         1 UNK         0.0600 
    162 H162        5.6053  -20.1212  -41.3361 H         1 UNK         0.0600 
    163 H163        5.3196  -18.6778  -42.3062 H         1 UNK         0.0600 
    164 H164        3.7764  -18.6928  -40.3336 H         1 UNK         0.3000 
    165 H165        0.6274  -17.9618  -39.1503 H         1 UNK         0.0600 
    166 H166        1.0237  -19.0851  -36.9827 H         1 UNK         0.0600 
    167 H167        0.4673  -20.2350  -38.1863 H         1 UNK         0.0600 
    168 H168        2.1686  -20.1924  -37.7405 H         1 UNK         0.0600 
    169 H169        3.2488  -18.0440  -37.9056 H         1 UNK         0.3000 
    170 H170        1.5227  -16.4483  -40.7079 H         1 UNK         0.0600 
    171 H171        0.1236  -14.5001  -40.0645 H         1 UNK         0.0600 
    172 H172        0.1747  -15.6514  -38.7389 H         1 UNK         0.0600 
    173 H173        1.1491  -14.1896  -38.6646 H         1 UNK         0.0600 
    174 H174        2.4317  -13.7720  -40.7433 H         1 UNK         0.3000 
    175 H175        4.5971  -13.1457  -41.6277 H         1 UNK         0.0600 
    176 H176        5.4957  -15.0235  -43.8804 H         1 UNK         0.0600 
    177 H177        6.1875  -13.4468  -43.5002 H         1 UNK         0.0600 
    178 H178        6.3457  -14.7738  -42.3603 H         1 UNK         0.0600 
    179 H179        3.6559  -13.5423  -44.3523 H         1 UNK         0.3000 
    180 H180        1.4311  -10.9344  -44.2225 H         1 UNK         0.0600 
    181 H181        1.8730  -11.6068  -46.5187 H         1 UNK         0.0600 
    182 H182        2.5395  -13.1517  -46.0154 H         1 UNK         0.0600 
    183 H183        3.3913  -11.6478  -45.6460 H         1 UNK         0.0600 
    184 H184       -0.2623  -12.1432  -45.2423 H         1 UNK         0.3000 
    185 H185       -1.3807  -15.3489  -44.9182 H         1 UNK         0.0600 
    186 H186       -2.8554  -13.0471  -43.5285 H         1 UNK         0.0600 
    187 H187       -3.5789  -14.5481  -44.1114 H         1 UNK         0.0600 
    188 H188       -2.4420  -14.5809  -42.7738 H         1 UNK         0.0600 
    189 H189       -2.6195  -12.9975  -45.9748 H         1 UNK         0.3000 
    190 H190       -1.4388  -19.0604  -46.3464 H         1 UNK         0.3000 
    191 H191       -3.0707  -18.6815  -48.6272 H         1 UNK         0.0600 
    192 H192       -3.4755  -17.5395  -45.8046 H         1 UNK         0.0600 
    193 H193       -4.0712  -16.8642  -47.3133 H         1 UNK         0.0600 
    194 H194       -2.3475  -16.8830  -46.9708 H         1 UNK         0.0600 
    195 H195       -3.8972  -19.8841  -45.3378 H         1 UNK         0.3000 
    196 H196       -6.6329  -20.2997  -45.7229 H         1 UNK         0.0600 
    197 H197       -6.4509  -21.7061  -43.6572 H         1 UNK         0.0600 
    198 H198       -5.5612  -20.2006  -43.4977 H         1 UNK         0.0600 
    199 H199       -4.6980  -21.7065  -43.8101 H         1 UNK         0.0600 
    200 H200       -3.9421  -22.4743  -46.4905 H         1 UNK         0.3000 
    201 H201       -5.5677  -24.7588  -47.2122 H         1 UNK         0.0600 
    202 H202       -3.2135  -24.9463  -46.4077 H         1 UNK         0.0600 
    203 H203       -2.6463  -24.0802  -47.8332 H         1 UNK         0.0600 
    204 H204       -3.3994  -25.6665  -47.9942 H         1 UNK         0.0600 
    205 H205       -6.6064  -22.4702  -48.4712 H         1 UNK         0.3000 
    206 H206       -7.3285  -21.5601  -50.3697 H         1 UNK         0.0600 
    207 H207       -7.9731  -23.2152  -52.1700 H         1 UNK         0.0600 
    208 H208       -7.0322  -24.4491  -51.3341 H         1 UNK         0.0600 
    209 H209       -8.4323  -23.7285  -50.5571 H         1 UNK         0.0600 
    210 H210       -4.7148  -20.9940  -49.9662 H         1 UNK         0.3000 
    211 H211       -2.8490  -20.1476  -50.7826 H         1 UNK         0.0600 
    212 H212       -4.1800  -20.0960  -53.5302 H         1 UNK         0.0600 
    213 H213       -2.7375  -19.2228  -53.0517 H         1 UNK         0.0600 
    214 H214       -4.2788  -18.8278  -52.3120 H         1 UNK         0.0600 
    215 H215       -1.6275  -21.8664  -50.2214 H         1 UNK         0.3000 
    216 H216       -0.0069  -23.3485  -50.4102 H         1 UNK         0.0600 
    217 H217        1.3957  -23.3237  -52.4471 H         1 UNK         0.0600 
    218 H218        0.8992  -21.6971  -52.0207 H         1 UNK         0.0600 
    219 H219        0.1161  -22.5329  -53.3581 H         1 UNK         0.0600 
    220 H220       -2.2400  -24.6475  -50.1793 H         1 UNK         0.3000 
    221 H221       -3.1259  -26.6717  -50.1965 H         1 UNK         0.0600 
    222 H222       -0.6950  -27.6415  -51.7863 H         1 UNK         0.0600 
    223 H223       -0.7946  -27.5387  -50.0290 H         1 UNK         0.0600 
    224 H224       -1.8415  -28.6409  -50.9084 H         1 UNK         0.0600 
    225 H225       -4.3500  -25.0490  -51.6702 H         1 UNK         0.3000 
    226 H226       -5.8370  -24.6863  -53.2696 H         1 UNK         0.0600 
    227 H227       -6.7164  -26.8839  -52.4617 H         1 UNK         0.0600 
    228 H228       -7.1114  -26.5902  -54.1459 H         1 UNK         0.0600 
    229 H229       -5.8182  -27.7086  -53.7358 H         1 UNK         0.0600 
    230 H230       -3.1597  -24.2353  -54.0826 H         1 UNK         0.3000 
    231 H231       -2.9904  -24.9700  -56.9199 H         1 UNK         0.0600 
    232 H232       -1.3397  -22.9637  -55.2979 H         1 UNK         0.0600 
    233 H233       -0.9248  -24.6607  -55.5308 H         1 UNK         0.0600 
    234 H234       -0.9761  -23.5665  -56.9048 H         1 UNK         0.0600 
    235 H235       -4.3717  -22.4502  -54.9357 H         1 UNK         0.3000 
    236 H236       -5.6052  -20.6514  -55.2774 H         1 UNK         0.0600 
    237 H237       -6.1034  -21.6653  -58.1214 H         1 UNK         0.0600 
    238 H238       -6.9894  -22.1859  -56.6883 H         1 UNK         0.0600 
    239 H239       -7.0883  -20.5177  -57.2258 H         1 UNK         0.0600 
    240 H240       -2.7664  -20.4894  -55.7287 H         1 UNK         0.3000 
    241 H241       -2.1776  -18.7053  -57.8882 H         1 UNK         0.0600 
    242 H242       -1.9035  -15.4353  -56.4359 H         1 UNK         0.3800 
    243 H243       -1.1796  -16.4712  -57.6311 H         1 UNK         0.3800 
    244 H244       -0.4568  -20.2014  -57.1439 H         1 UNK         0.0800 
    245 H245        0.1003  -18.5909  -56.8290 H         1 UNK         0.0800 
    246 H246        0.1844  -17.4758  -54.6212 H         1 UNK         0.0800 
    247 H247        1.6085  -18.4780  -54.4928 H         1 UNK         0.0800 
@<TRIPOS>BOND
     1    1    2 1    
     2    1  127 1    
     3    1  128 1    
     4    1  129 1    
     5    2    3 2    
     6    2    4 am   BACKBONE|DICT|INTERRES
     7    4    5 1    
     8    4  130 1    
     9    5    6 1    
    10    5   65 1    
    11    5  131 1    
    12    6    7 1    
    13    6  132 1    
    14    6  133 1    
    15    7    8 1    
    16    8    9 1    
    17    8  134 1    
    18    8  135 1    
    19    9   10 ar   
    20    9   14 ar   
    21   10   11 ar   
    22   10  136 1    
    23   11   12 ar   
    24   11  126 1    
    25   12   13 ar   
    26   12  137 1    
    27   13   14 ar   
    28   13   15 1    
    29   14  138 1    
    30   15   16 1    
    31   15  139 1    
    32   15  140 1    
    33   16   17 1    
    34   17   18 1    
    35   17  141 1    
    36   17  142 1    
    37   18   19 1    
    38   18   67 1    
    39   18  143 1    
    40   19   20 am   BACKBONE|DICT|INTERRES
    41   19  144 1    
    42   20   21 2    
    43   20   22 1    
    44   22   23 1    
    45   22   24 1    
    46   22  145 1    
    47   23  146 1    
    48   23  147 1    
    49   23  148 1    
    50   24   25 am   BACKBONE|DICT|INTERRES
    51   24  149 1    
    52   25   26 2    
    53   25   27 1    
    54   27   28 1    
    55   27   29 1    
    56   27  150 1    
    57   28  151 1    
    58   28  152 1    
    59   28  153 1    
    60   29   30 am   BACKBONE|DICT|INTERRES
    61   29  154 1    
    62   30   31 2    
    63   30   32 1    
    64   32   33 1    
    65   32   34 1    
    66   32  155 1    
    67   33  156 1    
    68   33  157 1    
    69   33  158 1    
    70   34   35 am   BACKBONE|DICT|INTERRES
    71   34  159 1    
    72   35   36 2    
    73   35   37 1    
    74   37   38 1    
    75   37   39 1    
    76   37  160 1    
    77   38  161 1    
    78   38  162 1    
    79   38  163 1    
    80   39   40 am   BACKBONE|DICT|INTERRES
    81   39  164 1    
    82   40   41 2    
    83   40   42 1    
    84   42   43 1    
    85   42   44 1    
    86   42  165 1    
    87   43  166 1    
    88   43  167 1    
    89   43  168 1    
    90   44   45 am   BACKBONE|DICT|INTERRES
    91   44  169 1    
    92   45   46 2    
    93   45   47 1    
    94   47   48 1    
    95   47   49 1    
    96   47  170 1    
    97   48  171 1    
    98   48  172 1    
    99   48  173 1    
   100   49   50 am   BACKBONE|DICT|INTERRES
   101   49  174 1    
   102   50   51 2    
   103   50   52 1    
   104   52   53 1    
   105   52   54 1    
   106   52  175 1    
   107   53  176 1    
   108   53  177 1    
   109   53  178 1    
   110   54   55 am   BACKBONE|DICT|INTERRES
   111   54  179 1    
   112   55   56 2    
   113   55   57 1    
   114   57   58 1    
   115   57   59 1    
   116   57  180 1    
   117   58  181 1    
   118   58  182 1    
   119   58  183 1    
   120   59   60 am   BACKBONE|DICT|INTERRES
   121   59  184 1    
   122   60   61 2    
   123   60   62 1    
   124   62   63 1    
   125   62   64 1    
   126   62  185 1    
   127   63  186 1    
   128   63  187 1    
   129   63  188 1    
   130   64   65 am   BACKBONE|DICT|INTERRES
   131   64  189 1    
   132   65   66 2    
   133   67   68 2    
   134   67   69 am   BACKBONE|DICT|INTERRES
   135   69   70 1    
   136   69  190 1    
   137   70   71 1    
   138   70   72 1    
   139   70  191 1    
   140   71  192 1    
   141   71  193 1    
   142   71  194 1    
   143   72   73 2    
   144   72   74 am   BACKBONE|DICT|INTERRES
   145   74   75 1    
   146   74  195 1    
   147   75   76 1    
   148   75   77 1    
   149   75  196 1    
   150   76  197 1    
   151   76  198 1    
   152   76  199 1    
   153   77   78 2    
   154   77   79 am   BACKBONE|DICT|INTERRES
   155   79   80 1    
   156   79  200 1    
   157   80   81 1    
   158   80   82 1    
   159   80  201 1    
   160   81  202 1    
   161   81  203 1    
   162   81  204 1    
   163   82   83 2    
   164   82   84 am   BACKBONE|DICT|INTERRES
   165   84   85 1    
   166   84  205 1    
   167   85   86 1    
   168   85   87 1    
   169   85  206 1    
   170   86  207 1    
   171   86  208 1    
   172   86  209 1    
   173   87   88 2    
   174   87   89 am   BACKBONE|DICT|INTERRES
   175   89   90 1    
   176   89  210 1    
   177   90   91 1    
   178   90   92 1    
   179   90  211 1    
   180   91  212 1    
   181   91  213 1    
   182   91  214 1    
   183   92   93 2    
   184   92   94 am   BACKBONE|DICT|INTERRES
   185   94   95 1    
   186   94  215 1    
   187   95   96 1    
   188   95   97 1    
   189   95  216 1    
   190   96  217 1    
   191   96  218 1    
   192   96  219 1    
   193   97   98 2    
   194   97   99 am   BACKBONE|DICT|INTERRES
   195   99  100 1    
   196   99  220 1    
   197  100  101 1    
   198  100  102 1    
   199  100  221 1    
   200  101  222 1    
   201  101  223 1    
   202  101  224 1    
   203  102  103 2    
   204  102  104 am   BACKBONE|DICT|INTERRES
   205  104  105 1    
   206  104  225 1    
   207  105  106 1    
   208  105  107 1    
   209  105  226 1    
   210  106  227 1    
   211  106  228 1    
   212  106  229 1    
   213  107  108 2    
   214  107  109 am   BACKBONE|DICT|INTERRES
   215  109  110 1    
   216  109  230 1    
   217  110  111 1    
   218  110  112 1    
   219  110  231 1    
   220  111  232 1    
   221  111  233 1    
   222  111  234 1    
   223  112  113 2    
   224  112  114 am   BACKBONE|DICT|INTERRES
   225  114  115 1    
   226  114  235 1    
   227  115  116 1    
   228  115  117 1    
   229  115  236 1    
   230  116  237 1    
   231  116  238 1    
   232  116  239 1    
   233  117  118 2    
   234  117  119 am   BACKBONE|DICT|INTERRES
   235  119  120 1    
   236  119  240 1    
   237  120  121 1    
   238  120  124 1    
   239  120  241 1    
   240  121  122 am   BACKBONE|DICT|INTERRES
   241  121  123 2    
   242  122  242 1    
   243  122  243 1    
   244  124  125 1    
   245  124  244 1    
   246  124  245 1    
   247  125  126 1    
   248  126  246 1    
   249  126  247 1    
@<TRIPOS>SUBSTRUCTURE
     1 UNK         1 GROUP             0       ****    0 ROOT    
