@<TRIPOS>MOLECULE
3R540
247   249    1
SMALL
USER_CHARGES


@<TRIPOS>ATOM
      1 CA          6.5268  -11.2890  -49.9250 C.3       0 UNK        -0.1800 
      2 C           5.6270  -12.3845  -49.3711 C.2       0 UNK         0.5000 
      3 O           5.9766  -13.0170  -48.3750 O.2       0 UNK        -0.5000 
      4 N           4.4727  -12.6106  -50.0137 N.am      1 UNK        -0.5000 
      5 CA          3.4627  -13.5976  -49.6112 C.3       1 UNK         0.1400 
      6 C6          2.4013  -13.7929  -50.7230 C.3       23 UNK        -0.0398 
      7 S7          1.3961  -15.2973  -50.4925 S.3       23 UNK        -0.2404 
      8 C8          2.0027  -16.3484  -51.8460 C.3       23 UNK        -0.0205 
      9 C9          1.3859  -17.7327  -51.7533 C.ar      23 UNK        -0.0193 
     10 C10         0.0952  -17.9603  -52.2363 C.ar      23 UNK        -0.1150 
     11 C11        -0.5027  -19.2160  -52.0986 C.ar      23 UNK        -0.0193 
     12 C12         0.2084  -20.2528  -51.4876 C.ar      23 UNK        -0.1150 
     13 C13         1.5098  -20.0435  -51.0210 C.ar      23 UNK        -0.0193 
     14 C14         2.0942  -18.7810  -51.1620 C.ar      23 UNK        -0.1150 
     15 C15         2.2841  -21.1867  -50.3783 C.3       23 UNK        -0.0205 
     16 S16         2.9807  -20.7623  -48.7470 S.3       23 UNK        -0.2404 
     17 C17         1.4924  -20.3548  -47.7737 C.3       23 UNK        -0.0398 
     18 CA          0.8456  -21.6120  -47.1353 C.3       11 UNK         0.1400 
     19 N           0.5562  -21.4429  -45.7091 N.am      11 UNK        -0.5000 
     20 C           0.2103  -22.4441  -44.8874 C.2       10 UNK         0.5000 
     21 O           0.1478  -23.6228  -45.2371 O.2       10 UNK        -0.5000 
     22 CA         -0.1830  -22.0623  -43.4495 C.3       10 UNK         0.1400 
     23 CB          1.0618  -21.8988  -42.5653 C.3       10 UNK        -0.1800 
     24 N          -0.9985  -20.8479  -43.3964 N.am      10 UNK        -0.5000 
     25 C          -2.2209  -20.7385  -43.9363 C.2       9 UNK         0.5000 
     26 O          -2.8082  -21.6719  -44.4826 O.2       9 UNK        -0.5000 
     27 CA         -2.8827  -19.3493  -43.9035 C.3       9 UNK         0.1400 
     28 CB         -3.5371  -19.0915  -42.5385 C.3       9 UNK        -0.1800 
     29 N          -1.9521  -18.2650  -44.2224 N.am      9 UNK        -0.5000 
     30 C          -1.3241  -18.1208  -45.3994 C.2       8 UNK         0.5000 
     31 O          -1.4864  -18.8751  -46.3585 O.2       8 UNK        -0.5000 
     32 CA         -0.2950  -16.9796  -45.5035 C.3       8 UNK         0.1400 
     33 CB         -0.9843  -15.6251  -45.7248 C.3       8 UNK        -0.1800 
     34 N           0.5715  -16.9025  -44.3278 N.am      8 UNK        -0.5000 
     35 C           1.4093  -17.8741  -43.9390 C.2       7 UNK         0.5000 
     36 O           1.5741  -18.9259  -44.5561 O.2       7 UNK        -0.5000 
     37 CA          2.1403  -17.6594  -42.6042 C.3       7 UNK         0.1400 
     38 CB          3.3377  -16.7112  -42.7741 C.3       7 UNK        -0.1800 
     39 N           1.2395  -17.1534  -41.5675 N.am      7 UNK        -0.5000 
     40 C           0.2352  -17.8620  -41.0304 C.2       6 UNK         0.5000 
     41 O          -0.0162  -19.0278  -41.3316 O.2       6 UNK        -0.5000 
     42 CA         -0.6615  -17.1357  -40.0120 C.3       6 UNK         0.1400 
     43 CB         -0.0400  -17.1908  -38.6086 C.3       6 UNK        -0.1800 
     44 N          -0.9123  -15.7416  -40.3766 N.am      6 UNK        -0.5000 
     45 C          -1.6181  -15.3497  -41.4471 C.2       5 UNK         0.5000 
     46 O          -2.1637  -16.1249  -42.2315 O.2       5 UNK        -0.5000 
     47 CA         -1.6633  -13.8341  -41.7151 C.3       5 UNK         0.1400 
     48 CB         -2.7570  -13.1633  -40.8709 C.3       5 UNK        -0.1800 
     49 N          -0.3746  -13.1827  -41.4591 N.am      5 UNK        -0.5000 
     50 C           0.7428  -13.4503  -42.1454 C.2       4 UNK         0.5000 
     51 O           0.7934  -14.2564  -43.0799 O.2       4 UNK        -0.5000 
     52 CA          2.0246  -12.7427  -41.6905 C.3       4 UNK         0.1400 
     53 CB          2.6648  -13.4889  -40.5042 C.3       4 UNK        -0.1800 
     54 N           2.9231  -12.7188  -42.8354 N.am      4 UNK        -0.5000 
     55 C           4.0538  -12.0201  -42.9718 C.2       3 UNK         0.5000 
     56 O           4.5525  -11.3266  -42.0846 O.2       3 UNK        -0.5000 
     57 CA          4.7145  -12.0852  -44.3621 C.3       3 UNK         0.1400 
     58 CB          5.6193  -13.3218  -44.4751 C.3       3 UNK        -0.1800 
     59 N           3.7258  -12.1128  -45.4433 N.am      3 UNK        -0.5000 
     60 C           2.9165  -11.0963  -45.7696 C.2       2 UNK         0.5000 
     61 O           2.9729   -9.9882  -45.2332 O.2       2 UNK        -0.5000 
     62 CA          1.8831  -11.3678  -46.8838 C.3       2 UNK         0.1400 
     63 CB          1.0970  -10.1074  -47.2885 C.3       2 UNK        -0.1800 
     64 N           2.5015  -11.9367  -48.0814 N.am      2 UNK        -0.5000 
     65 C           2.8117  -13.2280  -48.2593 C.2       1 UNK         0.5000 
     66 O           2.6427  -14.0905  -47.3959 O.2       1 UNK        -0.5000 
     67 C          -0.4012  -22.0704  -47.9190 C.2       11 UNK         0.5000 
     68 O          -0.3006  -22.9892  -48.7298 O.2       11 UNK        -0.5000 
     69 N          -1.5624  -21.4658  -47.6300 N.am      12 UNK        -0.5000 
     70 CA         -2.8536  -21.8475  -48.2026 C.3       12 UNK         0.1400 
     71 CB         -3.9257  -20.8264  -47.7979 C.3       12 UNK        -0.1800 
     72 C          -3.2821  -23.2768  -47.8191 C.2       12 UNK         0.5000 
     73 O          -3.8148  -23.9971  -48.6644 O.2       12 UNK        -0.5000 
     74 N          -3.0145  -23.6805  -46.5698 N.am      13 UNK        -0.5000 
     75 CA         -3.2203  -25.0446  -46.0840 C.3       13 UNK         0.1400 
     76 CB         -3.0340  -25.0935  -44.5603 C.3       13 UNK        -0.1800 
     77 C          -2.3014  -26.0562  -46.7935 C.2       13 UNK         0.5000 
     78 O          -2.7859  -27.0894  -47.2565 O.2       13 UNK        -0.5000 
     79 N          -1.0093  -25.7175  -46.9200 N.am      14 UNK        -0.5000 
     80 CA         -0.0010  -26.5035  -47.6395 C.3       14 UNK         0.1400 
     81 CB          1.3865  -25.8827  -47.4181 C.3       14 UNK        -0.1800 
     82 C          -0.2987  -26.6489  -49.1457 C.2       14 UNK         0.5000 
     83 O          -0.0082  -27.6956  -49.7253 O.2       14 UNK        -0.5000 
     84 N          -0.9156  -25.6181  -49.7378 N.am      15 UNK        -0.5000 
     85 CA         -1.4091  -25.5884  -51.1160 C.3       15 UNK         0.1400 
     86 CB         -1.5799  -24.1232  -51.5484 C.3       15 UNK        -0.1800 
     87 C          -2.7110  -26.3918  -51.3389 C.2       15 UNK         0.5000 
     88 O          -3.1963  -26.4242  -52.4699 O.2       15 UNK        -0.5000 
     89 N          -3.2384  -27.0319  -50.2826 N.am      16 UNK        -0.5000 
     90 CA         -4.4379  -27.8712  -50.2438 C.3       16 UNK         0.1400 
     91 CB         -4.3010  -29.0977  -51.1713 C.3       16 UNK        -0.1800 
     92 C          -5.7111  -27.0467  -50.5012 C.2       16 UNK         0.5000 
     93 O          -6.3395  -27.1758  -51.5534 O.2       16 UNK        -0.5000 
     94 N          -6.0500  -26.2077  -49.5122 N.am      17 UNK        -0.5000 
     95 CA         -7.1882  -25.2830  -49.4837 C.3       17 UNK         0.1400 
     96 CB         -8.5343  -26.0344  -49.5658 C.3       17 UNK        -0.1800 
     97 C          -7.0425  -24.1619  -50.5299 C.2       17 UNK         0.5000 
     98 O          -7.9619  -23.9016  -51.3093 O.2       17 UNK        -0.5000 
     99 N          -5.8685  -23.5191  -50.5050 N.am      18 UNK        -0.5000 
    100 CA        -5.4136  -22.3852  -51.3084 C.3       18 UNK         0.1400 
    101 CB        -6.3250  -21.1567  -51.1327 C.3       18 UNK        -0.1800 
    102 C         -5.1981  -22.7030  -52.7940 C.2       18 UNK         0.5000 
    103 O         -4.0872  -22.5185  -53.2920 O.2       18 UNK        -0.5000 
    104 N         -6.2709  -23.1178  -53.4802 N.am      19 UNK        -0.5000 
    105 CA        -6.4223  -23.3429  -54.9242 C.3       19 UNK         0.1400 
    106 CB        -5.4884  -24.4647  -55.4172 C.3       19 UNK        -0.1800 
    107 C         -6.2713  -22.0661  -55.7812 C.2       19 UNK         0.5000 
    108 O         -7.1140  -21.8106  -56.6429 O.2       19 UNK        -0.5000 
    109 N         -5.2136  -21.2909  -55.5247 N.am      20 UNK        -0.5000 
    110 CA        -4.9108  -19.9980  -56.1272 C.3       20 UNK         0.1400 
    111 CB        -3.3844  -19.9042  -56.3132 C.3       20 UNK        -0.1800 
    112 C         -5.4818  -18.8354  -55.2840 C.2       20 UNK         0.5000 
    113 O         -6.3407  -19.0411  -54.4226 O.2       20 UNK        -0.5000 
    114 N         -4.9991  -17.6182  -55.5665 N.am      21 UNK        -0.5000 
    115 CA        -5.4964  -16.3352  -55.0574 C.3       21 UNK         0.1400 
    116 CB        -4.7946  -15.2074  -55.8320 C.3       21 UNK        -0.1800 
    117 C         -5.3705  -16.1003  -53.5361 C.2       21 UNK         0.5000 
    118 O         -5.9488  -15.1320  -53.0402 O.2       21 UNK        -0.5000 
    119 N         -4.6343  -16.9590  -52.8185 N.am      22 UNK        -0.5000 
    120 CA        -4.4998  -16.9160  -51.3507 C.3       22 UNK         0.1400 
    121 C         -5.7732  -17.3340  -50.5523 C.2       22 UNK         0.5000 
    122 N         -6.8259  -17.8356  -51.1878 N.am      22 UNK        -0.7600 
    123 O         -5.8152  -17.1747  -49.3356 O.2       22 UNK        -0.5000 
    124 C124       -3.2223  -17.6446  -50.8572 C.3       23 UNK        -0.0398 
    125 S125       -3.1507  -19.4192  -51.2884 S.3       23 UNK        -0.2404 
    126 C126       -1.9112  -19.4567  -52.6187 C.3       23 UNK        -0.0205 
    127 H127        6.6857  -10.5182  -49.1709 H         1 UNK         0.0600 
    128 H128        6.0958  -10.8171  -50.8083 H         1 UNK         0.0600 
    129 H129        7.4966  -11.7036  -50.2000 H         1 UNK         0.0600 
    130 H130        4.2528  -12.0607  -50.8321 H         1 UNK         0.3000 
    131 H131        3.9848  -14.5472  -49.4729 H         1 UNK         0.0600 
    132 H132        1.7326  -12.9323  -50.7830 H         1 UNK         0.0800 
    133 H133        2.8912  -13.8516  -51.6960 H         1 UNK         0.0800 
    134 H134        3.0912  -16.4132  -51.8006 H         1 UNK         0.0800 
    135 H135        1.7545  -15.8927  -52.8058 H         1 UNK         0.0800 
    136 H136       -0.4491  -17.1506  -52.7018 H         1 UNK         0.1150 
    137 H137       -0.2560  -21.2225  -51.3771 H         1 UNK         0.1150 
    138 H138        3.0960  -18.6107  -50.7930 H         1 UNK         0.1150 
    139 H139        1.6588  -22.0746  -50.2785 H         1 UNK         0.0800 
    140 H140        3.1022  -21.4663  -51.0430 H         1 UNK         0.0800 
    141 H141        0.7881  -19.7747  -48.3736 H         1 UNK         0.0800 
    142 H142        1.8280  -19.6649  -47.0006 H         1 UNK         0.0800 
    143 H143        1.5620  -22.4347  -47.1887 H         1 UNK         0.0600 
    144 H144        0.6319  -20.5033  -45.3316 H         1 UNK         0.3000 
    145 H145       -0.7796  -22.8811  -43.0423 H         1 UNK         0.0600 
    146 H146        1.6863  -21.0685  -42.8951 H         1 UNK         0.0600 
    147 H147        0.7852  -21.7168  -41.5268 H         1 UNK         0.0600 
    148 H148        1.6757  -22.8001  -42.5850 H         1 UNK         0.0600 
    149 H149       -0.5991  -20.0519  -42.9082 H         1 UNK         0.3000 
    150 H150       -3.6691  -19.3409  -44.6608 H         1 UNK         0.0600 
    151 H151       -4.2463  -19.8819  -42.2896 H         1 UNK         0.0600 
    152 H152       -4.0863  -18.1499  -42.5366 H         1 UNK         0.0600 
    153 H153       -2.7975  -19.0494  -41.7389 H         1 UNK         0.0600 
    154 H154       -1.7979  -17.5726  -43.4951 H         1 UNK         0.3000 
    155 H155        0.3381  -17.1821  -46.3702 H         1 UNK         0.0600 
    156 H156       -1.6057  -15.3445  -44.8739 H         1 UNK         0.0600 
    157 H157       -1.6245  -15.6526  -46.6074 H         1 UNK         0.0600 
    158 H158       -0.2509  -14.8328  -45.8785 H         1 UNK         0.0600 
    159 H159        0.5221  -16.0485  -43.7799 H         1 UNK         0.3000 
    160 H160        2.5229  -18.6280  -42.2751 H         1 UNK         0.0600 
    161 H161        3.0298  -15.7179  -43.0992 H         1 UNK         0.0600 
    162 H162        4.0332  -17.0958  -43.5211 H         1 UNK         0.0600 
    163 H163        3.8918  -16.6041  -41.8417 H         1 UNK         0.0600 
    164 H164        1.3491  -16.1884  -41.2981 H         1 UNK         0.3000 
    165 H165       -1.6209  -17.6563  -39.9813 H         1 UNK         0.0600 
    166 H166       -0.7031  -16.7464  -37.8661 H         1 UNK         0.0600 
    167 H167        0.1427  -18.2221  -38.3035 H         1 UNK         0.0600 
    168 H168        0.9133  -16.6623  -38.5673 H         1 UNK         0.0600 
    169 H169       -0.4990  -15.0343  -39.7875 H         1 UNK         0.3000 
    170 H170       -1.9105  -13.6919  -42.7694 H         1 UNK         0.0600 
    171 H171       -3.7289  -13.6231  -41.0559 H         1 UNK         0.0600 
    172 H172       -2.5524  -13.2465  -39.8028 H         1 UNK         0.0600 
    173 H173       -2.8486  -12.1046  -41.1141 H         1 UNK         0.0600 
    174 H174       -0.3459  -12.5112  -40.7051 H         1 UNK         0.3000 
    175 H175        1.7840  -11.7170  -41.4044 H         1 UNK         0.0600 
    176 H176        2.9534  -14.5045  -40.7744 H         1 UNK         0.0600 
    177 H177        3.5566  -12.9759  -40.1448 H         1 UNK         0.0600 
    178 H178        1.9747  -13.5554  -39.6624 H         1 UNK         0.0600 
    179 H179        2.5764  -13.2529  -43.6231 H         1 UNK         0.3000 
    180 H180        5.3325  -11.1933  -44.4846 H         1 UNK         0.0600 
    181 H181        5.0508  -14.2481  -44.3818 H         1 UNK         0.0600 
    182 H182        6.3798  -13.3220  -43.6932 H         1 UNK         0.0600 
    183 H183        6.1382  -13.3427  -45.4338 H         1 UNK         0.0600 
    184 H184        3.6158  -12.9843  -45.9503 H         1 UNK         0.3000 
    185 H185        1.1655  -12.0863  -46.4814 H         1 UNK         0.0600 
    186 H186        0.5711   -9.6812  -46.4332 H         1 UNK         0.0600 
    187 H187        1.7534   -9.3348  -47.6908 H         1 UNK         0.0600 
    188 H188        0.3464  -10.3373  -48.0450 H         1 UNK         0.0600 
    189 H189        2.7350  -11.2835  -48.8148 H         1 UNK         0.3000 
    190 H190       -1.5616  -20.6764  -46.9890 H         1 UNK         0.3000 
    191 H191       -2.7476  -21.8149  -49.2879 H         1 UNK         0.0600 
    192 H192       -4.0483  -20.7763  -46.7164 H         1 UNK         0.0600 
    193 H193       -4.8940  -21.0872  -48.2248 H         1 UNK         0.0600 
    194 H194       -3.6720  -19.8269  -48.1522 H         1 UNK         0.0600 
    195 H195       -2.6470  -23.0056  -45.9054 H         1 UNK         0.3000 
    196 H196       -4.2530  -25.3234  -46.3032 H         1 UNK         0.0600 
    197 H197       -3.2224  -26.0971  -44.1770 H         1 UNK         0.0600 
    198 H198       -3.7262  -24.4176  -44.0578 H         1 UNK         0.0600 
    199 H199       -2.0232  -24.8145  -44.2645 H         1 UNK         0.0600 
    200 H200       -0.6840  -24.8612  -46.4790 H         1 UNK         0.3000 
    201 H201        0.0033  -27.5064  -47.2079 H         1 UNK         0.0600 
    202 H202        1.6336  -25.8366  -46.3574 H         1 UNK         0.0600 
    203 H203        1.4435  -24.8707  -47.8189 H         1 UNK         0.0600 
    204 H204        2.1615  -26.4735  -47.9078 H         1 UNK         0.0600 
    205 H205       -1.0312  -24.7619  -49.2039 H         1 UNK         0.3000 
    206 H206       -0.6483  -26.0378  -51.7571 H         1 UNK         0.0600 
    207 H207       -0.6447  -23.5735  -51.4475 H         1 UNK         0.0600 
    208 H208       -1.8831  -24.0527  -52.5935 H         1 UNK         0.0600 
    209 H209       -2.3366  -23.6133  -50.9531 H         1 UNK         0.0600 
    210 H210       -2.7792  -26.9114  -49.3876 H         1 UNK         0.3000 
    211 H211       -4.5095  -28.2523  -49.2239 H         1 UNK         0.0600 
    212 H212       -4.2534  -28.8182  -52.2239 H         1 UNK         0.0600 
    213 H213       -5.1541  -29.7666  -51.0535 H         1 UNK         0.0600 
    214 H214       -3.4038  -29.6701  -50.9359 H         1 UNK         0.0600 
    215 H215       -5.4242  -26.1436  -48.7210 H         1 UNK         0.3000 
    216 H216       -7.1538  -24.7921  -48.5099 H         1 UNK         0.0600 
    217 H217       -9.3690  -25.3507  -49.4071 H         1 UNK         0.0600 
    218 H218       -8.6005  -26.8096  -48.8026 H         1 UNK         0.0600 
    219 H219       -8.6834  -26.5057  -50.5375 H         1 UNK         0.0600 
    220 H220       -5.1729  -23.8535  -49.8396 H         1 UNK         0.3000 
    221 H221       -4.4353  -22.1206  -50.9084 H         1 UNK         0.0600 
    222 H222       -6.3375  -20.8124  -50.0995 H         1 UNK         0.0600 
    223 H223       -5.9656  -20.3320  -51.7475 H         1 UNK         0.0600 
    224 H224       -7.3539  -21.3498  -51.4349 H         1 UNK         0.0600 
    225 H225       -7.1138  -23.2612  -52.9302 H         1 UNK         0.3000 
    226 H226       -7.4477  -23.6908  -55.0580 H         1 UNK         0.0600 
    227 H227       -5.6341  -25.3789  -54.8412 H         1 UNK         0.0600 
    228 H228       -5.6860  -24.7021  -56.4630 H         1 UNK         0.0600 
    229 H229       -4.4369  -24.1869  -55.3402 H         1 UNK         0.0600 
    230 H230       -4.6083  -21.5886  -54.7629 H         1 UNK         0.3000 
    231 H231       -5.3764  -19.9401  -57.1129 H         1 UNK         0.0600 
    232 H232       -3.0096  -20.7540  -56.8842 H         1 UNK         0.0600 
    233 H233       -2.8626  -19.8964  -55.3574 H         1 UNK         0.0600 
    234 H234       -3.0946  -19.0070  -56.8607 H         1 UNK         0.0600 
    235 H235       -4.2791  -17.5512  -56.2711 H         1 UNK         0.3000 
    236 H236       -6.5624  -16.2894  -55.2890 H         1 UNK         0.0600 
    237 H237       -5.1661  -14.2280  -55.5272 H         1 UNK         0.0600 
    238 H238       -3.7170  -15.2161  -55.6633 H         1 UNK         0.0600 
    239 H239       -4.9686  -15.2957  -56.9046 H         1 UNK         0.0600 
    240 H240       -4.2283  -17.7560  -53.2836 H         1 UNK         0.3000 
    241 H241       -4.3562  -15.8656  -51.0899 H         1 UNK         0.0600 
    242 H242       -7.6477  -18.0869  -50.6628 H         1 UNK         0.3800 
    243 H243       -6.7943  -17.9958  -52.1839 H         1 UNK         0.3800 
    244 H244       -2.3468  -17.1346  -51.2553 H         1 UNK         0.0800 
    245 H245       -3.1292  -17.5591  -49.7731 H         1 UNK         0.0800 
    246 H246       -1.9538  -20.4332  -53.1040 H         1 UNK         0.0800 
    247 H247       -2.1694  -18.7213  -53.3812 H         1 UNK         0.0800 
@<TRIPOS>BOND
     1    1    2 1    
     2    1  127 1    
     3    1  128 1    
     4    1  129 1    
     5    2    3 2    
     6    2    4 am   BACKBONE|DICT|INTERRES
     7    4    5 1    
     8    4  130 1    
     9    5    6 1    
    10    5   65 1    
    11    5  131 1    
    12    6    7 1    
    13    6  132 1    
    14    6  133 1    
    15    7    8 1    
    16    8    9 1    
    17    8  134 1    
    18    8  135 1    
    19    9   10 ar   
    20    9   14 ar   
    21   10   11 ar   
    22   10  136 1    
    23   11   12 ar   
    24   11  126 1    
    25   12   13 ar   
    26   12  137 1    
    27   13   14 ar   
    28   13   15 1    
    29   14  138 1    
    30   15   16 1    
    31   15  139 1    
    32   15  140 1    
    33   16   17 1    
    34   17   18 1    
    35   17  141 1    
    36   17  142 1    
    37   18   19 1    
    38   18   67 1    
    39   18  143 1    
    40   19   20 am   BACKBONE|DICT|INTERRES
    41   19  144 1    
    42   20   21 2    
    43   20   22 1    
    44   22   23 1    
    45   22   24 1    
    46   22  145 1    
    47   23  146 1    
    48   23  147 1    
    49   23  148 1    
    50   24   25 am   BACKBONE|DICT|INTERRES
    51   24  149 1    
    52   25   26 2    
    53   25   27 1    
    54   27   28 1    
    55   27   29 1    
    56   27  150 1    
    57   28  151 1    
    58   28  152 1    
    59   28  153 1    
    60   29   30 am   BACKBONE|DICT|INTERRES
    61   29  154 1    
    62   30   31 2    
    63   30   32 1    
    64   32   33 1    
    65   32   34 1    
    66   32  155 1    
    67   33  156 1    
    68   33  157 1    
    69   33  158 1    
    70   34   35 am   BACKBONE|DICT|INTERRES
    71   34  159 1    
    72   35   36 2    
    73   35   37 1    
    74   37   38 1    
    75   37   39 1    
    76   37  160 1    
    77   38  161 1    
    78   38  162 1    
    79   38  163 1    
    80   39   40 am   BACKBONE|DICT|INTERRES
    81   39  164 1    
    82   40   41 2    
    83   40   42 1    
    84   42   43 1    
    85   42   44 1    
    86   42  165 1    
    87   43  166 1    
    88   43  167 1    
    89   43  168 1    
    90   44   45 am   BACKBONE|DICT|INTERRES
    91   44  169 1    
    92   45   46 2    
    93   45   47 1    
    94   47   48 1    
    95   47   49 1    
    96   47  170 1    
    97   48  171 1    
    98   48  172 1    
    99   48  173 1    
   100   49   50 am   BACKBONE|DICT|INTERRES
   101   49  174 1    
   102   50   51 2    
   103   50   52 1    
   104   52   53 1    
   105   52   54 1    
   106   52  175 1    
   107   53  176 1    
   108   53  177 1    
   109   53  178 1    
   110   54   55 am   BACKBONE|DICT|INTERRES
   111   54  179 1    
   112   55   56 2    
   113   55   57 1    
   114   57   58 1    
   115   57   59 1    
   116   57  180 1    
   117   58  181 1    
   118   58  182 1    
   119   58  183 1    
   120   59   60 am   BACKBONE|DICT|INTERRES
   121   59  184 1    
   122   60   61 2    
   123   60   62 1    
   124   62   63 1    
   125   62   64 1    
   126   62  185 1    
   127   63  186 1    
   128   63  187 1    
   129   63  188 1    
   130   64   65 am   BACKBONE|DICT|INTERRES
   131   64  189 1    
   132   65   66 2    
   133   67   68 2    
   134   67   69 am   BACKBONE|DICT|INTERRES
   135   69   70 1    
   136   69  190 1    
   137   70   71 1    
   138   70   72 1    
   139   70  191 1    
   140   71  192 1    
   141   71  193 1    
   142   71  194 1    
   143   72   73 2    
   144   72   74 am   BACKBONE|DICT|INTERRES
   145   74   75 1    
   146   74  195 1    
   147   75   76 1    
   148   75   77 1    
   149   75  196 1    
   150   76  197 1    
   151   76  198 1    
   152   76  199 1    
   153   77   78 2    
   154   77   79 am   BACKBONE|DICT|INTERRES
   155   79   80 1    
   156   79  200 1    
   157   80   81 1    
   158   80   82 1    
   159   80  201 1    
   160   81  202 1    
   161   81  203 1    
   162   81  204 1    
   163   82   83 2    
   164   82   84 am   BACKBONE|DICT|INTERRES
   165   84   85 1    
   166   84  205 1    
   167   85   86 1    
   168   85   87 1    
   169   85  206 1    
   170   86  207 1    
   171   86  208 1    
   172   86  209 1    
   173   87   88 2    
   174   87   89 am   BACKBONE|DICT|INTERRES
   175   89   90 1    
   176   89  210 1    
   177   90   91 1    
   178   90   92 1    
   179   90  211 1    
   180   91  212 1    
   181   91  213 1    
   182   91  214 1    
   183   92   93 2    
   184   92   94 am   BACKBONE|DICT|INTERRES
   185   94   95 1    
   186   94  215 1    
   187   95   96 1    
   188   95   97 1    
   189   95  216 1    
   190   96  217 1    
   191   96  218 1    
   192   96  219 1    
   193   97   98 2    
   194   97   99 am   BACKBONE|DICT|INTERRES
   195   99  100 1    
   196   99  220 1    
   197  100  101 1    
   198  100  102 1    
   199  100  221 1    
   200  101  222 1    
   201  101  223 1    
   202  101  224 1    
   203  102  103 2    
   204  102  104 am   BACKBONE|DICT|INTERRES
   205  104  105 1    
   206  104  225 1    
   207  105  106 1    
   208  105  107 1    
   209  105  226 1    
   210  106  227 1    
   211  106  228 1    
   212  106  229 1    
   213  107  108 2    
   214  107  109 am   BACKBONE|DICT|INTERRES
   215  109  110 1    
   216  109  230 1    
   217  110  111 1    
   218  110  112 1    
   219  110  231 1    
   220  111  232 1    
   221  111  233 1    
   222  111  234 1    
   223  112  113 2    
   224  112  114 am   BACKBONE|DICT|INTERRES
   225  114  115 1    
   226  114  235 1    
   227  115  116 1    
   228  115  117 1    
   229  115  236 1    
   230  116  237 1    
   231  116  238 1    
   232  116  239 1    
   233  117  118 2    
   234  117  119 am   BACKBONE|DICT|INTERRES
   235  119  120 1    
   236  119  240 1    
   237  120  121 1    
   238  120  124 1    
   239  120  241 1    
   240  121  122 am   BACKBONE|DICT|INTERRES
   241  121  123 2    
   242  122  242 1    
   243  122  243 1    
   244  124  125 1    
   245  124  244 1    
   246  124  245 1    
   247  125  126 1    
   248  126  246 1    
   249  126  247 1    
@<TRIPOS>SUBSTRUCTURE
     1 UNK         1 GROUP             0       ****    0 ROOT    
