@<TRIPOS>MOLECULE
3R540
247   249    1
SMALL
USER_CHARGES


@<TRIPOS>ATOM
      1 CA         -2.0663  -15.3986  -45.4264 C.3       0 UNK        -0.1800 
      2 C          -1.6587  -14.4525  -46.5463 C.2       0 UNK         0.5000 
      3 O          -1.8384  -13.2399  -46.4270 O.2       0 UNK        -0.5000 
      4 N          -1.1094  -15.0113  -47.6326 N.am      1 UNK        -0.5000 
      5 CA         -0.5704  -14.2919  -48.7940 C.3       1 UNK         0.1400 
      6 C6         -0.0859  -15.2640  -49.8998 C.3       23 UNK        -0.0398 
      7 S7         -1.4775  -16.1489  -50.6823 S.3       23 UNK        -0.2404 
      8 C8         -1.4314  -17.7785  -49.8718 C.3       23 UNK        -0.0205 
      9 C9         -0.4376  -18.7266  -50.5247 C.ar      23 UNK        -0.0193 
     10 C10        -0.7716  -19.3798  -51.7149 C.ar      23 UNK        -0.1150 
     11 C11         0.1243  -20.2681  -52.3173 C.ar      23 UNK        -0.0193 
     12 C12         1.3569  -20.5122  -51.7083 C.ar      23 UNK        -0.1150 
     13 C13         1.7006  -19.8737  -50.5148 C.ar      23 UNK        -0.0193 
     14 C14         0.8026  -18.9749  -49.9301 C.ar      23 UNK        -0.1150 
     15 C15         3.0472  -20.1631  -49.8712 C.3       23 UNK        -0.0205 
     16 S16         3.0198  -21.7214  -48.9294 S.3       23 UNK        -0.2404 
     17 C17         2.1455  -21.1908  -47.4238 C.3       23 UNK        -0.0398 
     18 CA          1.1855  -22.2540  -46.8472 C.3       11 UNK         0.1400 
     19 N           0.9600  -22.0286  -45.4175 N.am      11 UNK        -0.5000 
     20 C           0.3410  -22.8818  -44.5919 C.2       10 UNK         0.5000 
     21 O          -0.0507  -23.9966  -44.9337 O.2       10 UNK        -0.5000 
     22 CA          0.0662  -22.3779  -43.1617 C.3       10 UNK         0.1400 
     23 CB          1.2854  -22.6041  -42.2561 C.3       10 UNK        -0.1800 
     24 N          -0.3086  -20.9618  -43.1371 N.am      10 UNK        -0.5000 
     25 C          -1.4282  -20.4710  -43.6894 C.2       9 UNK         0.5000 
     26 O          -2.3025  -21.1770  -44.1899 O.2       9 UNK        -0.5000 
     27 CA         -1.5576  -18.9385  -43.7627 C.3       9 UNK         0.1400 
     28 CB         -2.0574  -18.3536  -42.4345 C.3       9 UNK        -0.1800 
     29 N          -0.2917  -18.3114  -44.1477 N.am      9 UNK        -0.5000 
     30 C           0.2423  -18.3980  -45.3745 C.2       8 UNK         0.5000 
     31 O          -0.3375  -18.9043  -46.3320 O.2       8 UNK        -0.5000 
     32 CA          1.6738  -17.8759  -45.5714 C.3       8 UNK         0.1400 
     33 CB          1.6761  -16.5338  -46.3037 C.3       8 UNK        -0.1800 
     34 N           2.4086  -17.7715  -44.3132 N.am      8 UNK        -0.5000 
     35 C           2.9853  -18.8228  -43.7158 C.2       7 UNK         0.5000 
     36 O           2.9419  -19.9678  -44.1679 O.2       7 UNK        -0.5000 
     37 CA          3.6815  -18.5574  -42.3707 C.3       7 UNK         0.1400 
     38 CB          5.0140  -17.8225  -42.5820 C.3       7 UNK        -0.1800 
     39 N           2.8475  -17.7944  -41.4408 N.am      7 UNK        -0.5000 
     40 C           1.7004  -18.2376  -40.9082 C.2       6 UNK         0.5000 
     41 O           1.1866  -19.3197  -41.1909 O.2       6 UNK        -0.5000 
     42 CA          0.9735  -17.2760  -39.9626 C.3       6 UNK         0.1400 
     43 CB          1.8664  -16.7770  -38.8112 C.3       6 UNK        -0.1800 
     44 N           0.4895  -16.1634  -40.7649 N.am      6 UNK        -0.5000 
     45 C          -0.5678  -15.3927  -40.5111 C.2       5 UNK         0.5000 
     46 O          -1.2217  -15.4618  -39.4690 O.2       5 UNK        -0.5000 
     47 CA         -0.9735  -14.4014  -41.6286 C.3       5 UNK         0.1400 
     48 CB         -2.0501  -13.4009  -41.1724 C.3       5 UNK        -0.1800 
     49 N           0.1313  -13.6467  -42.2319 N.am      5 UNK        -0.5000 
     50 C           1.1281  -14.1077  -42.9989 C.2       4 UNK         0.5000 
     51 O           1.3146  -15.3048  -43.2318 O.2       4 UNK        -0.5000 
     52 CA          2.0439  -13.0373  -43.6235 C.3       4 UNK         0.1400 
     53 CB          3.2426  -13.6349  -44.3792 C.3       4 UNK        -0.1800 
     54 N           1.2858  -12.1790  -44.5349 N.am      4 UNK        -0.5000 
     55 C           0.5437  -11.1267  -44.1608 C.2       3 UNK         0.5000 
     56 O           0.4376  -10.7731  -42.9845 O.2       3 UNK        -0.5000 
     57 CA         -0.2446  -10.3684  -45.2512 C.3       3 UNK         0.1400 
     58 CB         -0.2433   -8.8421  -45.0247 C.3       3 UNK        -0.1800 
     59 N           0.1444  -10.7021  -46.6259 N.am      3 UNK        -0.5000 
     60 C           1.3080  -10.4510  -47.2471 C.2       2 UNK         0.5000 
     61 O           2.2418   -9.8372  -46.7293 O.2       2 UNK        -0.5000 
     62 CA          1.4452  -10.9865  -48.6931 C.3       2 UNK         0.1400 
     63 CB          2.9050  -11.3231  -49.0648 C.3       2 UNK        -0.1800 
     64 N           0.5553  -12.1204  -48.9905 N.am      2 UNK        -0.5000 
     65 C           0.5534  -13.3154  -48.3812 C.2       1 UNK         0.5000 
     66 O           1.3600  -13.6374  -47.5066 O.2       1 UNK        -0.5000 
     67 C          -0.1445  -22.3451  -47.6335 C.2       11 UNK         0.5000 
     68 O          -0.3086  -23.2579  -48.4414 O.2       11 UNK        -0.5000 
     69 N          -1.0977  -21.4484  -47.3367 N.am      12 UNK        -0.5000 
     70 CA         -2.4559  -21.4591  -47.8860 C.3       12 UNK         0.1400 
     71 CB         -3.1979  -20.1831  -47.4585 C.3       12 UNK        -0.1800 
     72 C          -3.2599  -22.7076  -47.4755 C.2       12 UNK         0.5000 
     73 O          -3.9971  -23.2530  -48.2968 O.2       12 UNK        -0.5000 
     74 N          -3.0824  -23.1558  -46.2240 N.am      13 UNK        -0.5000 
     75 CA         -3.6512  -24.3988  -45.7025 C.3       13 UNK         0.1400 
     76 CB         -3.4472  -24.4757  -44.1823 C.3       13 UNK        -0.1800 
     77 C          -3.0788  -25.6432  -46.4075 C.2       13 UNK         0.5000 
     78 O          -3.8379  -26.5529  -46.7405 O.2       13 UNK        -0.5000 
     79 N          -1.7623  -25.6436  -46.6615 N.am      14 UNK        -0.5000 
     80 CA         -1.0613  -26.6834  -47.4178 C.3       14 UNK         0.1400 
     81 CB          0.4559  -26.4967  -47.2673 C.3       14 UNK        -0.1800 
     82 C          -1.4664  -26.7280  -48.9048 C.2       14 UNK         0.5000 
     83 O          -1.5125  -27.8141  -49.4849 O.2       14 UNK        -0.5000 
     84 N          -1.7945  -25.5666  -49.4890 N.am      15 UNK        -0.5000 
     85 CA         -2.2976  -25.3913  -50.8550 C.3       15 UNK         0.1400 
     86 CB         -2.0740  -23.9310  -51.2869 C.3       15 UNK        -0.1800 
     87 C          -3.7709  -25.8380  -51.0005 C.2       15 UNK         0.5000 
     88 O          -4.6406  -25.0391  -51.3626 O.2       15 UNK        -0.5000 
     89 N          -4.0219  -27.1161  -50.6792 N.am      16 UNK        -0.5000 
     90 CA         -5.2962  -27.8458  -50.7368 C.3       16 UNK         0.1400 
     91 CB         -5.7467  -28.0043  -52.2038 C.3       16 UNK        -0.1800 
     92 C          -6.4150  -27.2536  -49.8512 C.2       16 UNK         0.5000 
     93 O          -7.5883  -27.5590  -50.0708 O.2       16 UNK        -0.5000 
     94 N          -6.0372  -26.3966  -48.8903 N.am      17 UNK        -0.5000 
     95 CA         -6.8960  -25.5439  -48.0622 C.3       17 UNK         0.1400 
     96 CB         -7.6962  -26.3902  -47.0516 C.3       17 UNK        -0.1800 
     97 C          -7.7813  -24.5824  -48.8870 C.2       17 UNK         0.5000 
     98 O          -8.8515  -24.1841  -48.4230 O.2       17 UNK        -0.5000 
     99 N          -7.3221  -24.2375  -50.0965 N.am      18 UNK        -0.5000 
    100 CA        -8.0351  -23.4136  -51.0670 C.3       18 UNK         0.1400 
    101 CB        -8.3723  -24.2670  -52.3010 C.3       18 UNK        -0.1800 
    102 C         -7.1935  -22.1933  -51.4569 C.2       18 UNK         0.5000 
    103 O         -7.7151  -21.0770  -51.4398 O.2       18 UNK        -0.5000 
    104 N         -5.9103  -22.4275  -51.7757 N.am      19 UNK        -0.5000 
    105 CA        -4.9182  -21.4414  -52.2144 C.3       19 UNK         0.1400 
    106 CB        -4.5918  -20.4746  -51.0560 C.3       19 UNK        -0.1800 
    107 C         -5.3044  -20.7119  -53.5235 C.2       19 UNK         0.5000 
    108 O         -6.2006  -21.1527  -54.2479 O.2       19 UNK        -0.5000 
    109 N         -4.5916  -19.6215  -53.8160 N.am      20 UNK        -0.5000 
    110 CA        -4.7494  -18.7275  -54.9585 C.3       20 UNK         0.1400 
    111 CB        -4.3890  -19.4471  -56.2765 C.3       20 UNK        -0.1800 
    112 C         -3.8357  -17.5143  -54.7159 C.2       20 UNK         0.5000 
    113 O         -3.1098  -17.4840  -53.7172 O.2       20 UNK        -0.5000 
    114 N         -3.8454  -16.5484  -55.6423 N.am      21 UNK        -0.5000 
    115 CA        -2.9259  -15.4064  -55.6715 C.3       21 UNK         0.1400 
    116 CB        -3.5741  -14.2687  -56.4812 C.3       21 UNK        -0.1800 
    117 C         -1.5453  -15.8254  -56.2261 C.2       21 UNK         0.5000 
    118 O         -1.1283  -15.3557  -57.2869 O.2       21 UNK        -0.5000 
    119 N         -0.8958  -16.7564  -55.5210 N.am      22 UNK        -0.5000 
    120 CA         0.3767  -17.3949  -55.8841 C.3       22 UNK         0.1400 
    121 C          1.5787  -16.4099  -55.8812 C.2       22 UNK         0.5000 
    122 N          2.5424  -16.5976  -56.7728 N.am      22 UNK        -0.7600 
    123 O          1.6683  -15.5048  -55.0542 O.2       22 UNK        -0.5000 
    124 C124        0.6713  -18.6143  -54.9730 C.3       23 UNK        -0.0398 
    125 S125       -0.6991  -19.8261  -54.9628 S.3       23 UNK        -0.2404 
    126 C126       -0.2241  -20.9694  -53.6243 C.3       23 UNK        -0.0205 
    127 H127       -2.3113  -16.3889  -45.8114 H         1 UNK         0.0600 
    128 H128       -2.9388  -15.0149  -44.8977 H         1 UNK         0.0600 
    129 H129       -1.2487  -15.5010  -44.7142 H         1 UNK         0.0600 
    130 H130       -0.9960  -16.0122  -47.6567 H         1 UNK         0.3000 
    131 H131       -1.3901  -13.6948  -49.1997 H         1 UNK         0.0600 
    132 H132        0.4221  -14.7151  -50.6951 H         1 UNK         0.0800 
    133 H133        0.6458  -15.9743  -49.5134 H         1 UNK         0.0800 
    134 H134       -2.4287  -18.2156  -49.9309 H         1 UNK         0.0800 
    135 H135       -1.2140  -17.6647  -48.8096 H         1 UNK         0.0800 
    136 H136       -1.7218  -19.1799  -52.1865 H         1 UNK         0.1150 
    137 H137        2.0539  -21.2042  -52.1599 H         1 UNK         0.1150 
    138 H138        1.0625  -18.4753  -49.0083 H         1 UNK         0.1150 
    139 H139        3.8107  -20.2354  -50.6472 H         1 UNK         0.0800 
    140 H140        3.3530  -19.3411  -49.2218 H         1 UNK         0.0800 
    141 H141        1.6107  -20.2621  -47.6086 H         1 UNK         0.0800 
    142 H142        2.9211  -20.9527  -46.6947 H         1 UNK         0.0800 
    143 H143        1.6751  -23.2269  -46.9288 H         1 UNK         0.0600 
    144 H144        1.3083  -21.1607  -45.0303 H         1 UNK         0.3000 
    145 H145       -0.7684  -22.9554  -42.7591 H         1 UNK         0.0600 
    146 H146        1.0719  -22.3084  -41.2288 H         1 UNK         0.0600 
    147 H147        1.5699  -23.6569  -42.2402 H         1 UNK         0.0600 
    148 H148        2.1513  -22.0339  -42.5932 H         1 UNK         0.0600 
    149 H149        0.3388  -20.3277  -42.6792 H         1 UNK         0.3000 
    150 H150       -2.3007  -18.7057  -44.5284 H         1 UNK         0.0600 
    151 H151       -1.3561  -18.5297  -41.6199 H         1 UNK         0.0600 
    152 H152       -2.2204  -17.2798  -42.5159 H         1 UNK         0.0600 
    153 H153       -3.0089  -18.8029  -42.1474 H         1 UNK         0.0600 
    154 H154        0.2559  -17.8825  -43.4176 H         1 UNK         0.3000 
    155 H155        2.1992  -18.5812  -46.2144 H         1 UNK         0.0600 
    156 H156        1.2163  -16.6320  -47.2858 H         1 UNK         0.0600 
    157 H157        2.6920  -16.1741  -46.4640 H         1 UNK         0.0600 
    158 H158        1.1239  -15.7692  -45.7597 H         1 UNK         0.0600 
    159 H159        2.4077  -16.8624  -43.8625 H         1 UNK         0.3000 
    160 H160        3.8960  -19.5256  -41.9132 H         1 UNK         0.0600 
    161 H161        4.8656  -16.8260  -43.0002 H         1 UNK         0.0600 
    162 H162        5.6593  -18.3737  -43.2674 H         1 UNK         0.0600 
    163 H163        5.5571  -17.7144  -41.6430 H         1 UNK         0.0600 
    164 H164        3.1904  -16.8841  -41.1716 H         1 UNK         0.3000 
    165 H165        0.1218  -17.8122  -39.5382 H         1 UNK         0.0600 
    166 H166        1.2893  -16.1890  -38.0974 H         1 UNK         0.0600 
    167 H167        2.3020  -17.6138  -38.2639 H         1 UNK         0.0600 
    168 H168        2.6848  -16.1508  -39.1675 H         1 UNK         0.0600 
    169 H169        0.9486  -16.0222  -41.6632 H         1 UNK         0.3000 
    170 H170       -1.4161  -15.0082  -42.4188 H         1 UNK         0.0600 
    171 H171       -2.9353  -13.9157  -40.7966 H         1 UNK         0.0600 
    172 H172       -1.6816  -12.7523  -40.3768 H         1 UNK         0.0600 
    173 H173       -2.3749  -12.7676  -41.9983 H         1 UNK         0.0600 
    174 H174        0.0854  -12.6403  -42.1165 H         1 UNK         0.3000 
    175 H175        2.4435  -12.4363  -42.8040 H         1 UNK         0.0600 
    176 H176        2.9271  -14.1824  -45.2653 H         1 UNK         0.0600 
    177 H177        3.9278  -12.8519  -44.7041 H         1 UNK         0.0600 
    178 H178        3.8085  -14.3205  -43.7473 H         1 UNK         0.0600 
    179 H179        1.2880  -12.4490  -45.5111 H         1 UNK         0.3000 
    180 H180       -1.2763  -10.7083  -45.1510 H         1 UNK         0.0600 
    181 H181        0.7667   -8.4319  -45.0209 H         1 UNK         0.0600 
    182 H182       -0.6992   -8.5884  -44.0670 H         1 UNK         0.0600 
    183 H183       -0.8130   -8.3275  -45.7985 H         1 UNK         0.0600 
    184 H184       -0.5376  -11.2552  -47.1282 H         1 UNK         0.3000 
    185 H185        1.1230  -10.1715  -49.3425 H         1 UNK         0.0600 
    186 H186        3.5388  -10.4378  -49.0036 H         1 UNK         0.0600 
    187 H187        3.3312  -12.0743  -48.3992 H         1 UNK         0.0600 
    188 H188        2.9756  -11.6999  -50.0851 H         1 UNK         0.0600 
    189 H189       -0.1513  -11.9362  -49.6898 H         1 UNK         0.3000 
    190 H190       -0.8723  -20.6754  -46.7177 H         1 UNK         0.3000 
    191 H191       -2.3665  -21.4564  -48.9738 H         1 UNK         0.0600 
    192 H192       -3.3351  -20.1373  -46.3789 H         1 UNK         0.0600 
    193 H193       -4.1880  -20.1335  -47.9121 H         1 UNK         0.0600 
    194 H194       -2.6566  -19.2885  -47.7588 H         1 UNK         0.0600 
    195 H195       -2.5221  -22.6020  -45.5841 H         1 UNK         0.3000 
    196 H196       -4.7257  -24.3719  -45.8853 H         1 UNK         0.0600 
    197 H197       -3.9345  -25.3602  -43.7707 H         1 UNK         0.0600 
    198 H198       -3.8744  -23.6061  -43.6824 H         1 UNK         0.0600 
    199 H199       -2.3933  -24.5309  -43.9140 H         1 UNK         0.0600 
    200 H200       -1.1960  -24.8825  -46.2996 H         1 UNK         0.3000 
    201 H201       -1.3256  -27.6473  -46.9781 H         1 UNK         0.0600 
    202 H202        0.7539  -26.5188  -46.2189 H         1 UNK         0.0600 
    203 H203        0.7918  -25.5502  -47.6899 H         1 UNK         0.0600 
    204 H204        0.9988  -27.2935  -47.7772 H         1 UNK         0.0600 
    205 H205       -1.6655  -24.7163  -48.9512 H         1 UNK         0.3000 
    206 H206       -1.7055  -26.0227  -51.5203 H         1 UNK         0.0600 
    207 H207       -1.0245  -23.6481  -51.2008 H         1 UNK         0.0600 
    208 H208       -2.3636  -23.7850  -52.3278 H         1 UNK         0.0600 
    209 H209       -2.6557  -23.2378  -50.6795 H         1 UNK         0.0600 
    210 H210       -3.2283  -27.6542  -50.3405 H         1 UNK         0.3000 
    211 H211       -5.0937  -28.8417  -50.3406 H         1 UNK         0.0600 
    212 H212       -6.0321  -27.0480  -52.6435 H         1 UNK         0.0600 
    213 H213       -6.6073  -28.6695  -52.2824 H         1 UNK         0.0600 
    214 H214       -4.9531  -28.4319  -52.8164 H         1 UNK         0.0600 
    215 H215       -5.0444  -26.2495  -48.7635 H         1 UNK         0.3000 
    216 H216       -6.2233  -24.9020  -47.4962 H         1 UNK         0.0600 
    217 H217       -8.2255  -25.7555  -46.3401 H         1 UNK         0.0600 
    218 H218       -7.0365  -27.0396  -46.4757 H         1 UNK         0.0600 
    219 H219       -8.4382  -27.0173  -47.5463 H         1 UNK         0.0600 
    220 H220       -6.4119  -24.5836  -50.3804 H         1 UNK         0.3000 
    221 H221       -8.9718  -23.0432  -50.6456 H         1 UNK         0.0600 
    222 H222       -7.4760  -24.6831  -52.7629 H         1 UNK         0.0600 
    223 H223       -9.0250  -25.0987  -52.0349 H         1 UNK         0.0600 
    224 H224       -8.8887  -23.6743  -53.0570 H         1 UNK         0.0600 
    225 H225       -5.5728  -23.3853  -51.7543 H         1 UNK         0.3000 
    226 H226       -4.0156  -22.0084  -52.4408 H         1 UNK         0.0600 
    227 H227       -5.3951  -19.7571  -50.8860 H         1 UNK         0.0600 
    228 H228       -4.4385  -21.0249  -50.1293 H         1 UNK         0.0600 
    229 H229       -3.6810  -19.9108  -51.2474 H         1 UNK         0.0600 
    230 H230       -3.8795  -19.2956  -53.1730 H         1 UNK         0.3000 
    231 H231       -5.7829  -18.3784  -54.9949 H         1 UNK         0.0600 
    232 H232       -5.0483  -20.2931  -56.4677 H         1 UNK         0.0600 
    233 H233       -3.3659  -19.8218  -56.2624 H         1 UNK         0.0600 
    234 H234       -4.4812  -18.7802  -57.1340 H         1 UNK         0.0600 
    235 H235       -4.4469  -16.6519  -56.4467 H         1 UNK         0.3000 
    236 H236       -2.7721  -15.0421  -54.6533 H         1 UNK         0.0600 
    237 H237       -2.9270  -13.3911  -56.5085 H         1 UNK         0.0600 
    238 H238       -3.7698  -14.5664  -57.5121 H         1 UNK         0.0600 
    239 H239       -4.5200  -13.9590  -56.0365 H         1 UNK         0.0600 
    240 H240       -1.3410  -17.1039  -54.6786 H         1 UNK         0.3000 
    241 H241        0.2576  -17.7643  -56.9046 H         1 UNK         0.0600 
    242 H242        3.3358  -15.9751  -56.7738 H         1 UNK         0.3800 
    243 H243        2.4955  -17.3368  -57.4574 H         1 UNK         0.3800 
    244 H244        1.5776  -19.1282  -55.2976 H         1 UNK         0.0800 
    245 H245        0.8575  -18.2724  -53.9537 H         1 UNK         0.0800 
    246 H246        0.6133  -21.5761  -53.9722 H         1 UNK         0.0800 
    247 H247       -1.0487  -21.6597  -53.4431 H         1 UNK         0.0800 
@<TRIPOS>BOND
     1    1    2 1    
     2    1  127 1    
     3    1  128 1    
     4    1  129 1    
     5    2    3 2    
     6    2    4 am   BACKBONE|DICT|INTERRES
     7    4    5 1    
     8    4  130 1    
     9    5    6 1    
    10    5   65 1    
    11    5  131 1    
    12    6    7 1    
    13    6  132 1    
    14    6  133 1    
    15    7    8 1    
    16    8    9 1    
    17    8  134 1    
    18    8  135 1    
    19    9   10 ar   
    20    9   14 ar   
    21   10   11 ar   
    22   10  136 1    
    23   11   12 ar   
    24   11  126 1    
    25   12   13 ar   
    26   12  137 1    
    27   13   14 ar   
    28   13   15 1    
    29   14  138 1    
    30   15   16 1    
    31   15  139 1    
    32   15  140 1    
    33   16   17 1    
    34   17   18 1    
    35   17  141 1    
    36   17  142 1    
    37   18   19 1    
    38   18   67 1    
    39   18  143 1    
    40   19   20 am   BACKBONE|DICT|INTERRES
    41   19  144 1    
    42   20   21 2    
    43   20   22 1    
    44   22   23 1    
    45   22   24 1    
    46   22  145 1    
    47   23  146 1    
    48   23  147 1    
    49   23  148 1    
    50   24   25 am   BACKBONE|DICT|INTERRES
    51   24  149 1    
    52   25   26 2    
    53   25   27 1    
    54   27   28 1    
    55   27   29 1    
    56   27  150 1    
    57   28  151 1    
    58   28  152 1    
    59   28  153 1    
    60   29   30 am   BACKBONE|DICT|INTERRES
    61   29  154 1    
    62   30   31 2    
    63   30   32 1    
    64   32   33 1    
    65   32   34 1    
    66   32  155 1    
    67   33  156 1    
    68   33  157 1    
    69   33  158 1    
    70   34   35 am   BACKBONE|DICT|INTERRES
    71   34  159 1    
    72   35   36 2    
    73   35   37 1    
    74   37   38 1    
    75   37   39 1    
    76   37  160 1    
    77   38  161 1    
    78   38  162 1    
    79   38  163 1    
    80   39   40 am   BACKBONE|DICT|INTERRES
    81   39  164 1    
    82   40   41 2    
    83   40   42 1    
    84   42   43 1    
    85   42   44 1    
    86   42  165 1    
    87   43  166 1    
    88   43  167 1    
    89   43  168 1    
    90   44   45 am   BACKBONE|DICT|INTERRES
    91   44  169 1    
    92   45   46 2    
    93   45   47 1    
    94   47   48 1    
    95   47   49 1    
    96   47  170 1    
    97   48  171 1    
    98   48  172 1    
    99   48  173 1    
   100   49   50 am   BACKBONE|DICT|INTERRES
   101   49  174 1    
   102   50   51 2    
   103   50   52 1    
   104   52   53 1    
   105   52   54 1    
   106   52  175 1    
   107   53  176 1    
   108   53  177 1    
   109   53  178 1    
   110   54   55 am   BACKBONE|DICT|INTERRES
   111   54  179 1    
   112   55   56 2    
   113   55   57 1    
   114   57   58 1    
   115   57   59 1    
   116   57  180 1    
   117   58  181 1    
   118   58  182 1    
   119   58  183 1    
   120   59   60 am   BACKBONE|DICT|INTERRES
   121   59  184 1    
   122   60   61 2    
   123   60   62 1    
   124   62   63 1    
   125   62   64 1    
   126   62  185 1    
   127   63  186 1    
   128   63  187 1    
   129   63  188 1    
   130   64   65 am   BACKBONE|DICT|INTERRES
   131   64  189 1    
   132   65   66 2    
   133   67   68 2    
   134   67   69 am   BACKBONE|DICT|INTERRES
   135   69   70 1    
   136   69  190 1    
   137   70   71 1    
   138   70   72 1    
   139   70  191 1    
   140   71  192 1    
   141   71  193 1    
   142   71  194 1    
   143   72   73 2    
   144   72   74 am   BACKBONE|DICT|INTERRES
   145   74   75 1    
   146   74  195 1    
   147   75   76 1    
   148   75   77 1    
   149   75  196 1    
   150   76  197 1    
   151   76  198 1    
   152   76  199 1    
   153   77   78 2    
   154   77   79 am   BACKBONE|DICT|INTERRES
   155   79   80 1    
   156   79  200 1    
   157   80   81 1    
   158   80   82 1    
   159   80  201 1    
   160   81  202 1    
   161   81  203 1    
   162   81  204 1    
   163   82   83 2    
   164   82   84 am   BACKBONE|DICT|INTERRES
   165   84   85 1    
   166   84  205 1    
   167   85   86 1    
   168   85   87 1    
   169   85  206 1    
   170   86  207 1    
   171   86  208 1    
   172   86  209 1    
   173   87   88 2    
   174   87   89 am   BACKBONE|DICT|INTERRES
   175   89   90 1    
   176   89  210 1    
   177   90   91 1    
   178   90   92 1    
   179   90  211 1    
   180   91  212 1    
   181   91  213 1    
   182   91  214 1    
   183   92   93 2    
   184   92   94 am   BACKBONE|DICT|INTERRES
   185   94   95 1    
   186   94  215 1    
   187   95   96 1    
   188   95   97 1    
   189   95  216 1    
   190   96  217 1    
   191   96  218 1    
   192   96  219 1    
   193   97   98 2    
   194   97   99 am   BACKBONE|DICT|INTERRES
   195   99  100 1    
   196   99  220 1    
   197  100  101 1    
   198  100  102 1    
   199  100  221 1    
   200  101  222 1    
   201  101  223 1    
   202  101  224 1    
   203  102  103 2    
   204  102  104 am   BACKBONE|DICT|INTERRES
   205  104  105 1    
   206  104  225 1    
   207  105  106 1    
   208  105  107 1    
   209  105  226 1    
   210  106  227 1    
   211  106  228 1    
   212  106  229 1    
   213  107  108 2    
   214  107  109 am   BACKBONE|DICT|INTERRES
   215  109  110 1    
   216  109  230 1    
   217  110  111 1    
   218  110  112 1    
   219  110  231 1    
   220  111  232 1    
   221  111  233 1    
   222  111  234 1    
   223  112  113 2    
   224  112  114 am   BACKBONE|DICT|INTERRES
   225  114  115 1    
   226  114  235 1    
   227  115  116 1    
   228  115  117 1    
   229  115  236 1    
   230  116  237 1    
   231  116  238 1    
   232  116  239 1    
   233  117  118 2    
   234  117  119 am   BACKBONE|DICT|INTERRES
   235  119  120 1    
   236  119  240 1    
   237  120  121 1    
   238  120  124 1    
   239  120  241 1    
   240  121  122 am   BACKBONE|DICT|INTERRES
   241  121  123 2    
   242  122  242 1    
   243  122  243 1    
   244  124  125 1    
   245  124  244 1    
   246  124  245 1    
   247  125  126 1    
   248  126  246 1    
   249  126  247 1    
@<TRIPOS>SUBSTRUCTURE
     1 UNK         1 GROUP             0       ****    0 ROOT    
