@<TRIPOS>MOLECULE
3R540
247   249    1
SMALL
USER_CHARGES


@<TRIPOS>ATOM
      1 CA         -3.9933  -12.3672  -52.1852 C.3       0 UNK        -0.1800 
      2 C          -2.8974  -12.3813  -51.1286 C.2       0 UNK         0.5000 
      3 O          -2.5895  -11.3371  -50.5526 O.2       0 UNK        -0.5000 
      4 N          -2.3055  -13.5539  -50.8772 N.am      1 UNK        -0.5000 
      5 CA         -1.2930  -13.7738  -49.8388 C.3       1 UNK         0.1400 
      6 C6         -0.4819  -15.0687  -50.0853 C.3       23 UNK        -0.0398 
      7 S7          0.5602  -14.9061  -51.5748 S.3       23 UNK        -0.2404 
      8 C8          2.1564  -15.5932  -51.0209 C.3       23 UNK        -0.0205 
      9 C9          2.1538  -17.1162  -50.9644 C.ar      23 UNK        -0.0193 
     10 C10         1.8226  -17.8600  -52.1004 C.ar      23 UNK        -0.1150 
     11 C11         1.8084  -19.2572  -52.0682 C.ar      23 UNK        -0.0193 
     12 C12         2.1765  -19.9108  -50.8881 C.ar      23 UNK        -0.1150 
     13 C13         2.5507  -19.1833  -49.7546 C.ar      23 UNK        -0.0193 
     14 C14         2.5180  -17.7855  -49.7928 C.ar      23 UNK        -0.1150 
     15 C15         3.0201  -19.9037  -48.4993 C.3       23 UNK        -0.0205 
     16 S16         1.6564  -20.7538  -47.6523 S.3       23 UNK        -0.2404 
     17 C17         1.8391  -22.4739  -48.2268 C.3       23 UNK        -0.0398 
     18 CA          1.1748  -23.5263  -47.3007 C.3       11 UNK         0.1400 
     19 N           1.6243  -23.3837  -45.9135 N.am      11 UNK        -0.5000 
     20 C           1.8995  -24.3931  -45.0807 C.2       10 UNK         0.5000 
     21 O           1.8800  -25.5785  -45.4188 O.2       10 UNK        -0.5000 
     22 CA          2.2412  -24.0081  -43.6253 C.3       10 UNK         0.1400 
     23 CB          2.9305  -25.1404  -42.8356 C.3       10 UNK        -0.1800 
     24 N           2.9965  -22.7568  -43.5228 N.am      10 UNK        -0.5000 
     25 C           4.2375  -22.4906  -43.9540 C.2       9 UNK         0.5000 
     26 O           4.9712  -23.3149  -44.5005 O.2       9 UNK        -0.5000 
     27 CA          4.7508  -21.0502  -43.7361 C.3       9 UNK         0.1400 
     28 CB          4.6354  -20.2375  -45.0345 C.3       9 UNK        -0.1800 
     29 N           4.0468  -20.3370  -42.6656 N.am      9 UNK        -0.5000 
     30 C           4.1852  -20.5904  -41.3560 C.2       8 UNK         0.5000 
     31 O           4.9943  -21.3981  -40.8982 O.2       8 UNK        -0.5000 
     32 CA          3.2326  -19.8454  -40.3997 C.3       8 UNK         0.1400 
     33 CB          3.7891  -18.4640  -40.0225 C.3       8 UNK        -0.1800 
     34 N           1.8858  -19.7012  -40.9570 N.am      8 UNK        -0.5000 
     35 C           1.0323  -20.7204  -41.1344 C.2       7 UNK         0.5000 
     36 O           1.2648  -21.8761  -40.7803 O.2       7 UNK        -0.5000 
     37 CA         -0.2839  -20.4120  -41.8691 C.3       7 UNK         0.1400 
     38 CB         -1.3557  -19.9241  -40.8835 C.3       7 UNK        -0.1800 
     39 N          -0.1146  -19.4349  -42.9462 N.am      7 UNK        -0.5000 
     40 C           0.5983  -19.6514  -44.0603 C.2       6 UNK         0.5000 
     41 O           1.1278  -20.7304  -44.3204 O.2       6 UNK        -0.5000 
     42 CA          0.8010  -18.4601  -45.0168 C.3       6 UNK         0.1400 
     43 CB         -0.3536  -18.3384  -46.0110 C.3       6 UNK        -0.1800 
     44 N           0.9629  -17.1868  -44.3269 N.am      6 UNK        -0.5000 
     45 C           1.9949  -16.8825  -43.5321 C.2       5 UNK         0.5000 
     46 O           2.9399  -17.6412  -43.3168 O.2       5 UNK        -0.5000 
     47 CA          1.9239  -15.5202  -42.8246 C.3       5 UNK         0.1400 
     48 CB          2.3752  -14.3924  -43.7646 C.3       5 UNK        -0.1800 
     49 N           0.5720  -15.2417  -42.3377 N.am      5 UNK        -0.5000 
     50 C          -0.0057  -15.8879  -41.3152 C.2       4 UNK         0.5000 
     51 O           0.5603  -16.7531  -40.6460 O.2       4 UNK        -0.5000 
     52 CA         -1.4733  -15.5293  -41.0172 C.3       4 UNK         0.1400 
     53 CB         -1.5596  -14.2434  -40.1816 C.3       4 UNK        -0.1800 
     54 N          -2.2780  -15.3753  -42.2319 N.am      4 UNK        -0.5000 
     55 C          -2.5940  -16.3818  -43.0591 C.2       3 UNK         0.5000 
     56 O          -2.2380  -17.5442  -42.8840 O.2       3 UNK        -0.5000 
     57 CA         -3.4162  -16.0316  -44.3115 C.3       3 UNK         0.1400 
     58 CB         -4.9187  -16.0649  -43.9981 C.3       3 UNK        -0.1800 
     59 N          -3.0721  -14.7393  -44.9052 N.am      3 UNK        -0.5000 
     60 C          -1.8673  -14.4159  -45.3914 C.2       2 UNK         0.5000 
     61 O          -0.8683  -15.1332  -45.3025 O.2       2 UNK        -0.5000 
     62 CA         -1.7585  -13.0478  -46.0837 C.3       2 UNK         0.1400 
     63 CB         -0.8095  -12.1206  -45.3082 C.3       2 UNK        -0.1800 
     64 N          -1.2906  -13.1748  -47.4636 N.am      2 UNK        -0.5000 
     65 C          -1.9614  -13.7862  -48.4499 C.2       1 UNK         0.5000 
     66 O          -3.0579  -14.3325  -48.3029 O.2       1 UNK        -0.5000 
     67 C          -0.3675  -23.4745  -47.3645 C.2       11 UNK         0.5000 
     68 O          -1.0146  -22.9885  -46.4322 O.2       11 UNK        -0.5000 
     69 N          -0.9411  -23.9460  -48.4827 N.am      12 UNK        -0.5000 
     70 CA         -2.3904  -23.9759  -48.7327 C.3       12 UNK         0.1400 
     71 CB         -2.6811  -24.7696  -50.0137 C.3       12 UNK        -0.1800 
     72 C          -3.0347  -22.5793  -48.8199 C.2       12 UNK         0.5000 
     73 O          -4.2431  -22.4474  -48.6107 O.2       12 UNK        -0.5000 
     74 N          -2.2124  -21.5481  -49.0636 N.am      13 UNK        -0.5000 
     75 CA         -2.5875  -20.1356  -49.0464 C.3       13 UNK         0.1400 
     76 CB         -1.3997  -19.2860  -49.5203 C.3       13 UNK        -0.1800 
     77 C          -3.1337  -19.6389  -47.6911 C.2       13 UNK         0.5000 
     78 O          -3.7783  -18.5930  -47.6608 O.2       13 UNK        -0.5000 
     79 N          -2.9335  -20.4129  -46.6125 N.am      14 UNK        -0.5000 
     80 CA         -3.5565  -20.2106  -45.3028 C.3       14 UNK         0.1400 
     81 CB         -3.0219  -21.2736  -44.3338 C.3       14 UNK        -0.1800 
     82 C          -5.0975  -20.2592  -45.3508 C.2       14 UNK         0.5000 
     83 O          -5.7465  -19.5915  -44.5458 O.2       14 UNK        -0.5000 
     84 N          -5.6456  -21.0286  -46.3018 N.am      15 UNK        -0.5000 
     85 CA         -7.0738  -21.1036  -46.5965 C.3       15 UNK         0.1400 
     86 CB         -7.5157  -22.5751  -46.5594 C.3       15 UNK        -0.1800 
     87 C          -7.3900  -20.4841  -47.9683 C.2       15 UNK         0.5000 
     88 O          -8.3897  -19.7769  -48.0953 O.2       15 UNK        -0.5000 
     89 N          -6.5513  -20.7692  -48.9750 N.am      16 UNK        -0.5000 
     90 CA         -6.8118  -20.4369  -50.3772 C.3       16 UNK         0.1400 
     91 CB         -6.0863  -21.4644  -51.2620 C.3       16 UNK        -0.1800 
     92 C          -6.4036  -19.0115  -50.7934 C.2       16 UNK         0.5000 
     93 O          -6.6940  -18.6268  -51.9259 O.2       16 UNK        -0.5000 
     94 N          -5.6698  -18.2806  -49.9383 N.am      17 UNK        -0.5000 
     95 CA         -5.0828  -16.9502  -50.1894 C.3       17 UNK         0.1400 
     96 CB         -6.1892  -15.8844  -50.3242 C.3       17 UNK        -0.1800 
     97 C          -4.0917  -16.9100  -51.3780 C.2       17 UNK         0.5000 
     98 O          -3.7984  -15.8318  -51.8936 O.2       17 UNK        -0.5000 
     99 N          -3.6084  -18.0912  -51.7931 N.am      18 UNK        -0.5000 
    100 CA        -2.7873  -18.3803  -52.9737 C.3       18 UNK         0.1400 
    101 CB        -1.4791  -17.5688  -52.9691 C.3       18 UNK        -0.1800 
    102 C         -3.5469  -18.2485  -54.3107 C.2       18 UNK         0.5000 
    103 O         -2.9097  -18.2624  -55.3648 O.2       18 UNK        -0.5000 
    104 N         -4.8852  -18.1517  -54.2674 N.am      19 UNK        -0.5000 
    105 CA        -5.7360  -18.0649  -55.4560 C.3       19 UNK         0.1400 
    106 CB        -7.1268  -17.5504  -55.0550 C.3       19 UNK        -0.1800 
    107 C         -5.8460  -19.4095  -56.1984 C.2       19 UNK         0.5000 
    108 O         -5.9524  -19.4155  -57.4254 O.2       19 UNK        -0.5000 
    109 N         -5.8102  -20.5171  -55.4439 N.am      20 UNK        -0.5000 
    110 CA        -5.8001  -21.8778  -55.9754 C.3       20 UNK         0.1400 
    111 CB        -6.4470  -22.8401  -54.9626 C.3       20 UNK        -0.1800 
    112 C         -4.3661  -22.3001  -56.3363 C.2       20 UNK         0.5000 
    113 O         -4.0530  -22.4465  -57.5183 O.2       20 UNK        -0.5000 
    114 N         -3.5238  -22.4766  -55.3111 N.am      21 UNK        -0.5000 
    115 CA        -2.1379  -22.9287  -55.3916 C.3       21 UNK         0.1400 
    116 CB        -2.0793  -24.3997  -55.8590 C.3       21 UNK        -0.1800 
    117 C         -1.4897  -22.7776  -54.0055 C.2       21 UNK         0.5000 
    118 O         -2.1786  -22.4470  -53.0354 O.2       21 UNK        -0.5000 
    119 N         -0.1797  -23.0417  -53.9374 N.am      22 UNK        -0.5000 
    120 CA         0.6006  -23.1048  -52.6889 C.3       22 UNK         0.1400 
    121 C          0.4182  -24.4340  -51.8985 C.2       22 UNK         0.5000 
    122 N         -0.1425  -25.4873  -52.4793 N.am      22 UNK        -0.7600 
    123 O          0.7702  -24.5037  -50.7247 O.2       22 UNK        -0.5000 
    124 C124        2.1095  -22.8367  -52.9395 C.3       23 UNK        -0.0398 
    125 S125        2.5401  -21.3073  -53.8563 S.3       23 UNK        -0.2404 
    126 C126        1.3552  -20.0310  -53.3026 C.3       23 UNK        -0.0205 
    127 H127       -4.0168  -13.2954  -52.7562 H         1 UNK         0.0600 
    128 H128       -3.8327  -11.5467  -52.8845 H         1 UNK         0.0600 
    129 H129       -4.9665  -12.2313  -51.7138 H         1 UNK         0.0600 
    130 H130       -2.6584  -14.3882  -51.3390 H         1 UNK         0.3000 
    131 H131       -0.5971  -12.9319  -49.8648 H         1 UNK         0.0600 
    132 H132        0.1561  -15.2949  -49.2288 H         1 UNK         0.0800 
    133 H133       -1.1456  -15.9255  -50.2082 H         1 UNK         0.0800 
    134 H134        2.4261  -15.1606  -50.0563 H         1 UNK         0.0800 
    135 H135        2.9299  -15.2783  -51.7223 H         1 UNK         0.0800 
    136 H136        1.5485  -17.3404  -53.0077 H         1 UNK         0.1150 
    137 H137        2.1794  -20.9869  -50.8458 H         1 UNK         0.1150 
    138 H138        2.7969  -17.2184  -48.9159 H         1 UNK         0.1150 
    139 H139        3.8158  -20.6052  -48.7522 H         1 UNK         0.0800 
    140 H140        3.4611  -19.1916  -47.8003 H         1 UNK         0.0800 
    141 H141        2.9027  -22.7028  -48.3012 H         1 UNK         0.0800 
    142 H142        1.4510  -22.5401  -49.2419 H         1 UNK         0.0800 
    143 H143        1.4692  -24.5096  -47.6738 H         1 UNK         0.0600 
    144 H144        1.5837  -22.4419  -45.5370 H         1 UNK         0.3000 
    145 H145        1.2839  -23.8120  -43.1402 H         1 UNK         0.0600 
    146 H146        3.1445  -24.8313  -41.8123 H         1 UNK         0.0600 
    147 H147        2.2917  -26.0225  -42.7800 H         1 UNK         0.0600 
    148 H148        3.8690  -25.4463  -43.2982 H         1 UNK         0.0600 
    149 H149        2.4627  -21.9691  -43.1772 H         1 UNK         0.3000 
    150 H150        5.8072  -21.1143  -43.4676 H         1 UNK         0.0600 
    151 H151        5.1827  -20.7160  -45.8476 H         1 UNK         0.0600 
    152 H152        5.0427  -19.2339  -44.9116 H         1 UNK         0.0600 
    153 H153        3.5981  -20.1405  -45.3521 H         1 UNK         0.0600 
    154 H154        3.4112  -19.5989  -42.9500 H         1 UNK         0.3000 
    155 H155        3.1559  -20.4352  -39.4838 H         1 UNK         0.0600 
    156 H156        4.7657  -18.5561  -39.5458 H         1 UNK         0.0600 
    157 H157        3.1305  -17.9523  -39.3204 H         1 UNK         0.0600 
    158 H158        3.9111  -17.8213  -40.8938 H         1 UNK         0.0600 
    159 H159        1.6086  -18.7745  -41.2548 H         1 UNK         0.3000 
    160 H160       -0.6339  -21.3461  -42.3123 H         1 UNK         0.0600 
    161 H161       -1.0895  -18.9638  -40.4414 H         1 UNK         0.0600 
    162 H162       -1.4914  -20.6359  -40.0684 H         1 UNK         0.0600 
    163 H163       -2.3210  -19.8095  -41.3763 H         1 UNK         0.0600 
    164 H164       -0.6085  -18.5536  -42.8402 H         1 UNK         0.3000 
    165 H165        1.7153  -18.6449  -45.5824 H         1 UNK         0.0600 
    166 H166       -1.2814  -18.0559  -45.5176 H         1 UNK         0.0600 
    167 H167       -0.1407  -17.5962  -46.7807 H         1 UNK         0.0600 
    168 H168       -0.5186  -19.2900  -46.5093 H         1 UNK         0.0600 
    169 H169        0.2463  -16.4855  -44.4933 H         1 UNK         0.3000 
    170 H170        2.6025  -15.5470  -41.9693 H         1 UNK         0.0600 
    171 H171        3.3990  -14.5562  -44.1032 H         1 UNK         0.0600 
    172 H172        1.7441  -14.3289  -44.6516 H         1 UNK         0.0600 
    173 H173        2.3491  -13.4250  -43.2629 H         1 UNK         0.0600 
    174 H174        0.0233  -14.5815  -42.8679 H         1 UNK         0.3000 
    175 H175       -1.8999  -16.3453  -40.4298 H         1 UNK         0.0600 
    176 H176       -0.9801  -14.3364  -39.2621 H         1 UNK         0.0600 
    177 H177       -1.1753  -13.3801  -40.7262 H         1 UNK         0.0600 
    178 H178       -2.5892  -14.0285  -39.8947 H         1 UNK         0.0600 
    179 H179       -2.6089  -14.4474  -42.4510 H         1 UNK         0.3000 
    180 H180       -3.2155  -16.7965  -45.0635 H         1 UNK         0.0600 
    181 H181       -5.2036  -17.0203  -43.5553 H         1 UNK         0.0600 
    182 H182       -5.2030  -15.2800  -43.2962 H         1 UNK         0.0600 
    183 H183       -5.5128  -15.9405  -44.9037 H         1 UNK         0.0600 
    184 H184       -3.8349  -14.0892  -45.0274 H         1 UNK         0.3000 
    185 H185       -2.7452  -12.5804  -46.1071 H         1 UNK         0.0600 
    186 H186       -1.1311  -12.0089  -44.2719 H         1 UNK         0.0600 
    187 H187        0.2109  -12.5049  -45.2957 H         1 UNK         0.0600 
    188 H188       -0.7857  -11.1236  -45.7486 H         1 UNK         0.0600 
    189 H189       -0.3870  -12.7709  -47.6618 H         1 UNK         0.3000 
    190 H190       -0.3468  -24.2981  -49.2307 H         1 UNK         0.3000 
    191 H191       -2.8585  -24.4972  -47.8954 H         1 UNK         0.0600 
    192 H192       -2.3157  -24.2501  -50.8993 H         1 UNK         0.0600 
    193 H193       -3.7543  -24.9138  -50.1454 H         1 UNK         0.0600 
    194 H194       -2.2210  -25.7573  -49.9850 H         1 UNK         0.0600 
    195 H195       -1.2346  -21.7516  -49.2046 H         1 UNK         0.3000 
    196 H196       -3.3945  -20.0192  -49.7690 H         1 UNK         0.0600 
    197 H197       -1.6651  -18.2295  -49.5618 H         1 UNK         0.0600 
    198 H198       -1.0754  -19.5815  -50.5181 H         1 UNK         0.0600 
    199 H199       -0.5430  -19.3759  -48.8565 H         1 UNK         0.0600 
    200 H200       -2.3691  -21.2490  -46.7114 H         1 UNK         0.3000 
    201 H201       -3.2630  -19.2270  -44.9349 H         1 UNK         0.0600 
    202 H202       -3.3770  -21.0922  -43.3189 H         1 UNK         0.0600 
    203 H203       -3.3382  -22.2768  -44.6226 H         1 UNK         0.0600 
    204 H204       -1.9333  -21.2685  -44.3082 H         1 UNK         0.0600 
    205 H205       -5.0296  -21.5407  -46.9226 H         1 UNK         0.3000 
    206 H206       -7.6530  -20.5588  -45.8480 H         1 UNK         0.0600 
    207 H207       -7.3540  -23.0078  -45.5720 H         1 UNK         0.0600 
    208 H208       -8.5783  -22.6706  -46.7863 H         1 UNK         0.0600 
    209 H209       -6.9681  -23.1808  -47.2830 H         1 UNK         0.0600 
    210 H210       -5.7610  -21.3852  -48.8033 H         1 UNK         0.3000 
    211 H211       -7.8829  -20.5306  -50.5693 H         1 UNK         0.0600 
    212 H212       -6.3143  -21.2974  -52.3143 H         1 UNK         0.0600 
    213 H213       -6.3971  -22.4816  -51.0226 H         1 UNK         0.0600 
    214 H214       -5.0031  -21.4110  -51.1473 H         1 UNK         0.0600 
    215 H215       -5.4594  -18.6698  -49.0270 H         1 UNK         0.3000 
    216 H216       -4.4962  -16.6962  -49.3060 H         1 UNK         0.0600 
    217 H217       -5.7630  -14.8806  -50.3504 H         1 UNK         0.0600 
    218 H218       -6.8756  -15.9208  -49.4784 H         1 UNK         0.0600 
    219 H219       -6.7714  -16.0161  -51.2367 H         1 UNK         0.0600 
    220 H220       -3.9444  -18.9039  -51.3015 H         1 UNK         0.3000 
    221 H221       -2.5139  -19.4335  -52.8912 H         1 UNK         0.0600 
    222 H222       -1.6514  -16.5117  -53.1707 H         1 UNK         0.0600 
    223 H223       -0.9699  -17.6487  -52.0104 H         1 UNK         0.0600 
    224 H224       -0.7939  -17.9315  -53.7347 H         1 UNK         0.0600 
    225 H225       -5.3616  -18.1570  -53.3713 H         1 UNK         0.3000 
    226 H226       -5.2944  -17.3389  -56.1421 H         1 UNK         0.0600 
    227 H227       -7.7520  -17.3950  -55.9350 H         1 UNK         0.0600 
    228 H228       -7.6470  -18.2552  -54.4057 H         1 UNK         0.0600 
    229 H229       -7.0597  -16.5973  -54.5300 H         1 UNK         0.0600 
    230 H230       -5.7169  -20.4093  -54.4458 H         1 UNK         0.3000 
    231 H231       -6.4001  -21.9135  -56.8875 H         1 UNK         0.0600 
    232 H232       -7.4750  -22.5485  -54.7465 H         1 UNK         0.0600 
    233 H233       -5.9059  -22.8770  -54.0174 H         1 UNK         0.0600 
    234 H234       -6.4757  -23.8556  -55.3596 H         1 UNK         0.0600 
    235 H235       -3.8306  -22.3056  -54.3617 H         1 UNK         0.3000 
    236 H236       -1.5983  -22.2915  -56.0948 H         1 UNK         0.0600 
    237 H237       -2.5098  -24.5258  -56.8521 H         1 UNK         0.0600 
    238 H238       -1.0522  -24.7605  -55.9182 H         1 UNK         0.0600 
    239 H239       -2.6208  -25.0567  -55.1772 H         1 UNK         0.0600 
    240 H240        0.3195  -23.2852  -54.7806 H         1 UNK         0.3000 
    241 H241        0.2308  -22.3323  -52.0134 H         1 UNK         0.0600 
    242 H242       -0.4430  -25.4514  -53.4390 H         1 UNK         0.3800 
    243 H243       -0.2527  -26.3393  -51.9531 H         1 UNK         0.3800 
    244 H244        2.6567  -22.8270  -51.9961 H         1 UNK         0.0800 
    245 H245        2.5356  -23.6672  -53.5053 H         1 UNK         0.0800 
    246 H246        0.3599  -20.4359  -53.1336 H         1 UNK         0.0800 
    247 H247        1.2382  -19.3406  -54.1390 H         1 UNK         0.0800 
@<TRIPOS>BOND
     1    1    2 1    
     2    1  127 1    
     3    1  128 1    
     4    1  129 1    
     5    2    3 2    
     6    2    4 am   BACKBONE|DICT|INTERRES
     7    4    5 1    
     8    4  130 1    
     9    5    6 1    
    10    5   65 1    
    11    5  131 1    
    12    6    7 1    
    13    6  132 1    
    14    6  133 1    
    15    7    8 1    
    16    8    9 1    
    17    8  134 1    
    18    8  135 1    
    19    9   10 ar   
    20    9   14 ar   
    21   10   11 ar   
    22   10  136 1    
    23   11   12 ar   
    24   11  126 1    
    25   12   13 ar   
    26   12  137 1    
    27   13   14 ar   
    28   13   15 1    
    29   14  138 1    
    30   15   16 1    
    31   15  139 1    
    32   15  140 1    
    33   16   17 1    
    34   17   18 1    
    35   17  141 1    
    36   17  142 1    
    37   18   19 1    
    38   18   67 1    
    39   18  143 1    
    40   19   20 am   BACKBONE|DICT|INTERRES
    41   19  144 1    
    42   20   21 2    
    43   20   22 1    
    44   22   23 1    
    45   22   24 1    
    46   22  145 1    
    47   23  146 1    
    48   23  147 1    
    49   23  148 1    
    50   24   25 am   BACKBONE|DICT|INTERRES
    51   24  149 1    
    52   25   26 2    
    53   25   27 1    
    54   27   28 1    
    55   27   29 1    
    56   27  150 1    
    57   28  151 1    
    58   28  152 1    
    59   28  153 1    
    60   29   30 am   BACKBONE|DICT|INTERRES
    61   29  154 1    
    62   30   31 2    
    63   30   32 1    
    64   32   33 1    
    65   32   34 1    
    66   32  155 1    
    67   33  156 1    
    68   33  157 1    
    69   33  158 1    
    70   34   35 am   BACKBONE|DICT|INTERRES
    71   34  159 1    
    72   35   36 2    
    73   35   37 1    
    74   37   38 1    
    75   37   39 1    
    76   37  160 1    
    77   38  161 1    
    78   38  162 1    
    79   38  163 1    
    80   39   40 am   BACKBONE|DICT|INTERRES
    81   39  164 1    
    82   40   41 2    
    83   40   42 1    
    84   42   43 1    
    85   42   44 1    
    86   42  165 1    
    87   43  166 1    
    88   43  167 1    
    89   43  168 1    
    90   44   45 am   BACKBONE|DICT|INTERRES
    91   44  169 1    
    92   45   46 2    
    93   45   47 1    
    94   47   48 1    
    95   47   49 1    
    96   47  170 1    
    97   48  171 1    
    98   48  172 1    
    99   48  173 1    
   100   49   50 am   BACKBONE|DICT|INTERRES
   101   49  174 1    
   102   50   51 2    
   103   50   52 1    
   104   52   53 1    
   105   52   54 1    
   106   52  175 1    
   107   53  176 1    
   108   53  177 1    
   109   53  178 1    
   110   54   55 am   BACKBONE|DICT|INTERRES
   111   54  179 1    
   112   55   56 2    
   113   55   57 1    
   114   57   58 1    
   115   57   59 1    
   116   57  180 1    
   117   58  181 1    
   118   58  182 1    
   119   58  183 1    
   120   59   60 am   BACKBONE|DICT|INTERRES
   121   59  184 1    
   122   60   61 2    
   123   60   62 1    
   124   62   63 1    
   125   62   64 1    
   126   62  185 1    
   127   63  186 1    
   128   63  187 1    
   129   63  188 1    
   130   64   65 am   BACKBONE|DICT|INTERRES
   131   64  189 1    
   132   65   66 2    
   133   67   68 2    
   134   67   69 am   BACKBONE|DICT|INTERRES
   135   69   70 1    
   136   69  190 1    
   137   70   71 1    
   138   70   72 1    
   139   70  191 1    
   140   71  192 1    
   141   71  193 1    
   142   71  194 1    
   143   72   73 2    
   144   72   74 am   BACKBONE|DICT|INTERRES
   145   74   75 1    
   146   74  195 1    
   147   75   76 1    
   148   75   77 1    
   149   75  196 1    
   150   76  197 1    
   151   76  198 1    
   152   76  199 1    
   153   77   78 2    
   154   77   79 am   BACKBONE|DICT|INTERRES
   155   79   80 1    
   156   79  200 1    
   157   80   81 1    
   158   80   82 1    
   159   80  201 1    
   160   81  202 1    
   161   81  203 1    
   162   81  204 1    
   163   82   83 2    
   164   82   84 am   BACKBONE|DICT|INTERRES
   165   84   85 1    
   166   84  205 1    
   167   85   86 1    
   168   85   87 1    
   169   85  206 1    
   170   86  207 1    
   171   86  208 1    
   172   86  209 1    
   173   87   88 2    
   174   87   89 am   BACKBONE|DICT|INTERRES
   175   89   90 1    
   176   89  210 1    
   177   90   91 1    
   178   90   92 1    
   179   90  211 1    
   180   91  212 1    
   181   91  213 1    
   182   91  214 1    
   183   92   93 2    
   184   92   94 am   BACKBONE|DICT|INTERRES
   185   94   95 1    
   186   94  215 1    
   187   95   96 1    
   188   95   97 1    
   189   95  216 1    
   190   96  217 1    
   191   96  218 1    
   192   96  219 1    
   193   97   98 2    
   194   97   99 am   BACKBONE|DICT|INTERRES
   195   99  100 1    
   196   99  220 1    
   197  100  101 1    
   198  100  102 1    
   199  100  221 1    
   200  101  222 1    
   201  101  223 1    
   202  101  224 1    
   203  102  103 2    
   204  102  104 am   BACKBONE|DICT|INTERRES
   205  104  105 1    
   206  104  225 1    
   207  105  106 1    
   208  105  107 1    
   209  105  226 1    
   210  106  227 1    
   211  106  228 1    
   212  106  229 1    
   213  107  108 2    
   214  107  109 am   BACKBONE|DICT|INTERRES
   215  109  110 1    
   216  109  230 1    
   217  110  111 1    
   218  110  112 1    
   219  110  231 1    
   220  111  232 1    
   221  111  233 1    
   222  111  234 1    
   223  112  113 2    
   224  112  114 am   BACKBONE|DICT|INTERRES
   225  114  115 1    
   226  114  235 1    
   227  115  116 1    
   228  115  117 1    
   229  115  236 1    
   230  116  237 1    
   231  116  238 1    
   232  116  239 1    
   233  117  118 2    
   234  117  119 am   BACKBONE|DICT|INTERRES
   235  119  120 1    
   236  119  240 1    
   237  120  121 1    
   238  120  124 1    
   239  120  241 1    
   240  121  122 am   BACKBONE|DICT|INTERRES
   241  121  123 2    
   242  122  242 1    
   243  122  243 1    
   244  124  125 1    
   245  124  244 1    
   246  124  245 1    
   247  125  126 1    
   248  126  246 1    
   249  126  247 1    
@<TRIPOS>SUBSTRUCTURE
     1 UNK         1 GROUP             0       ****    0 ROOT    
