@<TRIPOS>MOLECULE
3R540
247   249    1
SMALL
USER_CHARGES


@<TRIPOS>ATOM
      1 CA          1.3911  -15.2530  -49.5072 C.3       0 UNK        -0.1800 
      2 C           0.6784  -14.8038  -48.2406 C.2       0 UNK         0.5000 
      3 O           1.3297  -14.3256  -47.3110 O.2       0 UNK        -0.5000 
      4 N          -0.6514  -14.9552  -48.2046 N.am      1 UNK        -0.5000 
      5 CA         -1.5334  -14.5311  -47.1163 C.3       1 UNK         0.1400 
      6 C6         -2.9621  -15.1294  -47.2400 C.3       23 UNK        -0.0398 
      7 S7         -3.7663  -14.9584  -48.8784 S.3       23 UNK        -0.2404 
      8 C8         -3.9662  -16.6901  -49.4047 C.3       23 UNK        -0.0205 
      9 C9         -2.7032  -17.2405  -50.0488 C.ar      23 UNK        -0.0193 
     10 C10        -2.5478  -17.1993  -51.4352 C.ar      23 UNK        -0.1150 
     11 C11        -1.4054  -17.7299  -52.0367 C.ar      23 UNK        -0.0193 
     12 C12        -0.4013  -18.2822  -51.2383 C.ar      23 UNK        -0.1150 
     13 C13        -0.5369  -18.3343  -49.8479 C.ar      23 UNK        -0.0193 
     14 C14        -1.6992  -17.8108  -49.2638 C.ar      23 UNK        -0.1150 
     15 C15         0.5957  -18.9758  -49.0420 C.3       23 UNK        -0.0205 
     16 S16         0.4314  -18.9249  -47.2249 S.3       23 UNK        -0.2404 
     17 C17        -0.8965  -20.1487  -46.9433 C.3       23 UNK        -0.0398 
     18 CA         -0.3497  -21.5594  -46.6335 C.3       11 UNK         0.1400 
     19 N           0.5423  -21.5908  -45.4711 N.am      11 UNK        -0.5000 
     20 C           1.3931  -22.5948  -45.2216 C.2       10 UNK         0.5000 
     21 O           1.4828  -23.5994  -45.9277 O.2       10 UNK        -0.5000 
     22 CA          2.2643  -22.4814  -43.9608 C.3       10 UNK         0.1400 
     23 CB          3.4536  -21.5407  -44.2040 C.3       10 UNK        -0.1800 
     24 N           1.5306  -22.0470  -42.7719 N.am      10 UNK        -0.5000 
     25 C           0.5399  -22.7387  -42.1911 C.2       9 UNK         0.5000 
     26 O           0.0501  -23.7612  -42.6697 O.2       9 UNK        -0.5000 
     27 CA          0.0068  -22.1982  -40.8556 C.3       9 UNK         0.1400 
     28 CB          1.0296  -22.4188  -39.7297 C.3       9 UNK        -0.1800 
     29 N          -0.2965  -20.7748  -40.9609 N.am      9 UNK        -0.5000 
     30 C          -1.5141  -20.2741  -41.2092 C.2       8 UNK         0.5000 
     31 O          -2.5351  -20.9583  -41.2816 O.2       8 UNK        -0.5000 
     32 CA         -1.6134  -18.7510  -41.4348 C.3       8 UNK         0.1400 
     33 CB         -2.0026  -18.0367  -40.1321 C.3       8 UNK        -0.1800 
     34 N          -0.3849  -18.1495  -41.9575 N.am      8 UNK        -0.5000 
     35 C           0.1776  -18.4585  -43.1347 C.2       7 UNK         0.5000 
     36 O          -0.2854  -19.2888  -43.9137 O.2       7 UNK        -0.5000 
     37 CA          1.5189  -17.7804  -43.4644 C.3       7 UNK         0.1400 
     38 CB          1.2758  -16.4634  -44.2158 C.3       7 UNK        -0.1800 
     39 N           2.3490  -17.5322  -42.2802 N.am      7 UNK        -0.5000 
     40 C           2.7872  -18.4821  -41.4356 C.2       6 UNK         0.5000 
     41 O           2.5251  -19.6784  -41.5673 O.2       6 UNK        -0.5000 
     42 CA          3.6303  -18.0392  -40.2239 C.3       6 UNK         0.1400 
     43 CB          5.1222  -18.2768  -40.5011 C.3       6 UNK        -0.1800 
     44 N           3.4359  -16.6405  -39.8430 N.am      6 UNK        -0.5000 
     45 C           2.2943  -16.1088  -39.3833 C.2       5 UNK         0.5000 
     46 O           1.2688  -16.7597  -39.1815 O.2       5 UNK        -0.5000 
     47 CA          2.2886  -14.5826  -39.1569 C.3       5 UNK         0.1400 
     48 CB          2.5737  -14.2572  -37.6831 C.3       5 UNK        -0.1800 
     49 N           3.2413  -13.8520  -40.0042 N.am      5 UNK        -0.5000 
     50 C           3.2044  -13.8290  -41.3426 C.2       4 UNK         0.5000 
     51 O           2.3717  -14.4473  -42.0120 O.2       4 UNK        -0.5000 
     52 CA          4.3007  -13.0259  -42.0543 C.3       4 UNK         0.1400 
     53 CB          5.6113  -13.8270  -42.1307 C.3       4 UNK        -0.1800 
     54 N           3.8232  -12.7425  -43.3992 N.am      4 UNK        -0.5000 
     55 C           4.0588  -11.6396  -44.1144 C.2       3 UNK         0.5000 
     56 O           4.8500  -10.7582  -43.7764 O.2       3 UNK        -0.5000 
     57 CA          3.2524  -11.4846  -45.4211 C.3       3 UNK         0.1400 
     58 CB          4.0900  -11.9348  -46.6279 C.3       3 UNK        -0.1800 
     59 N           1.9865  -12.2261  -45.4237 N.am      3 UNK        -0.5000 
     60 C           0.9444  -11.9890  -44.6163 C.2       2 UNK         0.5000 
     61 O           0.8983  -11.0704  -43.7966 O.2       2 UNK        -0.5000 
     62 CA         -0.2617  -12.9126  -44.8158 C.3       2 UNK         0.1400 
     63 CB         -1.1503  -13.0348  -43.5663 C.3       2 UNK        -0.1800 
     64 N          -1.0361  -12.3631  -45.9250 N.am      2 UNK        -0.5000 
     65 C          -1.5474  -12.9831  -46.9970 C.2       1 UNK         0.5000 
     66 O          -2.0330  -12.3241  -47.9161 O.2       1 UNK        -0.5000 
     67 C          -1.5036  -22.5675  -46.4840 C.2       11 UNK         0.5000 
     68 O          -1.9422  -23.1309  -47.4863 O.2       11 UNK        -0.5000 
     69 N          -1.9456  -22.8061  -45.2402 N.am      12 UNK        -0.5000 
     70 CA         -2.9481  -23.8141  -44.8993 C.3       12 UNK         0.1400 
     71 CB         -3.4378  -23.5951  -43.4600 C.3       12 UNK        -0.1800 
     72 C          -2.4115  -25.2426  -45.0950 C.2       12 UNK         0.5000 
     73 O          -3.1130  -26.0768  -45.6665 O.2       12 UNK        -0.5000 
     74 N          -1.1630  -25.4832  -44.6677 N.am      13 UNK        -0.5000 
     75 CA         -0.4396  -26.7417  -44.8633 C.3       13 UNK         0.1400 
     76 CB          0.8637  -26.7148  -44.0503 C.3       13 UNK        -0.1800 
     77 C          -0.1522  -27.0399  -46.3471 C.2       13 UNK         0.5000 
     78 O          -0.2735  -28.1899  -46.7706 O.2       13 UNK        -0.5000 
     79 N           0.1898  -25.9959  -47.1151 N.am      14 UNK        -0.5000 
     80 CA          0.3873  -26.0561  -48.5656 C.3       14 UNK         0.1400 
     81 CB          1.1383  -24.7929  -49.0159 C.3       14 UNK        -0.1800 
     82 C          -0.9256  -26.2008  -49.3634 C.2       14 UNK         0.5000 
     83 O          -0.8737  -26.5811  -50.5336 O.2       14 UNK        -0.5000 
     84 N          -2.0621  -25.8735  -48.7291 N.am      15 UNK        -0.5000 
     85 CA         -3.4130  -25.7790  -49.2932 C.3       15 UNK         0.1400 
     86 CB         -3.9304  -27.1660  -49.7274 C.3       15 UNK        -0.1800 
     87 C          -3.5105  -24.7113  -50.4051 C.2       15 UNK         0.5000 
     88 O          -4.1838  -24.9202  -51.4163 O.2       15 UNK        -0.5000 
     89 N          -2.8132  -23.5883  -50.1979 N.am      16 UNK        -0.5000 
     90 CA         -2.7652  -22.4511  -51.1100 C.3       16 UNK         0.1400 
     91 CB         -1.4455  -21.7035  -50.8832 C.3       16 UNK        -0.1800 
     92 C          -3.9714  -21.5198  -50.8960 C.2       16 UNK         0.5000 
     93 O          -4.5012  -21.4363  -49.7849 O.2       16 UNK        -0.5000 
     94 N          -4.3699  -20.8250  -51.9646 N.am      17 UNK        -0.5000 
     95 CA         -5.5037  -19.9120  -52.0175 C.3       17 UNK         0.1400 
     96 CB         -6.8298  -20.6935  -52.0066 C.3       17 UNK        -0.1800 
     97 C          -5.3757  -19.0859  -53.3006 C.2       17 UNK         0.5000 
     98 O          -5.0824  -19.6547  -54.3582 O.2       17 UNK        -0.5000 
     99 N          -5.5943  -17.7701  -53.1856 N.am      18 UNK        -0.5000 
    100 CA        -5.4610  -16.7932  -54.2665 C.3       18 UNK         0.1400 
    101 CB        -5.7175  -15.3843  -53.7108 C.3       18 UNK        -0.1800 
    102 C         -6.4075  -17.1058  -55.4371 C.2       18 UNK         0.5000 
    103 O         -7.6144  -17.2362  -55.2208 O.2       18 UNK        -0.5000 
    104 N         -5.8296  -17.2689  -56.6350 N.am      19 UNK        -0.5000 
    105 CA        -6.4389  -17.6823  -57.9076 C.3       19 UNK         0.1400 
    106 CB        -7.5131  -16.6803  -58.3715 C.3       19 UNK        -0.1800 
    107 C         -6.9825  -19.1271  -57.9229 C.2       19 UNK         0.5000 
    108 O         -6.7696  -19.8364  -58.9063 O.2       19 UNK        -0.5000 
    109 N         -7.6553  -19.5426  -56.8431 N.am      20 UNK        -0.5000 
    110 CA        -8.2833  -20.8516  -56.6652 C.3       20 UNK         0.1400 
    111 CB        -9.0979  -20.8420  -55.3633 C.3       20 UNK        -0.1800 
    112 C         -7.2892  -22.0271  -56.6770 C.2       20 UNK         0.5000 
    113 O         -7.6186  -23.0832  -57.2192 O.2       20 UNK        -0.5000 
    114 N         -6.0983  -21.8200  -56.1012 N.am      21 UNK        -0.5000 
    115 CA        -4.9940  -22.7801  -56.1152 C.3       21 UNK         0.1400 
    116 CB        -4.7442  -23.3005  -54.6925 C.3       21 UNK        -0.1800 
    117 C         -3.7213  -22.1490  -56.7002 C.2       21 UNK         0.5000 
    118 O         -2.9896  -22.8310  -57.4185 O.2       21 UNK        -0.5000 
    119 N         -3.4830  -20.8635  -56.4058 N.am      22 UNK        -0.5000 
    120 CA        -2.3202  -20.0984  -56.8902 C.3       22 UNK         0.1400 
    121 C         -2.4008  -19.6613  -58.3839 C.2       22 UNK         0.5000 
    122 N         -3.5138  -19.8487  -59.0826 N.am      22 UNK        -0.7600 
    123 O         -1.4273  -19.1436  -58.9242 O.2       22 UNK        -0.5000 
    124 C124       -2.0115  -18.8808  -55.9822 C.3       23 UNK        -0.0398 
    125 S125       -1.7404  -19.3392  -54.2394 S.3       23 UNK        -0.2404 
    126 C126       -1.2680  -17.7255  -53.5488 C.3       23 UNK        -0.0205 
    127 H127        1.9507  -14.4222  -49.9364 H         1 UNK         0.0600 
    128 H128        0.6905  -15.6155  -50.2597 H         1 UNK         0.0600 
    129 H129        2.0921  -16.0547  -49.2769 H         1 UNK         0.0600 
    130 H130       -1.1282  -15.3372  -49.0097 H         1 UNK         0.3000 
    131 H131       -1.1363  -14.9772  -46.2085 H         1 UNK         0.0600 
    132 H132       -2.9241  -16.1860  -46.9756 H         1 UNK         0.0800 
    133 H133       -3.6218  -14.6833  -46.4937 H         1 UNK         0.0800 
    134 H134       -4.2672  -17.3121  -48.5604 H         1 UNK         0.0800 
    135 H135       -4.7913  -16.7380  -50.1164 H         1 UNK         0.0800 
    136 H136       -3.3210  -16.7622  -52.0487 H         1 UNK         0.1150 
    137 H137        0.4819  -18.6941  -51.7065 H         1 UNK         0.1150 
    138 H138       -1.8362  -17.8348  -48.1946 H         1 UNK         0.1150 
    139 H139        0.7137  -20.0139  -49.3547 H         1 UNK         0.0800 
    140 H140        1.5282  -18.4736  -49.3016 H         1 UNK         0.0800 
    141 H141       -1.5482  -20.1830  -47.8167 H         1 UNK         0.0800 
    142 H142       -1.5221  -19.7896  -46.1252 H         1 UNK         0.0800 
    143 H143        0.2315  -21.8742  -47.5027 H         1 UNK         0.0600 
    144 H144        0.4780  -20.7993  -44.8368 H         1 UNK         0.3000 
    145 H145        2.6629  -23.4761  -43.7506 H         1 UNK         0.0600 
    146 H146        4.1177  -21.5125  -43.3398 H         1 UNK         0.0600 
    147 H147        4.0448  -21.8714  -45.0588 H         1 UNK         0.0600 
    148 H148        3.1261  -20.5215  -44.4066 H         1 UNK         0.0600 
    149 H149        1.8762  -21.2055  -42.3160 H         1 UNK         0.3000 
    150 H150       -0.8942  -22.7607  -40.6016 H         1 UNK         0.0600 
    151 H151        1.2819  -23.4757  -39.6340 H         1 UNK         0.0600 
    152 H152        0.6310  -22.0917  -38.7693 H         1 UNK         0.0600 
    153 H153        1.9575  -21.8741  -39.9079 H         1 UNK         0.0600 
    154 H154        0.4955  -20.1448  -40.9648 H         1 UNK         0.3000 
    155 H155       -2.4035  -18.5810  -42.1691 H         1 UNK         0.0600 
    156 H156       -1.2355  -18.1547  -39.3655 H         1 UNK         0.0600 
    157 H157       -2.1516  -16.9692  -40.2958 H         1 UNK         0.0600 
    158 H158       -2.9341  -18.4369  -39.7295 H         1 UNK         0.0600 
    159 H159        0.0871  -17.4881  -41.3559 H         1 UNK         0.3000 
    160 H160        2.0742  -18.4477  -44.1251 H         1 UNK         0.0600 
    161 H161        2.2143  -15.9812  -44.4901 H         1 UNK         0.0600 
    162 H162        0.6992  -15.7630  -43.6114 H         1 UNK         0.0600 
    163 H163        0.7190  -16.6348  -45.1380 H         1 UNK         0.0600 
    164 H164        2.5665  -16.5621  -42.0839 H         1 UNK         0.3000 
    165 H165        3.3340  -18.6620  -39.3772 H         1 UNK         0.0600 
    166 H166        5.7281  -18.0518  -39.6231 H         1 UNK         0.0600 
    167 H167        5.3099  -19.3187  -40.7650 H         1 UNK         0.0600 
    168 H168        5.4814  -17.6594  -41.3257 H         1 UNK         0.0600 
    169 H169        4.2235  -16.0240  -39.9758 H         1 UNK         0.3000 
    170 H170        1.2861  -14.2236  -39.3990 H         1 UNK         0.0600 
    171 H171        1.8662  -14.7657  -37.0265 H         1 UNK         0.0600 
    172 H172        3.5768  -14.5686  -37.3889 H         1 UNK         0.0600 
    173 H173        2.4825  -13.1882  -37.4899 H         1 UNK         0.0600 
    174 H174        3.9597  -13.3293  -39.5235 H         1 UNK         0.3000 
    175 H175        4.4612  -12.0933  -41.5092 H         1 UNK         0.0600 
    176 H176        6.3832  -13.2680  -42.6600 H         1 UNK         0.0600 
    177 H177        5.4723  -14.7768  -42.6493 H         1 UNK         0.0600 
    178 H178        5.9968  -14.0476  -41.1347 H         1 UNK         0.0600 
    179 H179        3.1147  -13.3890  -43.7223 H         1 UNK         0.3000 
    180 H180        3.0202  -10.4243  -45.5392 H         1 UNK         0.0600 
    181 H181        4.3287  -12.9980  -46.5757 H         1 UNK         0.0600 
    182 H182        5.0320  -11.3872  -46.6780 H         1 UNK         0.0600 
    183 H183        3.5602  -11.7566  -47.5640 H         1 UNK         0.0600 
    184 H184        1.9023  -12.9783  -46.1052 H         1 UNK         0.3000 
    185 H185        0.1543  -13.8927  -45.0335 H         1 UNK         0.0600 
    186 H186       -1.5987  -12.0792  -43.2922 H         1 UNK         0.0600 
    187 H187       -1.9578  -13.7491  -43.7269 H         1 UNK         0.0600 
    188 H188       -0.5703  -13.3855  -42.7113 H         1 UNK         0.0600 
    189 H189       -1.0728  -11.3535  -45.9219 H         1 UNK         0.3000 
    190 H190       -1.5057  -22.3217  -44.4712 H         1 UNK         0.3000 
    191 H191       -3.8010  -23.6834  -45.5690 H         1 UNK         0.0600 
    192 H192       -3.8723  -22.6026  -43.3387 H         1 UNK         0.0600 
    193 H193       -4.2076  -24.3212  -43.1961 H         1 UNK         0.0600 
    194 H194       -2.6308  -23.6955  -42.7342 H         1 UNK         0.0600 
    195 H195       -0.6735  -24.7574  -44.1512 H         1 UNK         0.3000 
    196 H196       -1.0645  -27.5496  -44.4772 H         1 UNK         0.0600 
    197 H197        1.4152  -27.6489  -44.1640 H         1 UNK         0.0600 
    198 H198        0.6615  -26.5833  -42.9872 H         1 UNK         0.0600 
    199 H199        1.5201  -25.9039  -44.3675 H         1 UNK         0.0600 
    200 H200        0.3519  -25.0971  -46.6715 H         1 UNK         0.3000 
    201 H201        1.0098  -26.9239  -48.7931 H         1 UNK         0.0600 
    202 H202        2.0924  -24.6936  -48.4980 H         1 UNK         0.0600 
    203 H203        0.5560  -23.8916  -48.8237 H         1 UNK         0.0600 
    204 H204        1.3506  -24.8231  -50.0854 H         1 UNK         0.0600 
    205 H205       -1.9776  -25.5514  -47.7743 H         1 UNK         0.3000 
    206 H206       -4.0532  -25.4290  -48.4821 H         1 UNK         0.0600 
    207 H207       -3.8502  -27.8873  -48.9140 H         1 UNK         0.0600 
    208 H208       -3.3767  -27.5583  -50.5807 H         1 UNK         0.0600 
    209 H209       -4.9811  -27.1171  -50.0152 H         1 UNK         0.0600 
    210 H210       -2.3739  -23.4590  -49.2899 H         1 UNK         0.3000 
    211 H211       -2.7789  -22.8191  -52.1381 H         1 UNK         0.0600 
    212 H212       -1.3907  -21.2864  -49.8787 H         1 UNK         0.0600 
    213 H213       -1.3412  -20.8821  -51.5909 H         1 UNK         0.0600 
    214 H214       -0.5875  -22.3616  -51.0210 H         1 UNK         0.0600 
    215 H215       -3.8542  -20.8892  -52.8329 H         1 UNK         0.3000 
    216 H216       -5.4620  -19.2459  -51.1532 H         1 UNK         0.0600 
    217 H217       -7.6813  -20.0217  -52.1209 H         1 UNK         0.0600 
    218 H218       -6.9677  -21.2320  -51.0691 H         1 UNK         0.0600 
    219 H219       -6.8700  -21.4221  -52.8173 H         1 UNK         0.0600 
    220 H220       -5.8927  -17.4024  -52.2950 H         1 UNK         0.3000 
    221 H221       -4.4293  -16.8352  -54.6207 H         1 UNK         0.0600 
    222 H222       -6.7255  -15.2894  -53.3046 H         1 UNK         0.0600 
    223 H223       -5.0118  -15.1351  -52.9181 H         1 UNK         0.0600 
    224 H224       -5.6065  -14.6311  -54.4920 H         1 UNK         0.0600 
    225 H225       -4.8287  -17.1481  -56.6824 H         1 UNK         0.3000 
    226 H226       -5.6304  -17.6502  -58.6398 H         1 UNK         0.0600 
    227 H227       -7.1127  -15.6676  -58.4200 H         1 UNK         0.0600 
    228 H228       -7.8751  -16.9346  -59.3683 H         1 UNK         0.0600 
    229 H229       -8.3773  -16.6683  -57.7070 H         1 UNK         0.0600 
    230 H230       -7.7805  -18.8666  -56.0941 H         1 UNK         0.3000 
    231 H231       -8.9742  -21.0000  -57.4975 H         1 UNK         0.0600 
    232 H232       -8.4694  -20.6242  -54.5003 H         1 UNK         0.0600 
    233 H233       -9.5750  -21.8075  -55.1902 H         1 UNK         0.0600 
    234 H234       -9.8871  -20.0909  -55.3989 H         1 UNK         0.0600 
    235 H235       -5.9179  -20.9266  -55.6563 H         1 UNK         0.3000 
    236 H236       -5.2390  -23.6366  -56.7465 H         1 UNK         0.0600 
    237 H237       -5.6335  -23.7807  -54.2841 H         1 UNK         0.0600 
    238 H238       -3.9397  -24.0368  -54.6781 H         1 UNK         0.0600 
    239 H239       -4.4622  -22.4944  -54.0202 H         1 UNK         0.0600 
    240 H240       -4.0896  -20.3783  -55.7513 H         1 UNK         0.3000 
    241 H241       -1.4544  -20.7610  -56.8324 H         1 UNK         0.0600 
    242 H242       -4.3201  -20.2920  -58.6713 H         1 UNK         0.3800 
    243 H243       -3.5396  -19.5691  -60.0506 H         1 UNK         0.3800 
    244 H244       -1.1186  -18.3595  -56.3321 H         1 UNK         0.0800 
    245 H245       -2.8287  -18.1608  -56.0273 H         1 UNK         0.0800 
    246 H246       -1.8935  -16.9417  -53.9782 H         1 UNK         0.0800 
    247 H247       -0.2405  -17.4937  -53.8326 H         1 UNK         0.0800 
@<TRIPOS>BOND
     1    1    2 1    
     2    1  127 1    
     3    1  128 1    
     4    1  129 1    
     5    2    3 2    
     6    2    4 am   BACKBONE|DICT|INTERRES
     7    4    5 1    
     8    4  130 1    
     9    5    6 1    
    10    5   65 1    
    11    5  131 1    
    12    6    7 1    
    13    6  132 1    
    14    6  133 1    
    15    7    8 1    
    16    8    9 1    
    17    8  134 1    
    18    8  135 1    
    19    9   10 ar   
    20    9   14 ar   
    21   10   11 ar   
    22   10  136 1    
    23   11   12 ar   
    24   11  126 1    
    25   12   13 ar   
    26   12  137 1    
    27   13   14 ar   
    28   13   15 1    
    29   14  138 1    
    30   15   16 1    
    31   15  139 1    
    32   15  140 1    
    33   16   17 1    
    34   17   18 1    
    35   17  141 1    
    36   17  142 1    
    37   18   19 1    
    38   18   67 1    
    39   18  143 1    
    40   19   20 am   BACKBONE|DICT|INTERRES
    41   19  144 1    
    42   20   21 2    
    43   20   22 1    
    44   22   23 1    
    45   22   24 1    
    46   22  145 1    
    47   23  146 1    
    48   23  147 1    
    49   23  148 1    
    50   24   25 am   BACKBONE|DICT|INTERRES
    51   24  149 1    
    52   25   26 2    
    53   25   27 1    
    54   27   28 1    
    55   27   29 1    
    56   27  150 1    
    57   28  151 1    
    58   28  152 1    
    59   28  153 1    
    60   29   30 am   BACKBONE|DICT|INTERRES
    61   29  154 1    
    62   30   31 2    
    63   30   32 1    
    64   32   33 1    
    65   32   34 1    
    66   32  155 1    
    67   33  156 1    
    68   33  157 1    
    69   33  158 1    
    70   34   35 am   BACKBONE|DICT|INTERRES
    71   34  159 1    
    72   35   36 2    
    73   35   37 1    
    74   37   38 1    
    75   37   39 1    
    76   37  160 1    
    77   38  161 1    
    78   38  162 1    
    79   38  163 1    
    80   39   40 am   BACKBONE|DICT|INTERRES
    81   39  164 1    
    82   40   41 2    
    83   40   42 1    
    84   42   43 1    
    85   42   44 1    
    86   42  165 1    
    87   43  166 1    
    88   43  167 1    
    89   43  168 1    
    90   44   45 am   BACKBONE|DICT|INTERRES
    91   44  169 1    
    92   45   46 2    
    93   45   47 1    
    94   47   48 1    
    95   47   49 1    
    96   47  170 1    
    97   48  171 1    
    98   48  172 1    
    99   48  173 1    
   100   49   50 am   BACKBONE|DICT|INTERRES
   101   49  174 1    
   102   50   51 2    
   103   50   52 1    
   104   52   53 1    
   105   52   54 1    
   106   52  175 1    
   107   53  176 1    
   108   53  177 1    
   109   53  178 1    
   110   54   55 am   BACKBONE|DICT|INTERRES
   111   54  179 1    
   112   55   56 2    
   113   55   57 1    
   114   57   58 1    
   115   57   59 1    
   116   57  180 1    
   117   58  181 1    
   118   58  182 1    
   119   58  183 1    
   120   59   60 am   BACKBONE|DICT|INTERRES
   121   59  184 1    
   122   60   61 2    
   123   60   62 1    
   124   62   63 1    
   125   62   64 1    
   126   62  185 1    
   127   63  186 1    
   128   63  187 1    
   129   63  188 1    
   130   64   65 am   BACKBONE|DICT|INTERRES
   131   64  189 1    
   132   65   66 2    
   133   67   68 2    
   134   67   69 am   BACKBONE|DICT|INTERRES
   135   69   70 1    
   136   69  190 1    
   137   70   71 1    
   138   70   72 1    
   139   70  191 1    
   140   71  192 1    
   141   71  193 1    
   142   71  194 1    
   143   72   73 2    
   144   72   74 am   BACKBONE|DICT|INTERRES
   145   74   75 1    
   146   74  195 1    
   147   75   76 1    
   148   75   77 1    
   149   75  196 1    
   150   76  197 1    
   151   76  198 1    
   152   76  199 1    
   153   77   78 2    
   154   77   79 am   BACKBONE|DICT|INTERRES
   155   79   80 1    
   156   79  200 1    
   157   80   81 1    
   158   80   82 1    
   159   80  201 1    
   160   81  202 1    
   161   81  203 1    
   162   81  204 1    
   163   82   83 2    
   164   82   84 am   BACKBONE|DICT|INTERRES
   165   84   85 1    
   166   84  205 1    
   167   85   86 1    
   168   85   87 1    
   169   85  206 1    
   170   86  207 1    
   171   86  208 1    
   172   86  209 1    
   173   87   88 2    
   174   87   89 am   BACKBONE|DICT|INTERRES
   175   89   90 1    
   176   89  210 1    
   177   90   91 1    
   178   90   92 1    
   179   90  211 1    
   180   91  212 1    
   181   91  213 1    
   182   91  214 1    
   183   92   93 2    
   184   92   94 am   BACKBONE|DICT|INTERRES
   185   94   95 1    
   186   94  215 1    
   187   95   96 1    
   188   95   97 1    
   189   95  216 1    
   190   96  217 1    
   191   96  218 1    
   192   96  219 1    
   193   97   98 2    
   194   97   99 am   BACKBONE|DICT|INTERRES
   195   99  100 1    
   196   99  220 1    
   197  100  101 1    
   198  100  102 1    
   199  100  221 1    
   200  101  222 1    
   201  101  223 1    
   202  101  224 1    
   203  102  103 2    
   204  102  104 am   BACKBONE|DICT|INTERRES
   205  104  105 1    
   206  104  225 1    
   207  105  106 1    
   208  105  107 1    
   209  105  226 1    
   210  106  227 1    
   211  106  228 1    
   212  106  229 1    
   213  107  108 2    
   214  107  109 am   BACKBONE|DICT|INTERRES
   215  109  110 1    
   216  109  230 1    
   217  110  111 1    
   218  110  112 1    
   219  110  231 1    
   220  111  232 1    
   221  111  233 1    
   222  111  234 1    
   223  112  113 2    
   224  112  114 am   BACKBONE|DICT|INTERRES
   225  114  115 1    
   226  114  235 1    
   227  115  116 1    
   228  115  117 1    
   229  115  236 1    
   230  116  237 1    
   231  116  238 1    
   232  116  239 1    
   233  117  118 2    
   234  117  119 am   BACKBONE|DICT|INTERRES
   235  119  120 1    
   236  119  240 1    
   237  120  121 1    
   238  120  124 1    
   239  120  241 1    
   240  121  122 am   BACKBONE|DICT|INTERRES
   241  121  123 2    
   242  122  242 1    
   243  122  243 1    
   244  124  125 1    
   245  124  244 1    
   246  124  245 1    
   247  125  126 1    
   248  126  246 1    
   249  126  247 1    
@<TRIPOS>SUBSTRUCTURE
     1 UNK         1 GROUP             0       ****    0 ROOT    
