@<TRIPOS>MOLECULE
3R540
247   249    1
SMALL
USER_CHARGES


@<TRIPOS>ATOM
      1 CA          3.3455  -14.8365  -49.9454 C.3       0 UNK        -0.1800 
      2 C           2.9498  -13.4184  -49.5358 C.2       0 UNK         0.5000 
      3 O           3.6888  -12.4802  -49.8270 O.2       0 UNK        -0.5000 
      4 N           1.8037  -13.2013  -48.8741 N.am      1 UNK        -0.5000 
      5 CA          0.8354  -14.2082  -48.4183 C.3       1 UNK         0.1400 
      6 C6         -0.4815  -13.5646  -47.9168 C.3       23 UNK        -0.0398 
      7 S7         -1.3339  -12.5623  -49.1798 S.3       23 UNK        -0.2404 
      8 C8         -2.7607  -13.6167  -49.5889 C.3       23 UNK        -0.0205 
      9 C9         -2.3962  -14.6841  -50.6083 C.ar      23 UNK        -0.0193 
     10 C10        -2.4827  -14.3949  -51.9730 C.ar      23 UNK        -0.1150 
     11 C11        -2.1709  -15.3661  -52.9274 C.ar      23 UNK        -0.0193 
     12 C12        -1.7607  -16.6336  -52.5082 C.ar      23 UNK        -0.1150 
     13 C13        -1.6729  -16.9367  -51.1464 C.ar      23 UNK        -0.0193 
     14 C14        -1.9917  -15.9588  -50.1985 C.ar      23 UNK        -0.1150 
     15 C15        -1.2350  -18.3229  -50.7077 C.3       23 UNK        -0.0205 
     16 S16        -2.6731  -19.3917  -50.3843 S.3       23 UNK        -0.2404 
     17 C17        -1.8779  -21.0349  -50.2908 C.3       23 UNK        -0.0398 
     18 CA         -1.6139  -21.5434  -48.8543 C.3       11 UNK         0.1400 
     19 N          -0.8117  -20.6095  -48.0660 N.am      11 UNK        -0.5000 
     20 C          -0.1416  -20.9425  -46.9574 C.2       10 UNK         0.5000 
     21 O          -0.1300  -22.0748  -46.4771 O.2       10 UNK        -0.5000 
     22 CA          0.6068  -19.8021  -46.2520 C.3       10 UNK         0.1400 
     23 CB          1.9300  -19.5140  -46.9733 C.3       10 UNK        -0.1800 
     24 N          -0.1606  -18.5590  -46.1622 N.am      10 UNK        -0.5000 
     25 C          -1.3591  -18.4209  -45.5856 C.2       9 UNK         0.5000 
     26 O          -2.0169  -19.3578  -45.1309 O.2       9 UNK        -0.5000 
     27 CA         -1.8524  -16.9837  -45.3973 C.3       9 UNK         0.1400 
     28 CB         -3.3791  -16.8517  -45.5143 C.3       9 UNK        -0.1800 
     29 N          -1.4272  -16.6156  -44.0573 N.am      9 UNK        -0.5000 
     30 C          -0.7528  -15.5128  -43.7229 C.2       8 UNK         0.5000 
     31 O          -0.5869  -14.5548  -44.4774 O.2       8 UNK        -0.5000 
     32 CA         -0.1311  -15.4919  -42.3119 C.3       8 UNK         0.1400 
     33 CB         -0.9813  -14.6410  -41.3577 C.3       8 UNK        -0.1800 
     34 N           0.0439  -16.8259  -41.7286 N.am      8 UNK        -0.5000 
     35 C           0.9371  -17.7428  -42.1253 C.2       7 UNK         0.5000 
     36 O           1.7272  -17.5782  -43.0574 O.2       7 UNK        -0.5000 
     37 CA          0.9652  -19.0492  -41.3100 C.3       7 UNK         0.1400 
     38 CB          1.9711  -20.0734  -41.8660 C.3       7 UNK        -0.1800 
     39 N           1.2866  -18.7747  -39.9094 N.am      7 UNK        -0.5000 
     40 C           0.4071  -18.3993  -38.9709 C.2       6 UNK         0.5000 
     41 O          -0.7979  -18.2592  -39.1831 O.2       6 UNK        -0.5000 
     42 CA          0.9859  -18.0869  -37.5803 C.3       6 UNK         0.1400 
     43 CB          1.3809  -19.3779  -36.8460 C.3       6 UNK        -0.1800 
     44 N           2.1480  -17.2027  -37.6753 N.am      6 UNK        -0.5000 
     45 C           2.0762  -15.8808  -37.8913 C.2       5 UNK         0.5000 
     46 O           1.0195  -15.2521  -37.9559 O.2       5 UNK        -0.5000 
     47 CA          3.4151  -15.1416  -38.0867 C.3       5 UNK         0.1400 
     48 CB          4.0238  -14.7520  -36.7308 C.3       5 UNK        -0.1800 
     49 N           4.3890  -15.9281  -38.8502 N.am      5 UNK        -0.5000 
     50 C           4.2405  -16.2473  -40.1422 C.2       4 UNK         0.5000 
     51 O           3.2984  -15.8542  -40.8341 O.2       4 UNK        -0.5000 
     52 CA          5.3010  -17.1755  -40.7552 C.3       4 UNK         0.1400 
     53 CB          5.3745  -18.5243  -40.0093 C.3       4 UNK        -0.1800 
     54 N           4.9569  -17.3948  -42.1559 N.am      4 UNK        -0.5000 
     55 C           5.7694  -17.8560  -43.1141 C.2       3 UNK         0.5000 
     56 O           6.9446  -18.1670  -42.9171 O.2       3 UNK        -0.5000 
     57 CA          5.1833  -17.9892  -44.5325 C.3       3 UNK         0.1400 
     58 CB          4.8173  -19.4540  -44.8204 C.3       3 UNK        -0.1800 
     59 N           3.9964  -17.1481  -44.7014 N.am      3 UNK        -0.5000 
     60 C           3.9442  -16.0278  -45.4282 C.2       2 UNK         0.5000 
     61 O           4.8369  -15.6430  -46.1869 O.2       2 UNK        -0.5000 
     62 CA          2.7048  -15.1525  -45.2005 C.3       2 UNK         0.1400 
     63 CB          3.0087  -14.0604  -44.1634 C.3       2 UNK        -0.1800 
     64 N           2.2318  -14.5190  -46.4254 N.am      2 UNK        -0.5000 
     65 C           1.3997  -15.1013  -47.2965 C.2       1 UNK         0.5000 
     66 O           1.0453  -16.2779  -47.2278 O.2       1 UNK        -0.5000 
     67 C          -2.9038  -21.9656  -48.1236 C.2       11 UNK         0.5000 
     68 O          -3.3161  -23.1153  -48.2607 O.2       11 UNK        -0.5000 
     69 N          -3.4971  -21.0660  -47.3262 N.am      12 UNK        -0.5000 
     70 CA         -4.6601  -21.3673  -46.4899 C.3       12 UNK         0.1400 
     71 CB         -5.3194  -20.0660  -46.0141 C.3       12 UNK        -0.1800 
     72 C          -4.2825  -22.2690  -45.3033 C.2       12 UNK         0.5000 
     73 O          -5.0064  -23.2216  -45.0157 O.2       12 UNK        -0.5000 
     74 N          -3.1264  -21.9935  -44.6820 N.am      13 UNK        -0.5000 
     75 CA         -2.5297  -22.8072  -43.6200 C.3       13 UNK         0.1400 
     76 CB         -1.3077  -22.0742  -43.0433 C.3       13 UNK        -0.1800 
     77 C          -2.1543  -24.2261  -44.0942 C.2       13 UNK         0.5000 
     78 O          -2.3446  -25.1878  -43.3492 O.2       13 UNK        -0.5000 
     79 N          -1.6690  -24.3335  -45.3386 N.am      14 UNK        -0.5000 
     80 CA         -1.3632  -25.5942  -46.0190 C.3       14 UNK         0.1400 
     81 CB         -0.3961  -25.3031  -47.1778 C.3       14 UNK        -0.1800 
     82 C          -2.6088  -26.3393  -46.5456 C.2       14 UNK         0.5000 
     83 O          -2.4788  -27.4941  -46.9535 O.2       14 UNK        -0.5000 
     84 N          -3.7735  -25.6712  -46.5551 N.am      15 UNK        -0.5000 
     85 CA         -5.0537  -26.1120  -47.1243 C.3       15 UNK         0.1400 
     86 CB         -5.6209  -27.3179  -46.3469 C.3       15 UNK        -0.1800 
     87 C          -4.9742  -26.3482  -48.6498 C.2       15 UNK         0.5000 
     88 O          -5.5617  -27.2988  -49.1691 O.2       15 UNK        -0.5000 
     89 N          -4.2350  -25.4674  -49.3330 N.am      16 UNK        -0.5000 
     90 CA         -3.9324  -25.5018  -50.7625 C.3       16 UNK         0.1400 
     91 CB         -2.4150  -25.6964  -50.9257 C.3       16 UNK        -0.1800 
     92 C          -4.4014  -24.2219  -51.4825 C.2       16 UNK         0.5000 
     93 O          -4.0771  -24.0403  -52.6557 O.2       16 UNK        -0.5000 
     94 N          -5.1549  -23.3518  -50.7911 N.am      17 UNK        -0.5000 
     95 CA         -5.6311  -22.0502  -51.2794 C.3       17 UNK         0.1400 
     96 CB         -6.3537  -21.3142  -50.1423 C.3       17 UNK        -0.1800 
     97 C          -6.5187  -22.1151  -52.5382 C.2       17 UNK         0.5000 
     98 O          -6.5610  -21.1496  -53.2997 O.2       17 UNK        -0.5000 
     99 N          -7.1680  -23.2638  -52.7691 N.am      18 UNK        -0.5000 
    100 CA        -7.9171  -23.5708  -53.9901 C.3       18 UNK         0.1400 
    101 CB        -8.7179  -24.8626  -53.7644 C.3       18 UNK        -0.1800 
    102 C         -7.0283  -23.7005  -55.2475 C.2       18 UNK         0.5000 
    103 O         -7.5453  -23.5939  -56.3601 O.2       18 UNK        -0.5000 
    104 N         -5.7216  -23.9250  -55.0539 N.am      19 UNK        -0.5000 
    105 CA        -4.7094  -24.0673  -56.0987 C.3       19 UNK         0.1400 
    106 CB        -4.0378  -25.4434  -55.9389 C.3       19 UNK        -0.1800 
    107 C         -3.6775  -22.9206  -56.0547 C.2       19 UNK         0.5000 
    108 O         -2.5983  -23.0605  -56.6340 O.2       19 UNK        -0.5000 
    109 N         -4.0050  -21.8096  -55.3756 N.am      20 UNK        -0.5000 
    110 CA        -3.1772  -20.6032  -55.3047 C.3       20 UNK         0.1400 
    111 CB        -3.7943  -19.6209  -54.2980 C.3       20 UNK        -0.1800 
    112 C         -3.0214  -19.9272  -56.6802 C.2       20 UNK         0.5000 
    113 O         -3.9669  -19.9238  -57.4730 O.2       20 UNK        -0.5000 
    114 N         -1.8430  -19.3373  -56.9235 N.am      21 UNK        -0.5000 
    115 CA        -1.4555  -18.7087  -58.1929 C.3       21 UNK         0.1400 
    116 CB         0.0120  -18.2629  -58.0999 C.3       21 UNK        -0.1800 
    117 C         -2.3483  -17.5272  -58.6224 C.2       21 UNK         0.5000 
    118 O         -2.4923  -17.2797  -59.8203 O.2       21 UNK        -0.5000 
    119 N         -2.9394  -16.8376  -57.6409 N.am      22 UNK        -0.5000 
    120 CA        -3.9401  -15.7783  -57.8315 C.3       22 UNK         0.1400 
    121 C         -5.3975  -16.2924  -58.0403 C.2       22 UNK         0.5000 
    122 N         -5.6712  -17.5918  -58.0009 N.am      22 UNK        -0.7600 
    123 O         -6.3023  -15.4931  -58.2665 O.2       22 UNK        -0.5000 
    124 C124       -3.8420  -14.6982  -56.7225 C.3       23 UNK        -0.0398 
    125 S125       -3.9664  -15.3548  -55.0201 S.3       23 UNK        -0.2404 
    126 C126       -2.2818  -15.0426  -54.4077 C.3       23 UNK        -0.0205 
    127 H127        2.5074  -15.3821  -50.3778 H         1 UNK         0.0600 
    128 H128        3.7243  -15.3919  -49.0873 H         1 UNK         0.0600 
    129 H129        4.1355  -14.8067  -50.6961 H         1 UNK         0.0600 
    130 H130        1.5551  -12.2473  -48.6549 H         1 UNK         0.3000 
    131 H131        0.5881  -14.8536  -49.2626 H         1 UNK         0.0600 
    132 H132       -1.1670  -14.3300  -47.5498 H         1 UNK         0.0800 
    133 H133       -0.2855  -12.9163  -47.0604 H         1 UNK         0.0800 
    134 H134       -3.5522  -12.9843  -49.9939 H         1 UNK         0.0800 
    135 H135       -3.1758  -14.0684  -48.6866 H         1 UNK         0.0800 
    136 H136       -2.8008  -13.4126  -52.2937 H         1 UNK         0.1150 
    137 H137       -1.5159  -17.3873  -53.2427 H         1 UNK         0.1150 
    138 H138       -1.9301  -16.1930  -49.1452 H         1 UNK         0.1150 
    139 H139       -0.6088  -18.7706  -51.4811 H         1 UNK         0.0800 
    140 H140       -0.6155  -18.2493  -49.8132 H         1 UNK         0.0800 
    141 H141       -0.9352  -21.0063  -50.8383 H         1 UNK         0.0800 
    142 H142       -2.4951  -21.7496  -50.8368 H         1 UNK         0.0800 
    143 H143       -1.0225  -22.4555  -48.9602 H         1 UNK         0.0600 
    144 H144       -0.7952  -19.6496  -48.3741 H         1 UNK         0.3000 
    145 H145        0.8299  -20.1256  -45.2336 H         1 UNK         0.0600 
    146 H146        1.7681  -19.1915  -48.0026 H         1 UNK         0.0600 
    147 H147        2.4848  -18.7250  -46.4683 H         1 UNK         0.0600 
    148 H148        2.5634  -20.4014  -47.0000 H         1 UNK         0.0600 
    149 H149        0.3136  -17.7224  -46.5022 H         1 UNK         0.3000 
    150 H150       -1.3875  -16.3479  -46.1519 H         1 UNK         0.0600 
    151 H151       -3.6836  -15.8071  -45.4496 H         1 UNK         0.0600 
    152 H152       -3.8944  -17.3944  -44.7216 H         1 UNK         0.0600 
    153 H153       -3.7342  -17.2370  -46.4708 H         1 UNK         0.0600 
    154 H154       -1.4966  -17.3526  -43.3698 H         1 UNK         0.3000 
    155 H155        0.8549  -15.0308  -42.3927 H         1 UNK         0.0600 
    156 H156       -1.1063  -13.6281  -41.7428 H         1 UNK         0.0600 
    157 H157       -0.5093  -14.5593  -40.3781 H         1 UNK         0.0600 
    158 H158       -1.9760  -15.0658  -41.2176 H         1 UNK         0.0600 
    159 H159       -0.5293  -17.0483  -40.9228 H         1 UNK         0.3000 
    160 H160       -0.0291  -19.4961  -41.3732 H         1 UNK         0.0600 
    161 H161        2.9909  -19.6886  -41.8572 H         1 UNK         0.0600 
    162 H162        1.7289  -20.3368  -42.8961 H         1 UNK         0.0600 
    163 H163        1.9553  -20.9960  -41.2856 H         1 UNK         0.0600 
    164 H164        2.2612  -18.8219  -39.6582 H         1 UNK         0.3000 
    165 H165        0.2090  -17.5902  -36.9948 H         1 UNK         0.0600 
    166 H166        1.7270  -19.1637  -35.8346 H         1 UNK         0.0600 
    167 H167        0.5287  -20.0534  -36.7602 H         1 UNK         0.0600 
    168 H168        2.1755  -19.9160  -37.3643 H         1 UNK         0.0600 
    169 H169        3.0591  -17.6319  -37.6164 H         1 UNK         0.3000 
    170 H170        3.2086  -14.2242  -38.6424 H         1 UNK         0.0600 
    171 H171        3.3252  -14.1493  -36.1488 H         1 UNK         0.0600 
    172 H172        4.2769  -15.6290  -36.1339 H         1 UNK         0.0600 
    173 H173        4.9304  -14.1607  -36.8611 H         1 UNK         0.0600 
    174 H174        5.1950  -16.2668  -38.3448 H         1 UNK         0.3000 
    175 H175        6.2663  -16.6686  -40.6998 H         1 UNK         0.0600 
    176 H176        4.4138  -19.0384  -40.0084 H         1 UNK         0.0600 
    177 H177        6.1059  -19.1921  -40.4643 H         1 UNK         0.0600 
    178 H178        5.6765  -18.3894  -38.9704 H         1 UNK         0.0600 
    179 H179        4.0171  -17.0956  -42.3889 H         1 UNK         0.3000 
    180 H180        5.9685  -17.6925  -45.2307 H         1 UNK         0.0600 
    181 H181        3.9382  -19.7710  -44.2586 H         1 UNK         0.0600 
    182 H182        5.6360  -20.1257  -44.5588 H         1 UNK         0.0600 
    183 H183        4.6157  -19.6014  -45.8803 H         1 UNK         0.0600 
    184 H184        3.1903  -17.3829  -44.1236 H         1 UNK         0.3000 
    185 H185        1.9035  -15.7788  -44.8111 H         1 UNK         0.0600 
    186 H186        3.8033  -13.3936  -44.5005 H         1 UNK         0.0600 
    187 H187        2.1260  -13.4544  -43.9585 H         1 UNK         0.0600 
    188 H188        3.3274  -14.4988  -43.2171 H         1 UNK         0.0600 
    189 H189        2.5208  -13.5654  -46.5856 H         1 UNK         0.3000 
    190 H190       -3.0758  -20.1559  -47.2139 H         1 UNK         0.3000 
    191 H191       -5.3892  -21.9082  -47.0967 H         1 UNK         0.0600 
    192 H192       -5.5620  -19.4137  -46.8532 H         1 UNK         0.0600 
    193 H193       -6.2491  -20.2754  -45.4839 H         1 UNK         0.0600 
    194 H194       -4.6748  -19.5150  -45.3314 H         1 UNK         0.0600 
    195 H195       -2.6188  -21.1557  -44.9547 H         1 UNK         0.3000 
    196 H196       -3.2711  -22.9096  -42.8249 H         1 UNK         0.0600 
    197 H197       -0.8656  -22.6376  -42.2207 H         1 UNK         0.0600 
    198 H198       -1.5851  -21.0940  -42.6554 H         1 UNK         0.0600 
    199 H199       -0.5320  -21.9273  -43.7948 H         1 UNK         0.0600 
    200 H200       -1.4595  -23.4827  -45.8502 H         1 UNK         0.3000 
    201 H201       -0.8593  -26.2570  -45.3127 H         1 UNK         0.0600 
    202 H202        0.5127  -24.8172  -46.8222 H         1 UNK         0.0600 
    203 H203       -0.8531  -24.6554  -47.9261 H         1 UNK         0.0600 
    204 H204       -0.0962  -26.2231  -47.6808 H         1 UNK         0.0600 
    205 H205       -3.7703  -24.7274  -46.1911 H         1 UNK         0.3000 
    206 H206       -5.7456  -25.2802  -46.9851 H         1 UNK         0.0600 
    207 H207       -6.6336  -27.5525  -46.6763 H         1 UNK         0.0600 
    208 H208       -5.0167  -28.2144  -46.4876 H         1 UNK         0.0600 
    209 H209       -5.6684  -27.1090  -45.2782 H         1 UNK         0.0600 
    210 H210       -3.8138  -24.6921  -48.8199 H         1 UNK         0.3000 
    211 H211       -4.4433  -26.3390  -51.2416 H         1 UNK         0.0600 
    212 H212       -2.1372  -25.7810  -51.9770 H         1 UNK         0.0600 
    213 H213       -2.0804  -26.6070  -50.4282 H         1 UNK         0.0600 
    214 H214       -1.8566  -24.8606  -50.5019 H         1 UNK         0.0600 
    215 H215       -5.3680  -23.5775  -49.8307 H         1 UNK         0.3000 
    216 H216       -4.7529  -21.4638  -51.5516 H         1 UNK         0.0600 
    217 H217       -5.6706  -21.0944  -49.3236 H         1 UNK         0.0600 
    218 H218       -7.1851  -21.8983  -49.7462 H         1 UNK         0.0600 
    219 H219       -6.7547  -20.3593  -50.4849 H         1 UNK         0.0600 
    220 H220       -7.0798  -24.0065  -52.0914 H         1 UNK         0.3000 
    221 H221       -8.6220  -22.7565  -54.1702 H         1 UNK         0.0600 
    222 H222       -8.0630  -25.7118  -53.5649 H         1 UNK         0.0600 
    223 H223       -9.4034  -24.7607  -52.9229 H         1 UNK         0.0600 
    224 H224       -9.3175  -25.1097  -54.6416 H         1 UNK         0.0600 
    225 H225       -5.3606  -23.9705  -54.1050 H         1 UNK         0.3000 
    226 H226       -5.1721  -24.0300  -57.0865 H         1 UNK         0.0600 
    227 H227       -4.7739  -26.2467  -55.9740 H         1 UNK         0.0600 
    228 H228       -3.3205  -25.6291  -56.7391 H         1 UNK         0.0600 
    229 H229       -3.5029  -25.5205  -54.9915 H         1 UNK         0.0600 
    230 H230       -4.9191  -21.7558  -54.9477 H         1 UNK         0.3000 
    231 H231       -2.1891  -20.8952  -54.9431 H         1 UNK         0.0600 
    232 H232       -3.2128  -18.7013  -54.2357 H         1 UNK         0.0600 
    233 H233       -3.8276  -20.0498  -53.2971 H         1 UNK         0.0600 
    234 H234       -4.8109  -19.3427  -54.5793 H         1 UNK         0.0600 
    235 H235       -1.1258  -19.3754  -56.2137 H         1 UNK         0.3000 
    236 H236       -1.5321  -19.4704  -58.9716 H         1 UNK         0.0600 
    237 H237        0.1583  -17.5237  -57.3112 H         1 UNK         0.0600 
    238 H238        0.6701  -19.1078  -57.8964 H         1 UNK         0.0600 
    239 H239        0.3445  -17.8133  -59.0367 H         1 UNK         0.0600 
    240 H240       -2.7829  -17.1248  -56.6866 H         1 UNK         0.3000 
    241 H241       -3.6999  -15.2682  -58.7662 H         1 UNK         0.0600 
    242 H242       -6.6205  -17.8951  -58.1480 H         1 UNK         0.3800 
    243 H243       -4.9501  -18.2871  -57.8359 H         1 UNK         0.3800 
    244 H244       -2.8966  -14.1658  -56.8327 H         1 UNK         0.0800 
    245 H245       -4.6120  -13.9363  -56.8544 H         1 UNK         0.0800 
    246 H246       -2.0198  -13.9963  -54.5734 H         1 UNK         0.0800 
    247 H247       -1.5676  -15.6356  -54.9811 H         1 UNK         0.0800 
@<TRIPOS>BOND
     1    1    2 1    
     2    1  127 1    
     3    1  128 1    
     4    1  129 1    
     5    2    3 2    
     6    2    4 am   BACKBONE|DICT|INTERRES
     7    4    5 1    
     8    4  130 1    
     9    5    6 1    
    10    5   65 1    
    11    5  131 1    
    12    6    7 1    
    13    6  132 1    
    14    6  133 1    
    15    7    8 1    
    16    8    9 1    
    17    8  134 1    
    18    8  135 1    
    19    9   10 ar   
    20    9   14 ar   
    21   10   11 ar   
    22   10  136 1    
    23   11   12 ar   
    24   11  126 1    
    25   12   13 ar   
    26   12  137 1    
    27   13   14 ar   
    28   13   15 1    
    29   14  138 1    
    30   15   16 1    
    31   15  139 1    
    32   15  140 1    
    33   16   17 1    
    34   17   18 1    
    35   17  141 1    
    36   17  142 1    
    37   18   19 1    
    38   18   67 1    
    39   18  143 1    
    40   19   20 am   BACKBONE|DICT|INTERRES
    41   19  144 1    
    42   20   21 2    
    43   20   22 1    
    44   22   23 1    
    45   22   24 1    
    46   22  145 1    
    47   23  146 1    
    48   23  147 1    
    49   23  148 1    
    50   24   25 am   BACKBONE|DICT|INTERRES
    51   24  149 1    
    52   25   26 2    
    53   25   27 1    
    54   27   28 1    
    55   27   29 1    
    56   27  150 1    
    57   28  151 1    
    58   28  152 1    
    59   28  153 1    
    60   29   30 am   BACKBONE|DICT|INTERRES
    61   29  154 1    
    62   30   31 2    
    63   30   32 1    
    64   32   33 1    
    65   32   34 1    
    66   32  155 1    
    67   33  156 1    
    68   33  157 1    
    69   33  158 1    
    70   34   35 am   BACKBONE|DICT|INTERRES
    71   34  159 1    
    72   35   36 2    
    73   35   37 1    
    74   37   38 1    
    75   37   39 1    
    76   37  160 1    
    77   38  161 1    
    78   38  162 1    
    79   38  163 1    
    80   39   40 am   BACKBONE|DICT|INTERRES
    81   39  164 1    
    82   40   41 2    
    83   40   42 1    
    84   42   43 1    
    85   42   44 1    
    86   42  165 1    
    87   43  166 1    
    88   43  167 1    
    89   43  168 1    
    90   44   45 am   BACKBONE|DICT|INTERRES
    91   44  169 1    
    92   45   46 2    
    93   45   47 1    
    94   47   48 1    
    95   47   49 1    
    96   47  170 1    
    97   48  171 1    
    98   48  172 1    
    99   48  173 1    
   100   49   50 am   BACKBONE|DICT|INTERRES
   101   49  174 1    
   102   50   51 2    
   103   50   52 1    
   104   52   53 1    
   105   52   54 1    
   106   52  175 1    
   107   53  176 1    
   108   53  177 1    
   109   53  178 1    
   110   54   55 am   BACKBONE|DICT|INTERRES
   111   54  179 1    
   112   55   56 2    
   113   55   57 1    
   114   57   58 1    
   115   57   59 1    
   116   57  180 1    
   117   58  181 1    
   118   58  182 1    
   119   58  183 1    
   120   59   60 am   BACKBONE|DICT|INTERRES
   121   59  184 1    
   122   60   61 2    
   123   60   62 1    
   124   62   63 1    
   125   62   64 1    
   126   62  185 1    
   127   63  186 1    
   128   63  187 1    
   129   63  188 1    
   130   64   65 am   BACKBONE|DICT|INTERRES
   131   64  189 1    
   132   65   66 2    
   133   67   68 2    
   134   67   69 am   BACKBONE|DICT|INTERRES
   135   69   70 1    
   136   69  190 1    
   137   70   71 1    
   138   70   72 1    
   139   70  191 1    
   140   71  192 1    
   141   71  193 1    
   142   71  194 1    
   143   72   73 2    
   144   72   74 am   BACKBONE|DICT|INTERRES
   145   74   75 1    
   146   74  195 1    
   147   75   76 1    
   148   75   77 1    
   149   75  196 1    
   150   76  197 1    
   151   76  198 1    
   152   76  199 1    
   153   77   78 2    
   154   77   79 am   BACKBONE|DICT|INTERRES
   155   79   80 1    
   156   79  200 1    
   157   80   81 1    
   158   80   82 1    
   159   80  201 1    
   160   81  202 1    
   161   81  203 1    
   162   81  204 1    
   163   82   83 2    
   164   82   84 am   BACKBONE|DICT|INTERRES
   165   84   85 1    
   166   84  205 1    
   167   85   86 1    
   168   85   87 1    
   169   85  206 1    
   170   86  207 1    
   171   86  208 1    
   172   86  209 1    
   173   87   88 2    
   174   87   89 am   BACKBONE|DICT|INTERRES
   175   89   90 1    
   176   89  210 1    
   177   90   91 1    
   178   90   92 1    
   179   90  211 1    
   180   91  212 1    
   181   91  213 1    
   182   91  214 1    
   183   92   93 2    
   184   92   94 am   BACKBONE|DICT|INTERRES
   185   94   95 1    
   186   94  215 1    
   187   95   96 1    
   188   95   97 1    
   189   95  216 1    
   190   96  217 1    
   191   96  218 1    
   192   96  219 1    
   193   97   98 2    
   194   97   99 am   BACKBONE|DICT|INTERRES
   195   99  100 1    
   196   99  220 1    
   197  100  101 1    
   198  100  102 1    
   199  100  221 1    
   200  101  222 1    
   201  101  223 1    
   202  101  224 1    
   203  102  103 2    
   204  102  104 am   BACKBONE|DICT|INTERRES
   205  104  105 1    
   206  104  225 1    
   207  105  106 1    
   208  105  107 1    
   209  105  226 1    
   210  106  227 1    
   211  106  228 1    
   212  106  229 1    
   213  107  108 2    
   214  107  109 am   BACKBONE|DICT|INTERRES
   215  109  110 1    
   216  109  230 1    
   217  110  111 1    
   218  110  112 1    
   219  110  231 1    
   220  111  232 1    
   221  111  233 1    
   222  111  234 1    
   223  112  113 2    
   224  112  114 am   BACKBONE|DICT|INTERRES
   225  114  115 1    
   226  114  235 1    
   227  115  116 1    
   228  115  117 1    
   229  115  236 1    
   230  116  237 1    
   231  116  238 1    
   232  116  239 1    
   233  117  118 2    
   234  117  119 am   BACKBONE|DICT|INTERRES
   235  119  120 1    
   236  119  240 1    
   237  120  121 1    
   238  120  124 1    
   239  120  241 1    
   240  121  122 am   BACKBONE|DICT|INTERRES
   241  121  123 2    
   242  122  242 1    
   243  122  243 1    
   244  124  125 1    
   245  124  244 1    
   246  124  245 1    
   247  125  126 1    
   248  126  246 1    
   249  126  247 1    
@<TRIPOS>SUBSTRUCTURE
     1 UNK         1 GROUP             0       ****    0 ROOT    
