@<TRIPOS>MOLECULE
3R540
247   249    1
SMALL
USER_CHARGES


@<TRIPOS>ATOM
      1 CA         -2.8677  -12.9659  -46.3059 C.3       0 UNK        -0.1800 
      2 C          -1.7674  -12.3174  -47.1337 C.2       0 UNK         0.5000 
      3 O          -2.0534  -11.4965  -48.0041 O.2       0 UNK        -0.5000 
      4 N          -0.5087  -12.6789  -46.8592 N.am      1 UNK        -0.5000 
      5 CA          0.6877  -12.2378  -47.5946 C.3       1 UNK         0.1400 
      6 C6          1.8803  -13.2199  -47.4226 C.3       23 UNK        -0.0398 
      7 S7          1.4348  -14.9863  -47.5248 S.3       23 UNK        -0.2404 
      8 C8          0.9499  -15.1703  -49.2700 C.3       23 UNK        -0.0205 
      9 C9          0.1328  -16.4379  -49.4573 C.ar      23 UNK        -0.0193 
     10 C10        -1.2605  -16.3762  -49.5723 C.ar      23 UNK        -0.1150 
     11 C11        -2.0140  -17.5494  -49.6849 C.ar      23 UNK        -0.0193 
     12 C12        -1.3658  -18.7864  -49.6781 C.ar      23 UNK        -0.1150 
     13 C13         0.0239  -18.8582  -49.5636 C.ar      23 UNK        -0.0193 
     14 C14         0.7701  -17.6807  -49.4732 C.ar      23 UNK        -0.1150 
     15 C15         0.7139  -20.2073  -49.4954 C.3       23 UNK        -0.0205 
     16 S16         1.3552  -20.5124  -47.8248 S.3       23 UNK        -0.2404 
     17 C17         1.7547  -22.2871  -47.9054 C.3       23 UNK        -0.0398 
     18 CA          0.7707  -23.1978  -47.1314 C.3       11 UNK         0.1400 
     19 N           0.5342  -22.7685  -45.7505 N.am      11 UNK        -0.5000 
     20 C           0.0572  -23.5788  -44.7962 C.2       10 UNK         0.5000 
     21 O          -0.2295  -24.7623  -44.9842 O.2       10 UNK        -0.5000 
     22 CA         -0.1685  -22.9532  -43.4110 C.3       10 UNK         0.1400 
     23 CB          1.1657  -22.6681  -42.7040 C.3       10 UNK        -0.1800 
     24 N          -0.9617  -21.7276  -43.4792 N.am      10 UNK        -0.5000 
     25 C          -2.2570  -21.6850  -43.8198 C.2       9 UNK         0.5000 
     26 O          -2.9105  -22.6714  -44.1548 O.2       9 UNK        -0.5000 
     27 CA         -2.9374  -20.3062  -43.8009 C.3       9 UNK         0.1400 
     28 CB         -3.4462  -19.9724  -42.3908 C.3       9 UNK        -0.1800 
     29 N          -2.0666  -19.2293  -44.2640 N.am      9 UNK        -0.5000 
     30 C          -1.5812  -19.1283  -45.5089 C.2       8 UNK         0.5000 
     31 O          -1.7812  -19.9590  -46.3927 O.2       8 UNK        -0.5000 
     32 CA         -0.7096  -17.8962  -45.7966 C.3       8 UNK         0.1400 
     33 CB         -1.6183  -16.6836  -46.0568 C.3       8 UNK        -0.1800 
     34 N           0.2251  -17.5811  -44.7127 N.am      8 UNK        -0.5000 
     35 C           1.1374  -18.4215  -44.1945 C.2       7 UNK         0.5000 
     36 O           1.2882  -19.5880  -44.5591 O.2       7 UNK        -0.5000 
     37 CA          2.0143  -17.8879  -43.0454 C.3       7 UNK         0.1400 
     38 CB          3.3773  -17.4306  -43.5855 C.3       7 UNK        -0.1800 
     39 N           1.3962  -16.7922  -42.2959 N.am      7 UNK        -0.5000 
     40 C           0.2859  -16.9106  -41.5506 C.2       6 UNK         0.5000 
     41 O          -0.3131  -17.9753  -41.3909 O.2       6 UNK        -0.5000 
     42 CA         -0.2727  -15.6316  -40.8926 C.3       6 UNK         0.1400 
     43 CB          0.1278  -15.5737  -39.4107 C.3       6 UNK        -0.1800 
     44 N           0.1414  -14.3860  -41.5429 N.am      6 UNK        -0.5000 
     45 C          -0.1354  -14.0406  -42.8076 C.2       5 UNK         0.5000 
     46 O          -0.7906  -14.7366  -43.5821 O.2       5 UNK        -0.5000 
     47 CA          0.4490  -12.7084  -43.3107 C.3       5 UNK         0.1400 
     48 CB         -0.5706  -11.5805  -43.0941 C.3       5 UNK        -0.1800 
     49 N           1.7376  -12.3138  -42.7304 N.am      5 UNK        -0.5000 
     50 C           2.8505  -13.0635  -42.6815 C.2       4 UNK         0.5000 
     51 O           2.8890  -14.2552  -42.9908 O.2       4 UNK        -0.5000 
     52 CA          4.1330  -12.3295  -42.2340 C.3       4 UNK         0.1400 
     53 CB          5.3992  -13.2056  -42.3391 C.3       4 UNK        -0.1800 
     54 N           4.3143  -11.0573  -42.9472 N.am      4 UNK        -0.5000 
     55 C           4.4178  -10.8891  -44.2744 C.2       3 UNK         0.5000 
     56 O           4.4329  -11.8088  -45.0947 O.2       3 UNK        -0.5000 
     57 CA          4.4493   -9.4365  -44.7781 C.3       3 UNK         0.1400 
     58 CB          5.5976   -9.2047  -45.7737 C.3       3 UNK        -0.1800 
     59 N           3.1801   -9.1388  -45.4337 N.am      3 UNK        -0.5000 
     60 C           2.0279   -8.9055  -44.7962 C.2       2 UNK         0.5000 
     61 O           1.9368   -8.7866  -43.5737 O.2       2 UNK        -0.5000 
     62 CA          0.7549   -8.8565  -45.6607 C.3       2 UNK         0.1400 
     63 CB          0.7816   -7.7039  -46.6845 C.3       2 UNK        -0.1800 
     64 N           0.4619  -10.1534  -46.2847 N.am      2 UNK        -0.5000 
     65 C           1.1368  -10.7981  -47.2493 C.2       1 UNK         0.5000 
     66 O           2.1049  -10.3169  -47.8402 O.2       1 UNK        -0.5000 
     67 C          -0.5438  -23.4560  -47.8947 C.2       11 UNK         0.5000 
     68 O          -0.5960  -24.4076  -48.6746 O.2       11 UNK        -0.5000 
     69 N          -1.5972  -22.6669  -47.6247 N.am      12 UNK        -0.5000 
     70 CA         -2.9383  -22.9041  -48.1611 C.3       12 UNK         0.1400 
     71 CB         -3.8780  -21.7358  -47.8328 C.3       12 UNK        -0.1800 
     72 C          -3.5375  -24.2335  -47.6738 C.2       12 UNK         0.5000 
     73 O          -4.0652  -24.9796  -48.4952 O.2       12 UNK        -0.5000 
     74 N          -3.4150  -24.5371  -46.3733 N.am      13 UNK        -0.5000 
     75 CA         -3.8691  -25.8012  -45.7876 C.3       13 UNK         0.1400 
     76 CB         -3.7476  -25.7478  -44.2575 C.3       13 UNK        -0.1800 
     77 C          -3.1209  -27.0238  -46.3485 C.2       13 UNK         0.5000 
     78 O          -3.7529  -28.0429  -46.6284 O.2       13 UNK        -0.5000 
     79 N          -1.7997  -26.8902  -46.5305 N.am      14 UNK        -0.5000 
     80 CA         -0.9349  -27.9248  -47.0982 C.3       14 UNK         0.1400 
     81 CB          0.5343  -27.5134  -46.9188 C.3       14 UNK        -0.1800 
     82 C          -1.2373  -28.2235  -48.5794 C.2       14 UNK         0.5000 
     83 O          -1.2517  -29.3908  -48.9721 O.2       14 UNK        -0.5000 
     84 N          -1.4721  -27.1690  -49.3709 N.am      15 UNK        -0.5000 
     85 CA         -1.6935  -27.2508  -50.8164 C.3       15 UNK         0.1400 
     86 CB         -1.1250  -25.9795  -51.4596 C.3       15 UNK        -0.1800 
     87 C          -3.1699  -27.4288  -51.2179 C.2       15 UNK         0.5000 
     88 O          -3.4475  -27.5293  -52.4128 O.2       15 UNK        -0.5000 
     89 N          -4.0915  -27.4165  -50.2440 N.am      16 UNK        -0.5000 
     90 CA         -5.5512  -27.4223  -50.4154 C.3       16 UNK         0.1400 
     91 CB         -6.0366  -28.7629  -51.0053 C.3       16 UNK        -0.1800 
     92 C          -6.0480  -26.1890  -51.2043 C.2       16 UNK         0.5000 
     93 O          -6.8599  -26.3108  -52.1226 O.2       16 UNK        -0.5000 
     94 N          -5.5099  -25.0219  -50.8246 N.am      17 UNK        -0.5000 
     95 CA         -5.7629  -23.6708  -51.3361 C.3       17 UNK         0.1400 
     96 CB         -7.2410  -23.2825  -51.1410 C.3       17 UNK        -0.1800 
     97 C          -5.2661  -23.4110  -52.7753 C.2       17 UNK         0.5000 
     98 O          -5.5393  -22.3397  -53.3214 O.2       17 UNK        -0.5000 
     99 N          -4.5244  -24.3611  -53.3631 N.am      18 UNK        -0.5000 
    100 CA        -3.9245  -24.2267  -54.6920 C.3       18 UNK         0.1400 
    101 CB        -3.5169  -25.6130  -55.2113 C.3       18 UNK        -0.1800 
    102 C         -2.7170  -23.2716  -54.7007 C.2       18 UNK         0.5000 
    103 O         -2.4937  -22.5846  -55.6990 O.2       18 UNK        -0.5000 
    104 N         -1.9686  -23.2318  -53.5880 N.am      19 UNK        -0.5000 
    105 CA        -0.8292  -22.3389  -53.3804 C.3       19 UNK         0.1400 
    106 CB        -0.1125  -22.6973  -52.0718 C.3       19 UNK        -0.1800 
    107 C         -1.2744  -20.8678  -53.3843 C.2       19 UNK         0.5000 
    108 O         -2.2072  -20.5131  -52.6610 O.2       19 UNK        -0.5000 
    109 N         -0.6329  -20.0719  -54.2514 N.am      20 UNK        -0.5000 
    110 CA        -0.9290  -18.6672  -54.5646 C.3       20 UNK         0.1400 
    111 CB        -0.6593  -17.7674  -53.3413 C.3       20 UNK        -0.1800 
    112 C         -2.3282  -18.4303  -55.1841 C.2       20 UNK         0.5000 
    113 O         -2.7427  -17.2772  -55.3106 O.2       20 UNK        -0.5000 
    114 N         -3.0145  -19.5147  -55.5847 N.am      21 UNK        -0.5000 
    115 CA        -4.3616  -19.5678  -56.1619 C.3       21 UNK         0.1400 
    116 CB        -4.3571  -18.9834  -57.5897 C.3       21 UNK        -0.1800 
    117 C         -5.4496  -18.9460  -55.2577 C.2       21 UNK         0.5000 
    118 O         -6.4040  -18.3531  -55.7656 O.2       21 UNK        -0.5000 
    119 N         -5.2835  -19.0788  -53.9350 N.am      22 UNK        -0.5000 
    120 CA        -6.1960  -18.5190  -52.9234 C.3       22 UNK         0.1400 
    121 C         -7.5825  -19.2201  -52.8421 C.2       22 UNK         0.5000 
    122 N         -7.7279  -20.4592  -53.2927 N.am      22 UNK        -0.7600 
    123 O         -8.5472  -18.6203  -52.3754 O.2       22 UNK        -0.5000 
    124 C124       -5.5333  -18.4421  -51.5259 C.3       23 UNK        -0.0398 
    125 S125       -4.0529  -17.3774  -51.5285 S.3       23 UNK        -0.2404 
    126 C126       -3.5288  -17.4933  -49.7917 C.3       23 UNK        -0.0205 
    127 H127       -2.4631  -13.6303  -45.5419 H         1 UNK         0.0600 
    128 H128       -3.4648  -12.2016  -45.8086 H         1 UNK         0.0600 
    129 H129       -3.5250  -13.5505  -46.9495 H         1 UNK         0.0600 
    130 H130       -0.3470  -13.3993  -46.1700 H         1 UNK         0.3000 
    131 H131        0.4292  -12.2164  -48.6547 H         1 UNK         0.0600 
    132 H132        2.6540  -13.0148  -48.1646 H         1 UNK         0.0800 
    133 H133        2.3533  -13.0752  -46.4491 H         1 UNK         0.0800 
    134 H134        0.3692  -14.3077  -49.5960 H         1 UNK         0.0800 
    135 H135        1.8422  -15.2019  -49.8966 H         1 UNK         0.0800 
    136 H136       -1.7608  -15.4183  -49.5575 H         1 UNK         0.1150 
    137 H137       -1.9462  -19.6950  -49.7541 H         1 UNK         0.1150 
    138 H138        1.8445  -17.7344  -49.3665 H         1 UNK         0.1150 
    139 H139        0.0109  -20.9982  -49.7543 H         1 UNK         0.0800 
    140 H140        1.5283  -20.2472  -50.2198 H         1 UNK         0.0800 
    141 H141        2.7516  -22.4054  -47.4790 H         1 UNK         0.0800 
    142 H142        1.8470  -22.6060  -48.9454 H         1 UNK         0.0800 
    143 H143        1.2631  -24.1710  -47.0706 H         1 UNK         0.0600 
    144 H144        0.7176  -21.7951  -45.5384 H         1 UNK         0.3000 
    145 H145       -0.7202  -23.6771  -42.8072 H         1 UNK         0.0600 
    146 H146        1.0034  -22.2915  -41.6939 H         1 UNK         0.0600 
    147 H147        1.7632  -23.5767  -42.6198 H         1 UNK         0.0600 
    148 H148        1.7631  -21.9321  -43.2430 H         1 UNK         0.0600 
    149 H149       -0.4829  -20.8596  -43.2844 H         1 UNK         0.3000 
    150 H150       -3.7972  -20.3528  -44.4724 H         1 UNK         0.0600 
    151 H151       -4.1114  -20.7535  -42.0204 H         1 UNK         0.0600 
    152 H152       -4.0079  -19.0381  -42.3850 H         1 UNK         0.0600 
    153 H153       -2.6249  -19.8743  -41.6794 H         1 UNK         0.0600 
    154 H154       -1.8146  -18.5215  -43.5888 H         1 UNK         0.3000 
    155 H155       -0.1240  -18.0945  -46.6951 H         1 UNK         0.0600 
    156 H156       -2.2094  -16.4260  -45.1774 H         1 UNK         0.0600 
    157 H157       -2.3178  -16.8866  -46.8677 H         1 UNK         0.0600 
    158 H158       -1.0438  -15.8037  -46.3384 H         1 UNK         0.0600 
    159 H159        0.1559  -16.6490  -44.3237 H         1 UNK         0.3000 
    160 H160        2.1827  -18.7135  -42.3508 H         1 UNK         0.0600 
    161 H161        3.2702  -16.6208  -44.3086 H         1 UNK         0.0600 
    162 H162        3.8931  -18.2506  -44.0869 H         1 UNK         0.0600 
    163 H163        4.0253  -17.0797  -42.7822 H         1 UNK         0.0600 
    164 H164        1.8246  -15.8776  -42.4034 H         1 UNK         0.3000 
    165 H165       -1.3615  -15.6882  -40.9517 H         1 UNK         0.0600 
    166 H166        1.2085  -15.4882  -39.2901 H         1 UNK         0.0600 
    167 H167       -0.3357  -14.7242  -38.9086 H         1 UNK         0.0600 
    168 H168       -0.1912  -16.4739  -38.8835 H         1 UNK         0.0600 
    169 H169        0.7034  -13.7542  -40.9919 H         1 UNK         0.3000 
    170 H170        0.6203  -12.8191  -44.3811 H         1 UNK         0.0600 
    171 H171       -0.7827  -11.4325  -42.0345 H         1 UNK         0.0600 
    172 H172       -1.5164  -11.8055  -43.5891 H         1 UNK         0.0600 
    173 H173       -0.2124  -10.6336  -43.4924 H         1 UNK         0.0600 
    174 H174        1.8160  -11.3446  -42.4556 H         1 UNK         0.3000 
    175 H175        3.9924  -12.0807  -41.1813 H         1 UNK         0.0600 
    176 H176        6.2821  -12.6650  -41.9982 H         1 UNK         0.0600 
    177 H177        5.3068  -14.0991  -41.7206 H         1 UNK         0.0600 
    178 H178        5.5825  -13.5362  -43.3619 H         1 UNK         0.0600 
    179 H179        4.2757  -10.2290  -42.3687 H         1 UNK         0.3000 
    180 H180        4.5889   -8.7585  -43.9333 H         1 UNK         0.0600 
    181 H181        5.4961   -9.8289  -46.6626 H         1 UNK         0.0600 
    182 H182        6.5608   -9.4356  -45.3172 H         1 UNK         0.0600 
    183 H183        5.6317   -8.1647  -46.0986 H         1 UNK         0.0600 
    184 H184        3.1262   -9.3346  -46.4282 H         1 UNK         0.3000 
    185 H185       -0.0775   -8.6581  -44.9837 H         1 UNK         0.0600 
    186 H186       -0.1475   -7.6638  -47.2529 H         1 UNK         0.0600 
    187 H187        0.8953   -6.7437  -46.1800 H         1 UNK         0.0600 
    188 H188        1.6032   -7.7931  -47.3950 H         1 UNK         0.0600 
    189 H189       -0.3236  -10.6479  -45.8882 H         1 UNK         0.3000 
    190 H190       -1.4864  -21.8655  -47.0102 H         1 UNK         0.3000 
    191 H191       -2.8505  -22.9622  -49.2482 H         1 UNK         0.0600 
    192 H192       -3.5169  -20.8047  -48.2685 H         1 UNK         0.0600 
    193 H193       -4.8773  -21.9124  -48.2326 H         1 UNK         0.0600 
    194 H194       -3.9760  -21.5888  -46.7568 H         1 UNK         0.0600 
    195 H195       -3.0031  -23.8634  -45.7345 H         1 UNK         0.3000 
    196 H196       -4.9256  -25.9210  -46.0365 H         1 UNK         0.0600 
    197 H197       -4.0643  -26.6886  -43.8056 H         1 UNK         0.0600 
    198 H198       -4.3768  -24.9613  -43.8409 H         1 UNK         0.0600 
    199 H199       -2.7212  -25.5591  -43.9411 H         1 UNK         0.0600 
    200 H200       -1.3510  -26.0311  -46.2312 H         1 UNK         0.3000 
    201 H201       -1.0996  -28.8448  -46.5336 H         1 UNK         0.0600 
    202 H202        0.7763  -27.3629  -45.8665 H         1 UNK         0.0600 
    203 H203        0.7607  -26.5883  -47.4495 H         1 UNK         0.0600 
    204 H204        1.2053  -28.2839  -47.3006 H         1 UNK         0.0600 
    205 H205       -1.3978  -26.2347  -48.9792 H         1 UNK         0.3000 
    206 H206       -1.1441  -28.1038  -51.2199 H         1 UNK         0.0600 
    207 H207       -0.0740  -25.8502  -51.2007 H         1 UNK         0.0600 
    208 H208       -1.1874  -26.0210  -52.5475 H         1 UNK         0.0600 
    209 H209       -1.6653  -25.0929  -51.1264 H         1 UNK         0.0600 
    210 H210       -3.7637  -27.2732  -49.2979 H         1 UNK         0.3000 
    211 H211       -5.9741  -27.3326  -49.4137 H         1 UNK         0.0600 
    212 H212       -5.6996  -28.9037  -52.0325 H         1 UNK         0.0600 
    213 H213       -7.1260  -28.8132  -51.0108 H         1 UNK         0.0600 
    214 H214       -5.6761  -29.6056  -50.4154 H         1 UNK         0.0600 
    215 H215       -4.8740  -25.0590  -50.0270 H         1 UNK         0.3000 
    216 H216       -5.1711  -23.0099  -50.7015 H         1 UNK         0.0600 
    217 H217       -7.5866  -23.5316  -50.1378 H         1 UNK         0.0600 
    218 H218       -7.8908  -23.7872  -51.8566 H         1 UNK         0.0600 
    219 H219       -7.3804  -22.2097  -51.2664 H         1 UNK         0.0600 
    220 H220       -4.3761  -25.2351  -52.8774 H         1 UNK         0.3000 
    221 H221       -4.6772  -23.8193  -55.3704 H         1 UNK         0.0600 
    222 H222       -2.7347  -26.0604  -54.5974 H         1 UNK         0.0600 
    223 H223       -4.3660  -26.2967  -55.2224 H         1 UNK         0.0600 
    224 H224       -3.1357  -25.5497  -56.2313 H         1 UNK         0.0600 
    225 H225       -2.2549  -23.7923  -52.8016 H         1 UNK         0.3000 
    226 H226       -0.1273  -22.4994  -54.2017 H         1 UNK         0.0600 
    227 H227        0.3383  -23.6865  -52.1309 H         1 UNK         0.0600 
    228 H228        0.6970  -21.9960  -51.8690 H         1 UNK         0.0600 
    229 H229       -0.7930  -22.6819  -51.2196 H         1 UNK         0.0600 
    230 H230        0.1000  -20.4822  -54.8137 H         1 UNK         0.3000 
    231 H231       -0.2171  -18.3794  -55.3393 H         1 UNK         0.0600 
    232 H232       -1.3488  -17.9799  -52.5263 H         1 UNK         0.0600 
    233 H233        0.3530  -17.9070  -52.9620 H         1 UNK         0.0600 
    234 H234       -0.7687  -16.7120  -53.5921 H         1 UNK         0.0600 
    235 H235       -2.5805  -20.4200  -55.4481 H         1 UNK         0.3000 
    236 H236       -4.6121  -20.6266  -56.2413 H         1 UNK         0.0600 
    237 H237       -5.3173  -19.1420  -58.0818 H         1 UNK         0.0600 
    238 H238       -4.1639  -17.9103  -57.5864 H         1 UNK         0.0600 
    239 H239       -3.5961  -19.4598  -58.2078 H         1 UNK         0.0600 
    240 H240       -4.4716  -19.5717  -53.5874 H         1 UNK         0.3000 
    241 H241       -6.4095  -17.4925  -53.2286 H         1 UNK         0.0600 
    242 H242       -6.9166  -21.0018  -53.5749 H         1 UNK         0.3800 
    243 H243       -8.6336  -20.8972  -53.2535 H         1 UNK         0.3800 
    244 H244       -6.2317  -18.0430  -50.7879 H         1 UNK         0.0800 
    245 H245       -5.2522  -19.4405  -51.1851 H         1 UNK         0.0800 
    246 H246       -3.9177  -16.6369  -49.2391 H         1 UNK         0.0800 
    247 H247       -3.9596  -18.3803  -49.3245 H         1 UNK         0.0800 
@<TRIPOS>BOND
     1    1    2 1    
     2    1  127 1    
     3    1  128 1    
     4    1  129 1    
     5    2    3 2    
     6    2    4 am   BACKBONE|DICT|INTERRES
     7    4    5 1    
     8    4  130 1    
     9    5    6 1    
    10    5   65 1    
    11    5  131 1    
    12    6    7 1    
    13    6  132 1    
    14    6  133 1    
    15    7    8 1    
    16    8    9 1    
    17    8  134 1    
    18    8  135 1    
    19    9   10 ar   
    20    9   14 ar   
    21   10   11 ar   
    22   10  136 1    
    23   11   12 ar   
    24   11  126 1    
    25   12   13 ar   
    26   12  137 1    
    27   13   14 ar   
    28   13   15 1    
    29   14  138 1    
    30   15   16 1    
    31   15  139 1    
    32   15  140 1    
    33   16   17 1    
    34   17   18 1    
    35   17  141 1    
    36   17  142 1    
    37   18   19 1    
    38   18   67 1    
    39   18  143 1    
    40   19   20 am   BACKBONE|DICT|INTERRES
    41   19  144 1    
    42   20   21 2    
    43   20   22 1    
    44   22   23 1    
    45   22   24 1    
    46   22  145 1    
    47   23  146 1    
    48   23  147 1    
    49   23  148 1    
    50   24   25 am   BACKBONE|DICT|INTERRES
    51   24  149 1    
    52   25   26 2    
    53   25   27 1    
    54   27   28 1    
    55   27   29 1    
    56   27  150 1    
    57   28  151 1    
    58   28  152 1    
    59   28  153 1    
    60   29   30 am   BACKBONE|DICT|INTERRES
    61   29  154 1    
    62   30   31 2    
    63   30   32 1    
    64   32   33 1    
    65   32   34 1    
    66   32  155 1    
    67   33  156 1    
    68   33  157 1    
    69   33  158 1    
    70   34   35 am   BACKBONE|DICT|INTERRES
    71   34  159 1    
    72   35   36 2    
    73   35   37 1    
    74   37   38 1    
    75   37   39 1    
    76   37  160 1    
    77   38  161 1    
    78   38  162 1    
    79   38  163 1    
    80   39   40 am   BACKBONE|DICT|INTERRES
    81   39  164 1    
    82   40   41 2    
    83   40   42 1    
    84   42   43 1    
    85   42   44 1    
    86   42  165 1    
    87   43  166 1    
    88   43  167 1    
    89   43  168 1    
    90   44   45 am   BACKBONE|DICT|INTERRES
    91   44  169 1    
    92   45   46 2    
    93   45   47 1    
    94   47   48 1    
    95   47   49 1    
    96   47  170 1    
    97   48  171 1    
    98   48  172 1    
    99   48  173 1    
   100   49   50 am   BACKBONE|DICT|INTERRES
   101   49  174 1    
   102   50   51 2    
   103   50   52 1    
   104   52   53 1    
   105   52   54 1    
   106   52  175 1    
   107   53  176 1    
   108   53  177 1    
   109   53  178 1    
   110   54   55 am   BACKBONE|DICT|INTERRES
   111   54  179 1    
   112   55   56 2    
   113   55   57 1    
   114   57   58 1    
   115   57   59 1    
   116   57  180 1    
   117   58  181 1    
   118   58  182 1    
   119   58  183 1    
   120   59   60 am   BACKBONE|DICT|INTERRES
   121   59  184 1    
   122   60   61 2    
   123   60   62 1    
   124   62   63 1    
   125   62   64 1    
   126   62  185 1    
   127   63  186 1    
   128   63  187 1    
   129   63  188 1    
   130   64   65 am   BACKBONE|DICT|INTERRES
   131   64  189 1    
   132   65   66 2    
   133   67   68 2    
   134   67   69 am   BACKBONE|DICT|INTERRES
   135   69   70 1    
   136   69  190 1    
   137   70   71 1    
   138   70   72 1    
   139   70  191 1    
   140   71  192 1    
   141   71  193 1    
   142   71  194 1    
   143   72   73 2    
   144   72   74 am   BACKBONE|DICT|INTERRES
   145   74   75 1    
   146   74  195 1    
   147   75   76 1    
   148   75   77 1    
   149   75  196 1    
   150   76  197 1    
   151   76  198 1    
   152   76  199 1    
   153   77   78 2    
   154   77   79 am   BACKBONE|DICT|INTERRES
   155   79   80 1    
   156   79  200 1    
   157   80   81 1    
   158   80   82 1    
   159   80  201 1    
   160   81  202 1    
   161   81  203 1    
   162   81  204 1    
   163   82   83 2    
   164   82   84 am   BACKBONE|DICT|INTERRES
   165   84   85 1    
   166   84  205 1    
   167   85   86 1    
   168   85   87 1    
   169   85  206 1    
   170   86  207 1    
   171   86  208 1    
   172   86  209 1    
   173   87   88 2    
   174   87   89 am   BACKBONE|DICT|INTERRES
   175   89   90 1    
   176   89  210 1    
   177   90   91 1    
   178   90   92 1    
   179   90  211 1    
   180   91  212 1    
   181   91  213 1    
   182   91  214 1    
   183   92   93 2    
   184   92   94 am   BACKBONE|DICT|INTERRES
   185   94   95 1    
   186   94  215 1    
   187   95   96 1    
   188   95   97 1    
   189   95  216 1    
   190   96  217 1    
   191   96  218 1    
   192   96  219 1    
   193   97   98 2    
   194   97   99 am   BACKBONE|DICT|INTERRES
   195   99  100 1    
   196   99  220 1    
   197  100  101 1    
   198  100  102 1    
   199  100  221 1    
   200  101  222 1    
   201  101  223 1    
   202  101  224 1    
   203  102  103 2    
   204  102  104 am   BACKBONE|DICT|INTERRES
   205  104  105 1    
   206  104  225 1    
   207  105  106 1    
   208  105  107 1    
   209  105  226 1    
   210  106  227 1    
   211  106  228 1    
   212  106  229 1    
   213  107  108 2    
   214  107  109 am   BACKBONE|DICT|INTERRES
   215  109  110 1    
   216  109  230 1    
   217  110  111 1    
   218  110  112 1    
   219  110  231 1    
   220  111  232 1    
   221  111  233 1    
   222  111  234 1    
   223  112  113 2    
   224  112  114 am   BACKBONE|DICT|INTERRES
   225  114  115 1    
   226  114  235 1    
   227  115  116 1    
   228  115  117 1    
   229  115  236 1    
   230  116  237 1    
   231  116  238 1    
   232  116  239 1    
   233  117  118 2    
   234  117  119 am   BACKBONE|DICT|INTERRES
   235  119  120 1    
   236  119  240 1    
   237  120  121 1    
   238  120  124 1    
   239  120  241 1    
   240  121  122 am   BACKBONE|DICT|INTERRES
   241  121  123 2    
   242  122  242 1    
   243  122  243 1    
   244  124  125 1    
   245  124  244 1    
   246  124  245 1    
   247  125  126 1    
   248  126  246 1    
   249  126  247 1    
@<TRIPOS>SUBSTRUCTURE
     1 UNK         1 GROUP             0       ****    0 ROOT    
