@<TRIPOS>MOLECULE
3R540
247   249    1
SMALL
USER_CHARGES


@<TRIPOS>ATOM
      1 CA          4.6432   -9.8654  -48.5440 C.3       0 UNK        -0.1800 
      2 C           3.8487  -10.8126  -47.6584 C.2       0 UNK         0.5000 
      3 O           3.9251  -10.7119  -46.4318 O.2       0 UNK        -0.5000 
      4 N           3.0678  -11.7152  -48.2684 N.am      1 UNK        -0.5000 
      5 CA          2.2661  -12.7814  -47.6398 C.3       1 UNK         0.1400 
      6 C6          1.9052  -13.9011  -48.6512 C.3       23 UNK        -0.0398 
      7 S7          3.3772  -14.5974  -49.4772 S.3       23 UNK        -0.2404 
      8 C8          2.6308  -15.4588  -50.8946 C.3       23 UNK        -0.0205 
      9 C9          1.7640  -16.6334  -50.4650 C.ar      23 UNK        -0.0193 
     10 C10         0.3708  -16.5478  -50.5486 C.ar      23 UNK        -0.1150 
     11 C11        -0.4291  -17.6353  -50.1862 C.ar      23 UNK        -0.0193 
     12 C12         0.1752  -18.8081  -49.7275 C.ar      23 UNK        -0.1150 
     13 C13         1.5651  -18.9071  -49.6359 C.ar      23 UNK        -0.0193 
     14 C14         2.3555  -17.8167  -50.0104 C.ar      23 UNK        -0.1150 
     15 C15         2.2084  -20.2066  -49.1749 C.3       23 UNK        -0.0205 
     16 S16         2.6328  -20.1971  -47.4037 S.3       23 UNK        -0.2404 
     17 C17         0.9961  -20.1895  -46.5943 C.3       23 UNK        -0.0398 
     18 CA          0.3509  -21.5999  -46.5167 C.3       11 UNK         0.1400 
     19 N           0.0089  -21.9799  -45.1442 N.am      11 UNK        -0.5000 
     20 C          -0.1819  -23.2447  -44.7418 C.2       10 UNK         0.5000 
     21 O          -0.0593  -24.2188  -45.4842 O.2       10 UNK        -0.5000 
     22 CA         -0.6249  -23.4564  -43.2798 C.3       10 UNK         0.1400 
     23 CB          0.5989  -23.5905  -42.3619 C.3       10 UNK        -0.1800 
     24 N          -1.4850  -22.3828  -42.7791 N.am      10 UNK        -0.5000 
     25 C          -2.6848  -22.0670  -43.2859 C.2       9 UNK         0.5000 
     26 O          -3.2302  -22.7090  -44.1815 O.2       9 UNK        -0.5000 
     27 CA         -3.3702  -20.7955  -42.7496 C.3       9 UNK         0.1400 
     28 CB         -4.4338  -21.1626  -41.7046 C.3       9 UNK        -0.1800 
     29 N          -2.4528  -19.8061  -42.1744 N.am      9 UNK        -0.5000 
     30 C          -1.4509  -19.1962  -42.8232 C.2       8 UNK         0.5000 
     31 O          -1.1297  -19.4504  -43.9877 O.2       8 UNK        -0.5000 
     32 CA         -0.6330  -18.1945  -41.9879 C.3       8 UNK         0.1400 
     33 CB          0.4672  -18.9366  -41.2139 C.3       8 UNK        -0.1800 
     34 N          -0.0206  -17.1371  -42.7923 N.am      8 UNK        -0.5000 
     35 C          -0.6967  -16.1882  -43.4595 C.2       7 UNK         0.5000 
     36 O          -1.9256  -16.1000  -43.4532 O.2       7 UNK        -0.5000 
     37 CA          0.1231  -15.1289  -44.2291 C.3       7 UNK         0.1400 
     38 CB          0.1525  -13.8193  -43.4292 C.3       7 UNK        -0.1800 
     39 N           1.5020  -15.5383  -44.4974 N.am      7 UNK        -0.5000 
     40 C           1.8528  -16.5062  -45.3562 C.2       6 UNK         0.5000 
     41 O           1.0543  -17.0306  -46.1293 O.2       6 UNK        -0.5000 
     42 CA          3.3204  -16.9943  -45.3390 C.3       6 UNK         0.1400 
     43 CB          4.0355  -16.6339  -46.6469 C.3       6 UNK        -0.1800 
     44 N           4.1194  -16.4827  -44.2237 N.am      6 UNK        -0.5000 
     45 C           3.9105  -16.7313  -42.9237 C.2       5 UNK         0.5000 
     46 O           3.0477  -17.5053  -42.5121 O.2       5 UNK        -0.5000 
     47 CA          4.7601  -15.9281  -41.9160 C.3       5 UNK         0.1400 
     48 CB          5.9209  -16.7859  -41.3907 C.3       5 UNK        -0.1800 
     49 N           5.2977  -14.6683  -42.4495 N.am      5 UNK        -0.5000 
     50 C           4.5658  -13.6500  -42.9243 C.2       4 UNK         0.5000 
     51 O           3.3342  -13.6658  -42.9806 O.2       4 UNK        -0.5000 
     52 CA          5.3554  -12.4632  -43.5056 C.3       4 UNK         0.1400 
     53 CB          5.9210  -12.8333  -44.8873 C.3       4 UNK        -0.1800 
     54 N           4.5299  -11.2652  -43.6496 N.am      4 UNK        -0.5000 
     55 C           4.1155  -10.4881  -42.6388 C.2       3 UNK         0.5000 
     56 O           4.4263  -10.6748  -41.4614 O.2       3 UNK        -0.5000 
     57 CA          3.2113   -9.2961  -43.0024 C.3       3 UNK         0.1400 
     58 CB          4.0637   -8.0871  -43.4190 C.3       3 UNK        -0.1800 
     59 N           2.2956   -9.6292  -44.0933 N.am      3 UNK        -0.5000 
     60 C           1.0459  -10.0904  -43.9282 C.2       2 UNK         0.5000 
     61 O           0.4944  -10.1993  -42.8330 O.2       2 UNK        -0.5000 
     62 CA          0.2983  -10.5385  -45.1957 C.3       2 UNK         0.1400 
     63 CB         -0.3731   -9.3498  -45.9014 C.3       2 UNK        -0.1800 
     64 N           1.2349  -11.1914  -46.1015 N.am      2 UNK        -0.5000 
     65 C           1.0200  -12.2443  -46.8894 C.2       1 UNK         0.5000 
     66 O          -0.0818  -12.7764  -47.0296 O.2       1 UNK        -0.5000 
     67 C          -0.8771  -21.7267  -47.4425 C.2       11 UNK         0.5000 
     68 O          -0.7362  -22.1698  -48.5813 O.2       11 UNK        -0.5000 
     69 N          -2.0693  -21.3853  -46.9299 N.am      12 UNK        -0.5000 
     70 CA         -3.3414  -21.5815  -47.6288 C.3       12 UNK         0.1400 
     71 CB         -4.4669  -20.8349  -46.8992 C.3       12 UNK        -0.1800 
     72 C          -3.6817  -23.0735  -47.7944 C.2       12 UNK         0.5000 
     73 O          -4.1343  -23.4752  -48.8657 O.2       12 UNK        -0.5000 
     74 N          -3.4087  -23.8810  -46.7595 N.am      13 UNK        -0.5000 
     75 CA         -3.5244  -25.3407  -46.7802 C.3       13 UNK         0.1400 
     76 CB         -3.2637  -25.9065  -45.3772 C.3       13 UNK        -0.1800 
     77 C          -2.5957  -25.9928  -47.8213 C.2       13 UNK         0.5000 
     78 O          -3.0323  -26.8966  -48.5342 O.2       13 UNK        -0.5000 
     79 N          -1.3625  -25.4780  -47.9436 N.am      14 UNK        -0.5000 
     80 CA         -0.3955  -25.8630  -48.9773 C.3       14 UNK         0.1400 
     81 CB          0.9740  -25.2435  -48.6603 C.3       14 UNK        -0.1800 
     82 C          -0.8492  -25.4991  -50.4077 C.2       14 UNK         0.5000 
     83 O          -0.4717  -26.1897  -51.3539 O.2       14 UNK        -0.5000 
     84 N          -1.6984  -24.4701  -50.5368 N.am      15 UNK        -0.5000 
     85 CA         -2.3966  -24.0783  -51.7637 C.3       15 UNK         0.1400 
     86 CB         -2.5913  -22.5511  -51.7691 C.3       15 UNK        -0.1800 
     87 C          -3.7335  -24.8339  -51.9482 C.2       15 UNK         0.5000 
     88 O          -4.6374  -24.3205  -52.6114 O.2       15 UNK        -0.5000 
     89 N          -3.8458  -26.0356  -51.3631 N.am      16 UNK        -0.5000 
     90 CA         -4.9870  -26.9556  -51.4138 C.3       16 UNK         0.1400 
     91 CB         -5.2184  -27.4602  -52.8544 C.3       16 UNK        -0.1800 
     92 C          -6.2557  -26.3740  -50.7575 C.2       16 UNK         0.5000 
     93 O          -7.3573  -26.5557  -51.2756 O.2       16 UNK        -0.5000 
     94 N          -6.0619  -25.6757  -49.6290 N.am      17 UNK        -0.5000 
     95 CA         -7.0604  -24.9002  -48.8824 C.3       17 UNK         0.1400 
     96 CB         -8.1867  -25.7996  -48.3311 C.3       17 UNK        -0.1800 
     97 C          -7.5670  -23.7007  -49.7084 C.2       17 UNK         0.5000 
     98 O          -8.7737  -23.4700  -49.8037 O.2       17 UNK        -0.5000 
     99 N          -6.6044  -22.9735  -50.2943 N.am      18 UNK        -0.5000 
    100 CA        -6.7591  -21.8249  -51.1892 C.3       18 UNK         0.1400 
    101 CB        -7.2683  -20.5952  -50.4093 C.3       18 UNK        -0.1800 
    102 C         -7.6070  -22.1527  -52.4376 C.2       18 UNK         0.5000 
    103 O         -8.5725  -21.4460  -52.7374 O.2       18 UNK        -0.5000 
    104 N         -7.2364  -23.2392  -53.1266 N.am      19 UNK        -0.5000 
    105 CA        -7.8870  -23.7169  -54.3476 C.3       19 UNK         0.1400 
    106 CB        -8.5278  -25.0874  -54.0838 C.3       19 UNK        -0.1800 
    107 C         -6.9032  -23.8004  -55.5256 C.2       19 UNK         0.5000 
    108 O         -7.3060  -23.5390  -56.6599 O.2       19 UNK        -0.5000 
    109 N         -5.6366  -24.1477  -55.2551 N.am      20 UNK        -0.5000 
    110 CA        -4.5684  -24.2089  -56.2576 C.3       20 UNK         0.1400 
    111 CB        -3.4984  -25.2069  -55.7875 C.3       20 UNK        -0.1800 
    112 C         -3.9364  -22.8281  -56.5199 C.2       20 UNK         0.5000 
    113 O         -3.3309  -22.6225  -57.5724 O.2       20 UNK        -0.5000 
    114 N         -4.0932  -21.9140  -55.5591 N.am      21 UNK        -0.5000 
    115 CA        -3.6310  -20.5329  -55.5525 C.3       21 UNK         0.1400 
    116 CB        -2.1071  -20.4839  -55.3160 C.3       21 UNK        -0.1800 
    117 C         -4.4082  -19.7988  -54.4464 C.2       21 UNK         0.5000 
    118 O         -5.2655  -20.4069  -53.8014 O.2       21 UNK        -0.5000 
    119 N         -4.0847  -18.5194  -54.2265 N.am      22 UNK        -0.5000 
    120 CA        -4.5919  -17.6851  -53.1164 C.3       22 UNK         0.1400 
    121 C         -6.0765  -17.2289  -53.2603 C.2       22 UNK         0.5000 
    122 N         -6.7074  -17.3805  -54.4181 N.am      22 UNK        -0.7600 
    123 O         -6.6591  -16.6962  -52.3196 O.2       22 UNK        -0.5000 
    124 C124       -4.2984  -18.2812  -51.7056 C.3       23 UNK        -0.0398 
    125 S125       -2.5592  -18.7909  -51.4945 S.3       23 UNK        -0.2404 
    126 C126       -1.9432  -17.5580  -50.3085 C.3       23 UNK        -0.0205 
    127 H127        4.4776  -10.0650  -49.6029 H         1 UNK         0.0600 
    128 H128        5.7086   -9.9700  -48.3398 H         1 UNK         0.0600 
    129 H129        4.3555   -8.8339  -48.3415 H         1 UNK         0.0600 
    130 H130        3.0455  -11.7199  -49.2781 H         1 UNK         0.3000 
    131 H131        2.8918  -13.2400  -46.8711 H         1 UNK         0.0600 
    132 H132        1.2193  -13.5213  -49.4104 H         1 UNK         0.0800 
    133 H133        1.3884  -14.7207  -48.1474 H         1 UNK         0.0800 
    134 H134        3.4287  -15.8225  -51.5435 H         1 UNK         0.0800 
    135 H135        2.0565  -14.7474  -51.4901 H         1 UNK         0.0800 
    136 H136       -0.0899  -15.6385  -50.9083 H         1 UNK         0.1150 
    137 H137       -0.4437  -19.6529  -49.4631 H         1 UNK         0.1150 
    138 H138        3.4324  -17.8882  -49.9497 H         1 UNK         0.1150 
    139 H139        1.5578  -21.0544  -49.3923 H         1 UNK         0.0800 
    140 H140        3.1207  -20.3785  -49.7478 H         1 UNK         0.0800 
    141 H141        0.3484  -19.4531  -47.0713 H         1 UNK         0.0800 
    142 H142        1.1596  -19.7921  -45.5915 H         1 UNK         0.0800 
    143 H143        1.0781  -22.3332  -46.8729 H         1 UNK         0.0600 
    144 H144       -0.1785  -21.2194  -44.5003 H         1 UNK         0.3000 
    145 H145       -1.1913  -24.3887  -43.2352 H         1 UNK         0.0600 
    146 H146        0.3015  -23.8202  -41.3386 H         1 UNK         0.0600 
    147 H147        1.1908  -22.6743  -42.3428 H         1 UNK         0.0600 
    148 H148        1.2522  -24.3969  -42.6981 H         1 UNK         0.0600 
    149 H149       -1.1119  -21.8068  -42.0396 H         1 UNK         0.3000 
    150 H150       -3.8722  -20.3211  -43.5951 H         1 UNK         0.0600 
    151 H151       -3.9873  -21.6132  -40.8172 H         1 UNK         0.0600 
    152 H152       -5.1506  -21.8779  -42.1106 H         1 UNK         0.0600 
    153 H153       -4.9979  -20.2847  -41.3893 H         1 UNK         0.0600 
    154 H154       -2.6270  -19.5543  -41.2119 H         1 UNK         0.3000 
    155 H155       -1.3012  -17.7165  -41.2687 H         1 UNK         0.0600 
    156 H156        0.0440  -19.6939  -40.5528 H         1 UNK         0.0600 
    157 H157        1.0434  -18.2513  -40.5919 H         1 UNK         0.0600 
    158 H158        1.1614  -19.4405  -41.8880 H         1 UNK         0.0600 
    159 H159        0.9907  -17.1533  -42.8547 H         1 UNK         0.3000 
    160 H160       -0.3732  -14.9435  -45.1839 H         1 UNK         0.0600 
    161 H161        0.5433  -13.9712  -42.4222 H         1 UNK         0.0600 
    162 H162       -0.8465  -13.3922  -43.3357 H         1 UNK         0.0600 
    163 H163        0.7844  -13.0787  -43.9148 H         1 UNK         0.0600 
    164 H164        2.2150  -15.1084  -43.9175 H         1 UNK         0.3000 
    165 H165        3.2901  -18.0820  -45.2537 H         1 UNK         0.0600 
    166 H166        5.0233  -17.0917  -46.6973 H         1 UNK         0.0600 
    167 H167        3.4719  -16.9895  -47.5095 H         1 UNK         0.0600 
    168 H168        4.1574  -15.5556  -46.7510 H         1 UNK         0.0600 
    169 H169        4.8504  -15.8300  -44.4621 H         1 UNK         0.3000 
    170 H170        4.1100  -15.6785  -41.0750 H         1 UNK         0.0600 
    171 H171        6.6225  -17.0432  -42.1852 H         1 UNK         0.0600 
    172 H172        6.4738  -16.2662  -40.6079 H         1 UNK         0.0600 
    173 H173        5.5541  -17.7194  -40.9615 H         1 UNK         0.0600 
    174 H174        6.3043  -14.5843  -42.4536 H         1 UNK         0.3000 
    175 H175        6.1851  -12.2342  -42.8336 H         1 UNK         0.0600 
    176 H176        5.1301  -13.1153  -45.5836 H         1 UNK         0.0600 
    177 H177        6.4676  -11.9983  -45.3261 H         1 UNK         0.0600 
    178 H178        6.6142  -13.6724  -44.8209 H         1 UNK         0.0600 
    179 H179        4.2390  -11.0421  -44.5959 H         1 UNK         0.3000 
    180 H180        2.6449   -9.0182  -42.1109 H         1 UNK         0.0600 
    181 H181        3.4387   -7.2188  -43.6282 H         1 UNK         0.0600 
    182 H182        4.6549   -8.2977  -44.3114 H         1 UNK         0.0600 
    183 H183        4.7560   -7.8052  -42.6246 H         1 UNK         0.0600 
    184 H184        2.6808   -9.5565  -45.0244 H         1 UNK         0.3000 
    185 H185       -0.4747  -11.2487  -44.8955 H         1 UNK         0.0600 
    186 H186        0.3590   -8.6143  -46.2370 H         1 UNK         0.0600 
    187 H187       -0.9395   -9.6796  -46.7725 H         1 UNK         0.0600 
    188 H188       -1.0694   -8.8422  -45.2328 H         1 UNK         0.0600 
    189 H189        2.1982  -10.8702  -46.0635 H         1 UNK         0.3000 
    190 H190       -2.1123  -21.0406  -45.9816 H         1 UNK         0.3000 
    191 H191       -3.2468  -21.1505  -48.6281 H         1 UNK         0.0600 
    192 H192       -4.2490  -19.7694  -46.8240 H         1 UNK         0.0600 
    193 H193       -5.4105  -20.9368  -47.4365 H         1 UNK         0.0600 
    194 H194       -4.6246  -21.2180  -45.8914 H         1 UNK         0.0600 
    195 H195       -3.1205  -23.4607  -45.8792 H         1 UNK         0.3000 
    196 H196       -4.5522  -25.5868  -47.0514 H         1 UNK         0.0600 
    197 H197       -3.9456  -25.4747  -44.6444 H         1 UNK         0.0600 
    198 H198       -2.2456  -25.7091  -45.0442 H         1 UNK         0.0600 
    199 H199       -3.4092  -26.9872  -45.3606 H         1 UNK         0.0600 
    200 H200       -1.0621  -24.7710  -47.2823 H         1 UNK         0.3000 
    201 H201       -0.2889  -26.9490  -48.9375 H         1 UNK         0.0600 
    202 H202        1.3181  -25.5321  -47.6669 H         1 UNK         0.0600 
    203 H203        0.9475  -24.1554  -48.7024 H         1 UNK         0.0600 
    204 H204        1.7267  -25.5783  -49.3750 H         1 UNK         0.0600 
    205 H205       -1.9477  -23.9509  -49.7048 H         1 UNK         0.3000 
    206 H206       -1.7738  -24.3311  -52.6237 H         1 UNK         0.0600 
    207 H207       -1.6392  -22.0310  -51.6621 H         1 UNK         0.0600 
    208 H208       -3.2420  -22.2183  -50.9617 H         1 UNK         0.0600 
    209 H209       -3.0402  -22.2142  -52.7034 H         1 UNK         0.0600 
    210 H210       -3.0731  -26.3497  -50.7911 H         1 UNK         0.3000 
    211 H211       -4.7068  -27.8182  -50.8077 H         1 UNK         0.0600 
    212 H212       -5.5395  -26.6606  -53.5210 H         1 UNK         0.0600 
    213 H213       -5.9867  -28.2337  -52.8796 H         1 UNK         0.0600 
    214 H214       -4.3090  -27.8944  -53.2694 H         1 UNK         0.0600 
    215 H215       -5.1041  -25.5436  -49.3318 H         1 UNK         0.3000 
    216 H216       -6.5425  -24.4760  -48.0216 H         1 UNK         0.0600 
    217 H217       -8.8387  -25.2363  -47.6626 H         1 UNK         0.0600 
    218 H218       -7.7803  -26.6346  -47.7605 H         1 UNK         0.0600 
    219 H219       -8.8129  -26.2075  -49.1247 H         1 UNK         0.0600 
    220 H220       -5.6461  -23.2512  -50.1057 H         1 UNK         0.3000 
    221 H221       -5.7564  -21.5930  -51.5484 H         1 UNK         0.0600 
    222 H222       -8.2664  -20.7579  -50.0017 H         1 UNK         0.0600 
    223 H223       -6.6023  -20.3507  -49.5823 H         1 UNK         0.0600 
    224 H224       -7.3180  -19.7177  -51.0553 H         1 UNK         0.0600 
    225 H225       -6.4118  -23.7445  -52.8143 H         1 UNK         0.3000 
    226 H226       -8.6810  -23.0304  -54.6480 H         1 UNK         0.0600 
    227 H227       -9.2312  -25.0402  -53.2521 H         1 UNK         0.0600 
    228 H228       -9.0776  -25.4361  -54.9587 H         1 UNK         0.0600 
    229 H229       -7.7797  -25.8428  -53.8450 H         1 UNK         0.0600 
    230 H230       -5.3563  -24.3213  -54.2935 H         1 UNK         0.3000 
    231 H231       -4.9798  -24.5740  -57.2010 H         1 UNK         0.0600 
    232 H232       -2.7274  -25.3366  -56.5479 H         1 UNK         0.0600 
    233 H233       -3.0038  -24.8688  -54.8771 H         1 UNK         0.0600 
    234 H234       -3.9305  -26.1883  -55.5917 H         1 UNK         0.0600 
    235 H235       -4.6657  -22.1427  -54.7549 H         1 UNK         0.3000 
    236 H236       -3.8753  -20.0694  -56.5100 H         1 UNK         0.0600 
    237 H237       -1.8384  -20.8901  -54.3404 H         1 UNK         0.0600 
    238 H238       -1.5663  -21.0517  -56.0729 H         1 UNK         0.0600 
    239 H239       -1.7310  -19.4616  -55.3587 H         1 UNK         0.0600 
    240 H240       -3.3809  -18.0867  -54.8067 H         1 UNK         0.3000 
    241 H241       -4.0219  -16.7580  -53.1847 H         1 UNK         0.0600 
    242 H242       -7.6635  -17.0744  -54.5070 H         1 UNK         0.3800 
    243 H243       -6.2427  -17.8115  -55.2008 H         1 UNK         0.3800 
    244 H244       -4.9244  -19.1539  -51.5217 H         1 UNK         0.0800 
    245 H245       -4.5562  -17.5632  -50.9256 H         1 UNK         0.0800 
    246 H246       -2.3965  -17.7326  -49.3317 H         1 UNK         0.0800 
    247 H247       -2.2525  -16.5620  -50.6291 H         1 UNK         0.0800 
@<TRIPOS>BOND
     1    1    2 1    
     2    1  127 1    
     3    1  128 1    
     4    1  129 1    
     5    2    3 2    
     6    2    4 am   BACKBONE|DICT|INTERRES
     7    4    5 1    
     8    4  130 1    
     9    5    6 1    
    10    5   65 1    
    11    5  131 1    
    12    6    7 1    
    13    6  132 1    
    14    6  133 1    
    15    7    8 1    
    16    8    9 1    
    17    8  134 1    
    18    8  135 1    
    19    9   10 ar   
    20    9   14 ar   
    21   10   11 ar   
    22   10  136 1    
    23   11   12 ar   
    24   11  126 1    
    25   12   13 ar   
    26   12  137 1    
    27   13   14 ar   
    28   13   15 1    
    29   14  138 1    
    30   15   16 1    
    31   15  139 1    
    32   15  140 1    
    33   16   17 1    
    34   17   18 1    
    35   17  141 1    
    36   17  142 1    
    37   18   19 1    
    38   18   67 1    
    39   18  143 1    
    40   19   20 am   BACKBONE|DICT|INTERRES
    41   19  144 1    
    42   20   21 2    
    43   20   22 1    
    44   22   23 1    
    45   22   24 1    
    46   22  145 1    
    47   23  146 1    
    48   23  147 1    
    49   23  148 1    
    50   24   25 am   BACKBONE|DICT|INTERRES
    51   24  149 1    
    52   25   26 2    
    53   25   27 1    
    54   27   28 1    
    55   27   29 1    
    56   27  150 1    
    57   28  151 1    
    58   28  152 1    
    59   28  153 1    
    60   29   30 am   BACKBONE|DICT|INTERRES
    61   29  154 1    
    62   30   31 2    
    63   30   32 1    
    64   32   33 1    
    65   32   34 1    
    66   32  155 1    
    67   33  156 1    
    68   33  157 1    
    69   33  158 1    
    70   34   35 am   BACKBONE|DICT|INTERRES
    71   34  159 1    
    72   35   36 2    
    73   35   37 1    
    74   37   38 1    
    75   37   39 1    
    76   37  160 1    
    77   38  161 1    
    78   38  162 1    
    79   38  163 1    
    80   39   40 am   BACKBONE|DICT|INTERRES
    81   39  164 1    
    82   40   41 2    
    83   40   42 1    
    84   42   43 1    
    85   42   44 1    
    86   42  165 1    
    87   43  166 1    
    88   43  167 1    
    89   43  168 1    
    90   44   45 am   BACKBONE|DICT|INTERRES
    91   44  169 1    
    92   45   46 2    
    93   45   47 1    
    94   47   48 1    
    95   47   49 1    
    96   47  170 1    
    97   48  171 1    
    98   48  172 1    
    99   48  173 1    
   100   49   50 am   BACKBONE|DICT|INTERRES
   101   49  174 1    
   102   50   51 2    
   103   50   52 1    
   104   52   53 1    
   105   52   54 1    
   106   52  175 1    
   107   53  176 1    
   108   53  177 1    
   109   53  178 1    
   110   54   55 am   BACKBONE|DICT|INTERRES
   111   54  179 1    
   112   55   56 2    
   113   55   57 1    
   114   57   58 1    
   115   57   59 1    
   116   57  180 1    
   117   58  181 1    
   118   58  182 1    
   119   58  183 1    
   120   59   60 am   BACKBONE|DICT|INTERRES
   121   59  184 1    
   122   60   61 2    
   123   60   62 1    
   124   62   63 1    
   125   62   64 1    
   126   62  185 1    
   127   63  186 1    
   128   63  187 1    
   129   63  188 1    
   130   64   65 am   BACKBONE|DICT|INTERRES
   131   64  189 1    
   132   65   66 2    
   133   67   68 2    
   134   67   69 am   BACKBONE|DICT|INTERRES
   135   69   70 1    
   136   69  190 1    
   137   70   71 1    
   138   70   72 1    
   139   70  191 1    
   140   71  192 1    
   141   71  193 1    
   142   71  194 1    
   143   72   73 2    
   144   72   74 am   BACKBONE|DICT|INTERRES
   145   74   75 1    
   146   74  195 1    
   147   75   76 1    
   148   75   77 1    
   149   75  196 1    
   150   76  197 1    
   151   76  198 1    
   152   76  199 1    
   153   77   78 2    
   154   77   79 am   BACKBONE|DICT|INTERRES
   155   79   80 1    
   156   79  200 1    
   157   80   81 1    
   158   80   82 1    
   159   80  201 1    
   160   81  202 1    
   161   81  203 1    
   162   81  204 1    
   163   82   83 2    
   164   82   84 am   BACKBONE|DICT|INTERRES
   165   84   85 1    
   166   84  205 1    
   167   85   86 1    
   168   85   87 1    
   169   85  206 1    
   170   86  207 1    
   171   86  208 1    
   172   86  209 1    
   173   87   88 2    
   174   87   89 am   BACKBONE|DICT|INTERRES
   175   89   90 1    
   176   89  210 1    
   177   90   91 1    
   178   90   92 1    
   179   90  211 1    
   180   91  212 1    
   181   91  213 1    
   182   91  214 1    
   183   92   93 2    
   184   92   94 am   BACKBONE|DICT|INTERRES
   185   94   95 1    
   186   94  215 1    
   187   95   96 1    
   188   95   97 1    
   189   95  216 1    
   190   96  217 1    
   191   96  218 1    
   192   96  219 1    
   193   97   98 2    
   194   97   99 am   BACKBONE|DICT|INTERRES
   195   99  100 1    
   196   99  220 1    
   197  100  101 1    
   198  100  102 1    
   199  100  221 1    
   200  101  222 1    
   201  101  223 1    
   202  101  224 1    
   203  102  103 2    
   204  102  104 am   BACKBONE|DICT|INTERRES
   205  104  105 1    
   206  104  225 1    
   207  105  106 1    
   208  105  107 1    
   209  105  226 1    
   210  106  227 1    
   211  106  228 1    
   212  106  229 1    
   213  107  108 2    
   214  107  109 am   BACKBONE|DICT|INTERRES
   215  109  110 1    
   216  109  230 1    
   217  110  111 1    
   218  110  112 1    
   219  110  231 1    
   220  111  232 1    
   221  111  233 1    
   222  111  234 1    
   223  112  113 2    
   224  112  114 am   BACKBONE|DICT|INTERRES
   225  114  115 1    
   226  114  235 1    
   227  115  116 1    
   228  115  117 1    
   229  115  236 1    
   230  116  237 1    
   231  116  238 1    
   232  116  239 1    
   233  117  118 2    
   234  117  119 am   BACKBONE|DICT|INTERRES
   235  119  120 1    
   236  119  240 1    
   237  120  121 1    
   238  120  124 1    
   239  120  241 1    
   240  121  122 am   BACKBONE|DICT|INTERRES
   241  121  123 2    
   242  122  242 1    
   243  122  243 1    
   244  124  125 1    
   245  124  244 1    
   246  124  245 1    
   247  125  126 1    
   248  126  246 1    
   249  126  247 1    
@<TRIPOS>SUBSTRUCTURE
     1 UNK         1 GROUP             0       ****    0 ROOT    
