@<TRIPOS>MOLECULE
3R540
247   249    1
SMALL
USER_CHARGES


@<TRIPOS>ATOM
      1 CA         -3.3486  -14.0772  -49.6595 C.3       0 UNK        -0.1800 
      2 C          -2.1922  -13.1878  -49.2249 C.2       0 UNK         0.5000 
      3 O          -2.2297  -11.9762  -49.4433 O.2       0 UNK        -0.5000 
      4 N          -1.1650  -13.7811  -48.6056 N.am      1 UNK        -0.5000 
      5 CA          0.0528  -13.1106  -48.1367 C.3       1 UNK         0.1400 
      6 C6          1.2738  -14.0708  -48.0722 C.3       23 UNK        -0.0398 
      7 S7          1.5877  -15.0068  -49.6094 S.3       23 UNK        -0.2404 
      8 C8          0.6201  -16.5173  -49.2885 C.3       23 UNK        -0.0205 
      9 C9          1.1375  -17.7075  -50.0753 C.ar      23 UNK        -0.0193 
     10 C10         0.8336  -17.8384  -51.4322 C.ar      23 UNK        -0.1150 
     11 C11         1.2781  -18.9485  -52.1608 C.ar      23 UNK        -0.0193 
     12 C12         2.0466  -19.9213  -51.5113 C.ar      23 UNK        -0.1150 
     13 C13         2.3583  -19.8006  -50.1531 C.ar      23 UNK        -0.0193 
     14 C14         1.9012  -18.6902  -49.4404 C.ar      23 UNK        -0.1150 
     15 C15         3.2037  -20.8602  -49.4618 C.3       23 UNK        -0.0205 
     16 S16         2.2106  -22.2879  -48.9261 S.3       23 UNK        -0.2404 
     17 C17         1.3440  -21.6169  -47.4657 C.3       23 UNK        -0.0398 
     18 CA          0.6001  -22.7245  -46.6792 C.3       11 UNK         0.1400 
     19 N           0.3806  -22.3713  -45.2746 N.am      11 UNK        -0.5000 
     20 C          -0.0571  -23.2280  -44.3395 C.2       10 UNK         0.5000 
     21 O          -0.2858  -24.4184  -44.5558 O.2       10 UNK        -0.5000 
     22 CA         -0.3332  -22.6503  -42.9395 C.3       10 UNK         0.1400 
     23 CB          0.9730  -22.4517  -42.1567 C.3       10 UNK        -0.1800 
     24 N          -1.0810  -21.3933  -42.9889 N.am      10 UNK        -0.5000 
     25 C          -2.3255  -21.2765  -43.4750 C.2       9 UNK         0.5000 
     26 O          -2.9891  -22.2256  -43.8919 O.2       9 UNK        -0.5000 
     27 CA         -2.9140  -19.8571  -43.5505 C.3       9 UNK         0.1400 
     28 CB         -3.4580  -19.4190  -42.1828 C.3       9 UNK        -0.1800 
     29 N          -1.9523  -18.8686  -44.0370 N.am      9 UNK        -0.5000 
     30 C          -1.3717  -18.8930  -45.2455 C.2       8 UNK         0.5000 
     31 O          -1.5984  -19.7439  -46.1032 O.2       8 UNK        -0.5000 
     32 CA         -0.3092  -17.8175  -45.5198 C.3       8 UNK         0.1400 
     33 CB         -0.9692  -16.4519  -45.7706 C.3       8 UNK        -0.1800 
     34 N           0.6586  -17.7158  -44.4283 N.am      8 UNK        -0.5000 
     35 C           1.4585  -18.7136  -44.0230 C.2       7 UNK         0.5000 
     36 O           1.5182  -19.8121  -44.5747 O.2       7 UNK        -0.5000 
     37 CA          2.2908  -18.4597  -42.7561 C.3       7 UNK         0.1400 
     38 CB          3.6159  -17.7628  -43.0993 C.3       7 UNK        -0.1800 
     39 N           1.5482  -17.6664  -41.7767 N.am      7 UNK        -0.5000 
     40 C           0.5190  -18.1326  -41.0551 C.2       6 UNK         0.5000 
     41 O           0.1218  -19.2971  -41.1062 O.2       6 UNK        -0.5000 
     42 CA         -0.2132  -17.1151  -40.1593 C.3       6 UNK         0.1400 
     43 CB          0.5362  -16.9214  -38.8327 C.3       6 UNK        -0.1800 
     44 N          -0.3921  -15.8159  -40.8116 N.am      6 UNK        -0.5000 
     45 C          -1.1819  -15.6117  -41.8750 C.2       5 UNK         0.5000 
     46 O          -1.8779  -16.4912  -42.3809 O.2       5 UNK        -0.5000 
     47 CA         -1.1648  -14.2065  -42.5096 C.3       5 UNK         0.1400 
     48 CB         -2.2516  -13.3202  -41.8847 C.3       5 UNK        -0.1800 
     49 N           0.1233  -13.5090  -42.4414 N.am      5 UNK        -0.5000 
     50 C           1.2894  -13.9777  -42.9087 C.2       4 UNK         0.5000 
     51 O           1.4378  -15.1171  -43.3524 O.2       4 UNK        -0.5000 
     52 CA          2.4590  -12.9824  -42.9136 C.3       4 UNK         0.1400 
     53 CB          3.7514  -13.5663  -43.5138 C.3       4 UNK        -0.1800 
     54 N           2.0516  -11.8082  -43.6771 N.am      4 UNK        -0.5000 
     55 C           2.3537  -10.5379  -43.3830 C.2       3 UNK         0.5000 
     56 O           3.0563  -10.2107  -42.4256 O.2       3 UNK        -0.5000 
     57 CA          1.7791   -9.4387  -44.3041 C.3       3 UNK         0.1400 
     58 CB          2.8636   -8.9255  -45.2642 C.3       3 UNK        -0.1800 
     59 N           0.6213   -9.8690  -45.0921 N.am      3 UNK        -0.5000 
     60 C          -0.5829  -10.1761  -44.5907 C.2       2 UNK         0.5000 
     61 O          -0.8758  -10.0528  -43.4010 O.2       2 UNK        -0.5000 
     62 CA         -1.6276  -10.7506  -45.5709 C.3       2 UNK         0.1400 
     63 CB         -2.6015   -9.6514  -46.0206 C.3       2 UNK        -0.1800 
     64 N          -1.0841  -11.4172  -46.7625 N.am      2 UNK        -0.5000 
     65 C          -0.2224  -12.4434  -46.7712 C.2       1 UNK         0.5000 
     66 O           0.3108  -12.8823  -45.7530 O.2       1 UNK        -0.5000 
     67 C          -0.7145  -23.1364  -47.3712 C.2       11 UNK         0.5000 
     68 O          -0.7481  -24.1756  -48.0289 O.2       11 UNK        -0.5000 
     69 N          -1.7824  -22.3500  -47.1716 N.am      12 UNK        -0.5000 
     70 CA         -3.1272  -22.6108  -47.6860 C.3       12 UNK         0.1400 
     71 CB         -4.0574  -21.4480  -47.3137 C.3       12 UNK        -0.1800 
     72 C          -3.7080  -23.9505  -47.2055 C.2       12 UNK         0.5000 
     73 O          -4.2697  -24.6853  -48.0151 O.2       12 UNK        -0.5000 
     74 N          -3.5281  -24.2664  -45.9163 N.am      13 UNK        -0.5000 
     75 CA         -3.9295  -25.5409  -45.3216 C.3       13 UNK         0.1400 
     76 CB         -3.7903  -25.4575  -43.7939 C.3       13 UNK        -0.1800 
     77 C          -3.1371  -26.7412  -45.8748 C.2       13 UNK         0.5000 
     78 O          -3.7196  -27.8068  -46.0801 O.2       13 UNK        -0.5000 
     79 N          -1.8306  -26.5511  -46.1003 N.am      14 UNK        -0.5000 
     80 CA         -0.9206  -27.5826  -46.5915 C.3       14 UNK         0.1400 
     81 CB          0.5265  -27.1826  -46.2610 C.3       14 UNK        -0.1800 
     82 C          -1.0768  -27.8619  -48.0971 C.2       14 UNK         0.5000 
     83 O          -1.2140  -29.0223  -48.4873 O.2       14 UNK        -0.5000 
     84 N          -1.0130  -26.8048  -48.9160 N.am      15 UNK        -0.5000 
     85 CA         -0.8990  -26.8993  -50.3729 C.3       15 UNK         0.1400 
     86 CB          0.0483  -25.7921  -50.8626 C.3       15 UNK        -0.1800 
     87 C          -2.2447  -26.8068  -51.1112 C.2       15 UNK         0.5000 
     88 O          -2.2836  -27.1159  -52.3032 O.2       15 UNK        -0.5000 
     89 N          -3.3075  -26.3574  -50.4267 N.am      16 UNK        -0.5000 
     90 CA         -4.6731  -26.1097  -50.9156 C.3       16 UNK         0.1400 
     91 CB         -5.3192  -27.3829  -51.4965 C.3       16 UNK        -0.1800 
     92 C          -4.7754  -24.9233  -51.8948 C.2       16 UNK         0.5000 
     93 O          -5.5568  -24.0025  -51.6562 O.2       16 UNK        -0.5000 
     94 N          -3.9722  -24.9472  -52.9661 N.am      17 UNK        -0.5000 
     95 CA         -3.9159  -23.9225  -54.0116 C.3       17 UNK         0.1400 
     96 CB         -3.0586  -24.4372  -55.1770 C.3       17 UNK        -0.1800 
     97 C          -3.3792  -22.5686  -53.5146 C.2       17 UNK         0.5000 
     98 O          -3.7551  -21.5324  -54.0591 O.2       17 UNK        -0.5000 
     99 N          -2.5383  -22.5939  -52.4718 N.am      18 UNK        -0.5000 
    100 CA        -1.9223  -21.4245  -51.8368 C.3       18 UNK         0.1400 
    101 CB        -0.8066  -21.9055  -50.9022 C.3       18 UNK        -0.1800 
    102 C         -2.9039  -20.4911  -51.0954 C.2       18 UNK         0.5000 
    103 O         -2.4840  -19.4421  -50.6050 O.2       18 UNK        -0.5000 
    104 N         -4.1930  -20.8553  -51.0404 N.am      19 UNK        -0.5000 
    105 CA        -5.3071  -20.0316  -50.5707 C.3       19 UNK         0.1400 
    106 CB        -6.5294  -20.9433  -50.3613 C.3       19 UNK        -0.1800 
    107 C         -5.6036  -18.8636  -51.5397 C.2       19 UNK         0.5000 
    108 O         -6.6621  -18.8281  -52.1683 O.2       19 UNK        -0.5000 
    109 N         -4.6312  -17.9524  -51.6725 N.am      20 UNK        -0.5000 
    110 CA        -4.5853  -16.7281  -52.4824 C.3       20 UNK         0.1400 
    111 CB        -5.7102  -15.7570  -52.0754 C.3       20 UNK        -0.1800 
    112 C         -4.5574  -16.9311  -54.0129 C.2       20 UNK         0.5000 
    113 O         -4.0574  -16.0493  -54.7125 O.2       20 UNK        -0.5000 
    114 N         -5.0873  -18.0539  -54.5154 N.am      21 UNK        -0.5000 
    115 CA        -5.1457  -18.3933  -55.9376 C.3       21 UNK         0.1400 
    116 CB        -6.0868  -19.5922  -56.1407 C.3       21 UNK        -0.1800 
    117 C         -3.7532  -18.6641  -56.5348 C.2       21 UNK         0.5000 
    118 O         -3.3743  -18.0195  -57.5136 O.2       21 UNK        -0.5000 
    119 N         -3.0210  -19.6011  -55.9192 N.am      22 UNK        -0.5000 
    120 CA        -1.6408  -20.0010  -56.2465 C.3       22 UNK         0.1400 
    121 C         -1.4589  -20.6577  -57.6501 C.2       22 UNK         0.5000 
    122 N         -2.5102  -21.1685  -58.2796 N.am      22 UNK        -0.7600 
    123 O         -0.3475  -20.7414  -58.1659 O.2       22 UNK        -0.5000 
    124 C124       -0.6104  -18.8744  -55.9571 C.3       23 UNK        -0.0398 
    125 S125       -0.6068  -18.3920  -54.1951 S.3       23 UNK        -0.2404 
    126 C126        0.9841  -19.1062  -53.6520 C.3       23 UNK        -0.0205 
    127 H127       -3.1582  -15.1288  -49.4426 H         1 UNK         0.0600 
    128 H128       -3.5127  -13.9768  -50.7324 H         1 UNK         0.0600 
    129 H129       -4.2633  -13.7827  -49.1450 H         1 UNK         0.0600 
    130 H130       -1.2099  -14.7710  -48.4233 H         1 UNK         0.3000 
    131 H131        0.3059  -12.3158  -48.8418 H         1 UNK         0.0600 
    132 H132        2.1744  -13.4928  -47.8584 H         1 UNK         0.0800 
    133 H133        1.1899  -14.7771  -47.2475 H         1 UNK         0.0800 
    134 H134       -0.4256  -16.3453  -49.5453 H         1 UNK         0.0800 
    135 H135        0.6442  -16.7503  -48.2257 H         1 UNK         0.0800 
    136 H136        0.2510  -17.0671  -51.9149 H         1 UNK         0.1150 
    137 H137        2.4049  -20.7794  -52.0626 H         1 UNK         0.1150 
    138 H138        2.1397  -18.5925  -48.3905 H         1 UNK         0.1150 
    139 H139        3.9753  -21.2104  -50.1488 H         1 UNK         0.0800 
    140 H140        3.7318  -20.4361  -48.6064 H         1 UNK         0.0800 
    141 H141        0.6680  -20.8143  -47.7667 H         1 UNK         0.0800 
    142 H142        2.0990  -21.1554  -46.8282 H         1 UNK         0.0800 
    143 H143        1.2423  -23.6082  -46.6642 H         1 UNK         0.0600 
    144 H144        0.5786  -21.4099  -45.0091 H         1 UNK         0.3000 
    145 H145       -0.9431  -23.3760  -42.3974 H         1 UNK         0.0600 
    146 H146        0.7759  -22.1020  -41.1432 H         1 UNK         0.0600 
    147 H147        1.5248  -23.3891  -42.0762 H         1 UNK         0.0600 
    148 H148        1.6280  -21.7267  -42.6391 H         1 UNK         0.0600 
    149 H149       -0.6166  -20.5690  -42.6246 H         1 UNK         0.3000 
    150 H150       -3.7478  -19.8804  -44.2546 H         1 UNK         0.0600 
    151 H151       -4.1849  -20.1377  -41.8021 H         1 UNK         0.0600 
    152 H152       -3.9597  -18.4535  -42.2501 H         1 UNK         0.0600 
    153 H153       -2.6627  -19.3304  -41.4420 H         1 UNK         0.0600 
    154 H154       -1.7364  -18.1013  -43.4060 H         1 UNK         0.3000 
    155 H155        0.2436  -18.1108  -46.4134 H         1 UNK         0.0600 
    156 H156       -1.7145  -16.2132  -45.0130 H         1 UNK         0.0600 
    157 H157       -0.2373  -15.6467  -45.7683 H         1 UNK         0.0600 
    158 H158       -1.4786  -16.4407  -46.7342 H         1 UNK         0.0600 
    159 H159        0.7257  -16.8232  -43.9479 H         1 UNK         0.3000 
    160 H160        2.5255  -19.4270  -42.3074 H         1 UNK         0.0600 
    161 H161        4.2138  -18.3794  -43.7715 H         1 UNK         0.0600 
    162 H162        3.4563  -16.8048  -43.5939 H         1 UNK         0.0600 
    163 H163        4.2123  -17.5844  -42.2045 H         1 UNK         0.0600 
    164 H164        1.7526  -16.6769  -41.7527 H         1 UNK         0.3000 
    165 H165       -1.2017  -17.5220  -39.9352 H         1 UNK         0.0600 
    166 H166       -0.0159  -16.2641  -38.1607 H         1 UNK         0.0600 
    167 H167        0.6691  -17.8737  -38.3177 H         1 UNK         0.0600 
    168 H168        1.5262  -16.4902  -38.9866 H         1 UNK         0.0600 
    169 H169        0.1495  -15.0417  -40.4568 H         1 UNK         0.3000 
    170 H170       -1.3999  -14.3274  -43.5684 H         1 UNK         0.0600 
    171 H171       -3.2298  -13.7995  -41.9444 H         1 UNK         0.0600 
    172 H172       -2.0484  -13.1166  -40.8327 H         1 UNK         0.0600 
    173 H173       -2.3282  -12.3643  -42.4033 H         1 UNK         0.0600 
    174 H174        0.0932  -12.5519  -42.1198 H         1 UNK         0.3000 
    175 H175        2.6489  -12.7101  -41.8735 H         1 UNK         0.0600 
    176 H176        3.6069  -13.8783  -44.5491 H         1 UNK         0.0600 
    177 H177        4.5602  -12.8359  -43.4939 H         1 UNK         0.0600 
    178 H178        4.0861  -14.4368  -42.9488 H         1 UNK         0.0600 
    179 H179        1.4356  -12.0055  -44.4628 H         1 UNK         0.3000 
    180 H180        1.4653   -8.6097  -43.6664 H         1 UNK         0.0600 
    181 H181        3.2064   -9.7105  -45.9394 H         1 UNK         0.0600 
    182 H182        3.7331   -8.5626  -44.7145 H         1 UNK         0.0600 
    183 H183        2.4955   -8.0970  -45.8697 H         1 UNK         0.0600 
    184 H184        0.7708  -10.0026  -46.0811 H         1 UNK         0.3000 
    185 H185       -2.1959  -11.5019  -45.0188 H         1 UNK         0.0600 
    186 H186       -3.4128  -10.0639  -46.6209 H         1 UNK         0.0600 
    187 H187       -3.0552   -9.1532  -45.1626 H         1 UNK         0.0600 
    188 H188       -2.0975   -8.8886  -46.6154 H         1 UNK         0.0600 
    189 H189       -1.5055  -11.1647  -47.6499 H         1 UNK         0.3000 
    190 H190       -1.6683  -21.4890  -46.6397 H         1 UNK         0.3000 
    191 H191       -3.0650  -22.6560  -48.7741 H         1 UNK         0.0600 
    192 H192       -4.1168  -21.3105  -46.2345 H         1 UNK         0.0600 
    193 H193       -5.0703  -21.6228  -47.6753 H         1 UNK         0.0600 
    194 H194       -3.7089  -20.5124  -47.7511 H         1 UNK         0.0600 
    195 H195       -3.1000  -23.5856  -45.2950 H         1 UNK         0.3000 
    196 H196       -4.9833  -25.7035  -45.5570 H         1 UNK         0.0600 
    197 H197       -4.0927  -26.3927  -43.3211 H         1 UNK         0.0600 
    198 H198       -4.4195  -24.6672  -43.3842 H         1 UNK         0.0600 
    199 H199       -2.7617  -25.2538  -43.4943 H         1 UNK         0.0600 
    200 H200       -1.4204  -25.6522  -45.8723 H         1 UNK         0.3000 
    201 H201       -1.1354  -28.5115  -46.0586 H         1 UNK         0.0600 
    202 H202        0.6700  -27.0832  -45.1849 H         1 UNK         0.0600 
    203 H203        0.7991  -26.2321  -46.7213 H         1 UNK         0.0600 
    204 H204        1.2322  -27.9349  -46.6153 H         1 UNK         0.0600 
    205 H205       -0.9142  -25.8713  -48.5159 H         1 UNK         0.3000 
    206 H206       -0.4506  -27.8578  -50.6427 H         1 UNK         0.0600 
    207 H207        1.0249  -25.8677  -50.3839 H         1 UNK         0.0600 
    208 H208        0.2085  -25.8569  -51.9395 H         1 UNK         0.0600 
    209 H209       -0.3497  -24.8013  -50.6493 H         1 UNK         0.0600 
    210 H210       -3.1606  -26.0961  -49.4594 H         1 UNK         0.3000 
    211 H211       -5.2625  -25.8393  -50.0399 H         1 UNK         0.0600 
    212 H212       -4.8295  -27.7179  -52.4108 H         1 UNK         0.0600 
    213 H213       -6.3677  -27.2064  -51.7391 H         1 UNK         0.0600 
    214 H214       -5.2858  -28.2024  -50.7786 H         1 UNK         0.0600 
    215 H215       -3.3429  -25.7410  -53.0560 H         1 UNK         0.3000 
    216 H216       -4.9313  -23.7578  -54.3777 H         1 UNK         0.0600 
    217 H217       -3.0083  -23.7019  -55.9816 H         1 UNK         0.0600 
    218 H218       -3.4758  -25.3516  -55.5990 H         1 UNK         0.0600 
    219 H219       -2.0364  -24.6497  -54.8609 H         1 UNK         0.0600 
    220 H220       -2.3031  -23.4940  -52.0819 H         1 UNK         0.3000 
    221 H221       -1.4634  -20.8226  -52.6227 H         1 UNK         0.0600 
    222 H222       -1.1810  -22.6261  -50.1795 H         1 UNK         0.0600 
    223 H223        0.0009  -22.3785  -51.4611 H         1 UNK         0.0600 
    224 H224       -0.3695  -21.0777  -50.3426 H         1 UNK         0.0600 
    225 H225       -4.4520  -21.7261  -51.4835 H         1 UNK         0.3000 
    226 H226       -5.0388  -19.5975  -49.6059 H         1 UNK         0.0600 
    227 H227       -6.3089  -21.7549  -49.6685 H         1 UNK         0.0600 
    228 H228       -7.3702  -20.3829  -49.9509 H         1 UNK         0.0600 
    229 H229       -6.8592  -21.3946  -51.2982 H         1 UNK         0.0600 
    230 H230       -3.7674  -18.1651  -51.1785 H         1 UNK         0.3000 
    231 H231       -3.6367  -16.2536  -52.2261 H         1 UNK         0.0600 
    232 H232       -5.5932  -14.7949  -52.5757 H         1 UNK         0.0600 
    233 H233       -5.7008  -15.5679  -51.0021 H         1 UNK         0.0600 
    234 H234       -6.6953  -16.1422  -52.3399 H         1 UNK         0.0600 
    235 H235       -5.5296  -18.6945  -53.8675 H         1 UNK         0.3000 
    236 H236       -5.5732  -17.5402  -56.4686 H         1 UNK         0.0600 
    237 H237       -7.0990  -19.3552  -55.8126 H         1 UNK         0.0600 
    238 H238       -6.1438  -19.8703  -57.1938 H         1 UNK         0.0600 
    239 H239       -5.7553  -20.4700  -55.5854 H         1 UNK         0.0600 
    240 H240       -3.4356  -20.1170  -55.1456 H         1 UNK         0.3000 
    241 H241       -1.4144  -20.8144  -55.5563 H         1 UNK         0.0600 
    242 H242       -2.3873  -21.6010  -59.1817 H         1 UNK         0.3800 
    243 H243       -3.4279  -21.1152  -57.8682 H         1 UNK         0.3800 
    244 H244        0.3974  -19.1860  -56.2354 H         1 UNK         0.0800 
    245 H245       -0.8256  -17.9920  -56.5607 H         1 UNK         0.0800 
    246 H246        0.9892  -20.1650  -53.9162 H         1 UNK         0.0800 
    247 H247        1.7938  -18.6377  -54.2127 H         1 UNK         0.0800 
@<TRIPOS>BOND
     1    1    2 1    
     2    1  127 1    
     3    1  128 1    
     4    1  129 1    
     5    2    3 2    
     6    2    4 am   BACKBONE|DICT|INTERRES
     7    4    5 1    
     8    4  130 1    
     9    5    6 1    
    10    5   65 1    
    11    5  131 1    
    12    6    7 1    
    13    6  132 1    
    14    6  133 1    
    15    7    8 1    
    16    8    9 1    
    17    8  134 1    
    18    8  135 1    
    19    9   10 ar   
    20    9   14 ar   
    21   10   11 ar   
    22   10  136 1    
    23   11   12 ar   
    24   11  126 1    
    25   12   13 ar   
    26   12  137 1    
    27   13   14 ar   
    28   13   15 1    
    29   14  138 1    
    30   15   16 1    
    31   15  139 1    
    32   15  140 1    
    33   16   17 1    
    34   17   18 1    
    35   17  141 1    
    36   17  142 1    
    37   18   19 1    
    38   18   67 1    
    39   18  143 1    
    40   19   20 am   BACKBONE|DICT|INTERRES
    41   19  144 1    
    42   20   21 2    
    43   20   22 1    
    44   22   23 1    
    45   22   24 1    
    46   22  145 1    
    47   23  146 1    
    48   23  147 1    
    49   23  148 1    
    50   24   25 am   BACKBONE|DICT|INTERRES
    51   24  149 1    
    52   25   26 2    
    53   25   27 1    
    54   27   28 1    
    55   27   29 1    
    56   27  150 1    
    57   28  151 1    
    58   28  152 1    
    59   28  153 1    
    60   29   30 am   BACKBONE|DICT|INTERRES
    61   29  154 1    
    62   30   31 2    
    63   30   32 1    
    64   32   33 1    
    65   32   34 1    
    66   32  155 1    
    67   33  156 1    
    68   33  157 1    
    69   33  158 1    
    70   34   35 am   BACKBONE|DICT|INTERRES
    71   34  159 1    
    72   35   36 2    
    73   35   37 1    
    74   37   38 1    
    75   37   39 1    
    76   37  160 1    
    77   38  161 1    
    78   38  162 1    
    79   38  163 1    
    80   39   40 am   BACKBONE|DICT|INTERRES
    81   39  164 1    
    82   40   41 2    
    83   40   42 1    
    84   42   43 1    
    85   42   44 1    
    86   42  165 1    
    87   43  166 1    
    88   43  167 1    
    89   43  168 1    
    90   44   45 am   BACKBONE|DICT|INTERRES
    91   44  169 1    
    92   45   46 2    
    93   45   47 1    
    94   47   48 1    
    95   47   49 1    
    96   47  170 1    
    97   48  171 1    
    98   48  172 1    
    99   48  173 1    
   100   49   50 am   BACKBONE|DICT|INTERRES
   101   49  174 1    
   102   50   51 2    
   103   50   52 1    
   104   52   53 1    
   105   52   54 1    
   106   52  175 1    
   107   53  176 1    
   108   53  177 1    
   109   53  178 1    
   110   54   55 am   BACKBONE|DICT|INTERRES
   111   54  179 1    
   112   55   56 2    
   113   55   57 1    
   114   57   58 1    
   115   57   59 1    
   116   57  180 1    
   117   58  181 1    
   118   58  182 1    
   119   58  183 1    
   120   59   60 am   BACKBONE|DICT|INTERRES
   121   59  184 1    
   122   60   61 2    
   123   60   62 1    
   124   62   63 1    
   125   62   64 1    
   126   62  185 1    
   127   63  186 1    
   128   63  187 1    
   129   63  188 1    
   130   64   65 am   BACKBONE|DICT|INTERRES
   131   64  189 1    
   132   65   66 2    
   133   67   68 2    
   134   67   69 am   BACKBONE|DICT|INTERRES
   135   69   70 1    
   136   69  190 1    
   137   70   71 1    
   138   70   72 1    
   139   70  191 1    
   140   71  192 1    
   141   71  193 1    
   142   71  194 1    
   143   72   73 2    
   144   72   74 am   BACKBONE|DICT|INTERRES
   145   74   75 1    
   146   74  195 1    
   147   75   76 1    
   148   75   77 1    
   149   75  196 1    
   150   76  197 1    
   151   76  198 1    
   152   76  199 1    
   153   77   78 2    
   154   77   79 am   BACKBONE|DICT|INTERRES
   155   79   80 1    
   156   79  200 1    
   157   80   81 1    
   158   80   82 1    
   159   80  201 1    
   160   81  202 1    
   161   81  203 1    
   162   81  204 1    
   163   82   83 2    
   164   82   84 am   BACKBONE|DICT|INTERRES
   165   84   85 1    
   166   84  205 1    
   167   85   86 1    
   168   85   87 1    
   169   85  206 1    
   170   86  207 1    
   171   86  208 1    
   172   86  209 1    
   173   87   88 2    
   174   87   89 am   BACKBONE|DICT|INTERRES
   175   89   90 1    
   176   89  210 1    
   177   90   91 1    
   178   90   92 1    
   179   90  211 1    
   180   91  212 1    
   181   91  213 1    
   182   91  214 1    
   183   92   93 2    
   184   92   94 am   BACKBONE|DICT|INTERRES
   185   94   95 1    
   186   94  215 1    
   187   95   96 1    
   188   95   97 1    
   189   95  216 1    
   190   96  217 1    
   191   96  218 1    
   192   96  219 1    
   193   97   98 2    
   194   97   99 am   BACKBONE|DICT|INTERRES
   195   99  100 1    
   196   99  220 1    
   197  100  101 1    
   198  100  102 1    
   199  100  221 1    
   200  101  222 1    
   201  101  223 1    
   202  101  224 1    
   203  102  103 2    
   204  102  104 am   BACKBONE|DICT|INTERRES
   205  104  105 1    
   206  104  225 1    
   207  105  106 1    
   208  105  107 1    
   209  105  226 1    
   210  106  227 1    
   211  106  228 1    
   212  106  229 1    
   213  107  108 2    
   214  107  109 am   BACKBONE|DICT|INTERRES
   215  109  110 1    
   216  109  230 1    
   217  110  111 1    
   218  110  112 1    
   219  110  231 1    
   220  111  232 1    
   221  111  233 1    
   222  111  234 1    
   223  112  113 2    
   224  112  114 am   BACKBONE|DICT|INTERRES
   225  114  115 1    
   226  114  235 1    
   227  115  116 1    
   228  115  117 1    
   229  115  236 1    
   230  116  237 1    
   231  116  238 1    
   232  116  239 1    
   233  117  118 2    
   234  117  119 am   BACKBONE|DICT|INTERRES
   235  119  120 1    
   236  119  240 1    
   237  120  121 1    
   238  120  124 1    
   239  120  241 1    
   240  121  122 am   BACKBONE|DICT|INTERRES
   241  121  123 2    
   242  122  242 1    
   243  122  243 1    
   244  124  125 1    
   245  124  244 1    
   246  124  245 1    
   247  125  126 1    
   248  126  246 1    
   249  126  247 1    
@<TRIPOS>SUBSTRUCTURE
     1 UNK         1 GROUP             0       ****    0 ROOT    
