@<TRIPOS>MOLECULE
3R540
247   249    1
SMALL
USER_CHARGES


@<TRIPOS>ATOM
      1 CA         -2.8264  -12.3854  -50.9976 C.3       0 UNK        -0.1800 
      2 C          -1.9402  -13.4356  -50.3466 C.2       0 UNK         0.5000 
      3 O          -2.2627  -13.9354  -49.2680 O.2       0 UNK        -0.5000 
      4 N          -0.8146  -13.7633  -50.9961 N.am      1 UNK        -0.5000 
      5 CA          0.2320  -14.6579  -50.4888 C.3       1 UNK         0.1400 
      6 C6         -0.2743  -16.1208  -50.3383 C.3       23 UNK        -0.0398 
      7 S7          1.0632  -17.3582  -50.3001 S.3       23 UNK        -0.2404 
      8 C8          1.3015  -17.6978  -52.0752 C.3       23 UNK        -0.0205 
      9 C9          1.9723  -19.0446  -52.3110 C.ar      23 UNK        -0.0193 
     10 C10         1.3301  -20.0223  -53.0771 C.ar      23 UNK        -0.1150 
     11 C11         1.9214  -21.2721  -53.2766 C.ar      23 UNK        -0.0193 
     12 C12         3.1765  -21.5361  -52.7214 C.ar      23 UNK        -0.1150 
     13 C13         3.8354  -20.5650  -51.9622 C.ar      23 UNK        -0.0193 
     14 C14         3.2317  -19.3187  -51.7676 C.ar      23 UNK        -0.1150 
     15 C15         5.2038  -20.8595  -51.3632 C.3       23 UNK        -0.0205 
     16 S16         5.1388  -22.1107  -50.0382 S.3       23 UNK        -0.2404 
     17 C17         4.1749  -21.2609  -48.7430 C.3       23 UNK        -0.0398 
     18 CA          2.9740  -22.1212  -48.2513 C.3       11 UNK         0.1400 
     19 N           3.1512  -22.5709  -46.8654 N.am      11 UNK        -0.5000 
     20 C           2.3681  -23.4664  -46.2479 C.2       10 UNK         0.5000 
     21 O           1.4231  -24.0391  -46.7900 O.2       10 UNK        -0.5000 
     22 CA          2.6672  -23.7442  -44.7628 C.3       10 UNK         0.1400 
     23 CB          3.7259  -24.8486  -44.6272 C.3       10 UNK        -0.1800 
     24 N           3.0923  -22.5702  -43.9929 N.am      10 UNK        -0.5000 
     25 C           2.3843  -21.4429  -43.8408 C.2       9 UNK         0.5000 
     26 O           1.3315  -21.2052  -44.4329 O.2       9 UNK        -0.5000 
     27 CA          2.9411  -20.4041  -42.8553 C.3       9 UNK         0.1400 
     28 CB          3.0735  -19.0238  -43.5209 C.3       9 UNK        -0.1800 
     29 N           2.0728  -20.2940  -41.6843 N.am      9 UNK        -0.5000 
     30 C           1.9867  -21.2073  -40.7077 C.2       8 UNK         0.5000 
     31 O           2.6505  -22.2450  -40.6933 O.2       8 UNK        -0.5000 
     32 CA          1.0244  -20.9228  -39.5412 C.3       8 UNK         0.1400 
     33 CB          1.6984  -20.0224  -38.4930 C.3       8 UNK        -0.1800 
     34 N          -0.2324  -20.3031  -39.9690 N.am      8 UNK        -0.5000 
     35 C          -1.4488  -20.6770  -39.5412 C.2       7 UNK         0.5000 
     36 O          -1.6379  -21.6230  -38.7749 O.2       7 UNK        -0.5000 
     37 CA         -2.6716  -19.8595  -40.0170 C.3       7 UNK         0.1400 
     38 CB         -3.1417  -18.9063  -38.9072 C.3       7 UNK        -0.1800 
     39 N          -2.4217  -19.0755  -41.2242 N.am      7 UNK        -0.5000 
     40 C          -2.2276  -19.5912  -42.4444 C.2       6 UNK         0.5000 
     41 O          -2.4013  -20.7799  -42.7064 O.2       6 UNK        -0.5000 
     42 CA         -1.7364  -18.6347  -43.5527 C.3       6 UNK         0.1400 
     43 CB         -2.8617  -18.3865  -44.5698 C.3       6 UNK        -0.1800 
     44 N          -1.2229  -17.3383  -43.0826 N.am      6 UNK        -0.5000 
     45 C          -0.2230  -17.1528  -42.2033 C.2       5 UNK         0.5000 
     46 O           0.4187  -18.0803  -41.7126 O.2       5 UNK        -0.5000 
     47 CA          0.0907  -15.7180  -41.7339 C.3       5 UNK         0.1400 
     48 CB          1.4680  -15.2698  -42.2363 C.3       5 UNK        -0.1800 
     49 N          -0.9195  -14.7331  -42.1223 N.am      5 UNK        -0.5000 
     50 C          -2.1596  -14.6803  -41.6136 C.2       4 UNK         0.5000 
     51 O          -2.5553  -15.4304  -40.7200 O.2       4 UNK        -0.5000 
     52 CA         -3.1360  -13.6506  -42.2183 C.3       4 UNK         0.1400 
     53 CB         -3.2924  -12.4453  -41.2787 C.3       4 UNK        -0.1800 
     54 N          -2.7709  -13.1641  -43.5526 N.am      4 UNK        -0.5000 
     55 C          -2.6394  -13.9138  -44.6558 C.2       3 UNK         0.5000 
     56 O          -2.7695  -15.1387  -44.6638 O.2       3 UNK        -0.5000 
     57 CA         -2.2843  -13.1865  -45.9693 C.3       3 UNK         0.1400 
     58 CB         -2.2547  -11.6453  -45.8612 C.3       3 UNK        -0.1800 
     59 N          -1.0317  -13.6768  -46.5485 N.am      3 UNK        -0.5000 
     60 C           0.1817  -13.6969  -45.9720 C.2       2 UNK         0.5000 
     61 O           0.3910  -13.3071  -44.8220 O.2       2 UNK        -0.5000 
     62 CA          1.3644  -14.2423  -46.8057 C.3       2 UNK         0.1400 
     63 CB          2.1288  -15.3393  -46.0475 C.3       2 UNK        -0.1800 
     64 N           0.9422  -14.7631  -48.1105 N.am      2 UNK        -0.5000 
     65 C           0.8729  -14.0264  -49.2272 C.2       1 UNK         0.5000 
     66 O           1.2612  -12.8572  -49.2863 O.2       1 UNK        -0.5000 
     67 C           1.6306  -21.3852  -48.4270 C.2       11 UNK         0.5000 
     68 O           0.8572  -21.7210  -49.3220 O.2       11 UNK        -0.5000 
     69 N           1.3548  -20.4323  -47.5269 N.am      12 UNK        -0.5000 
     70 CA          0.1202  -19.6524  -47.5233 C.3       12 UNK         0.1400 
     71 CB          0.3278  -18.3790  -46.6997 C.3       12 UNK        -0.1800 
     72 C          -1.1014  -20.4569  -47.0491 C.2       12 UNK         0.5000 
     73 O          -2.2100  -20.1840  -47.5087 O.2       12 UNK        -0.5000 
     74 N          -0.8825  -21.4515  -46.1783 N.am      13 UNK        -0.5000 
     75 CA         -1.8855  -22.4300  -45.7590 C.3       13 UNK         0.1400 
     76 CB         -1.3314  -23.2958  -44.6165 C.3       13 UNK        -0.1800 
     77 C          -2.3434  -23.3132  -46.9331 C.2       13 UNK         0.5000 
     78 O          -3.5468  -23.4871  -47.1238 O.2       13 UNK        -0.5000 
     79 N          -1.3806  -23.8133  -47.7237 N.am      14 UNK        -0.5000 
     80 CA         -1.6227  -24.5716  -48.9537 C.3       14 UNK         0.1400 
     81 CB         -0.3026  -25.1738  -49.4582 C.3       14 UNK        -0.1800 
     82 C          -2.2843  -23.7182  -50.0502 C.2       14 UNK         0.5000 
     83 O          -3.1627  -24.2098  -50.7604 O.2       14 UNK        -0.5000 
     84 N          -1.8759  -22.4462  -50.1465 N.am      15 UNK        -0.5000 
     85 CA         -2.4583  -21.4511  -51.0450 C.3       15 UNK         0.1400 
     86 CB         -1.5816  -20.1911  -51.0369 C.3       15 UNK        -0.1800 
     87 C          -3.8982  -21.0632  -50.6695 C.2       15 UNK         0.5000 
     88 O          -4.6301  -20.5948  -51.5391 O.2       15 UNK        -0.5000 
     89 N          -4.2561  -21.2286  -49.3877 N.am      16 UNK        -0.5000 
     90 CA         -5.4542  -20.7038  -48.7299 C.3       16 UNK         0.1400 
     91 CB         -6.7272  -21.4126  -49.2345 C.3       16 UNK        -0.1800 
     92 C          -5.5007  -19.1644  -48.8263 C.2       16 UNK         0.5000 
     93 O          -6.5166  -18.5854  -49.2177 O.2       16 UNK        -0.5000 
     94 N          -4.3551  -18.5460  -48.4991 N.am      17 UNK        -0.5000 
     95 CA         -4.0455  -17.1213  -48.6066 C.3       17 UNK         0.1400 
     96 CB         -4.7974  -16.3221  -47.5190 C.3       17 UNK        -0.1800 
     97 C          -4.2559  -16.6006  -50.0452 C.2       17 UNK         0.5000 
     98 O          -3.5690  -17.0584  -50.9602 O.2       17 UNK        -0.5000 
     99 N          -5.1981  -15.6653  -50.2197 N.am      18 UNK        -0.5000 
    100 CA        -5.4945  -14.9616  -51.4680 C.3       18 UNK         0.1400 
    101 CB        -6.4650  -13.8107  -51.1567 C.3       18 UNK        -0.1800 
    102 C         -6.0564  -15.8387  -52.6036 C.2       18 UNK         0.5000 
    103 O         -6.0645  -15.3870  -53.7495 O.2       18 UNK        -0.5000 
    104 N         -6.5269  -17.0538  -52.2873 N.am      19 UNK        -0.5000 
    105 CA        -7.0791  -17.9976  -53.2620 C.3       19 UNK         0.1400 
    106 CB        -7.7802  -19.1412  -52.5175 C.3       19 UNK        -0.1800 
    107 C         -6.0326  -18.5500  -54.2513 C.2       19 UNK         0.5000 
    108 O         -6.3981  -18.8773  -55.3811 O.2       19 UNK        -0.5000 
    109 N         -4.7644  -18.6297  -53.8156 N.am      20 UNK        -0.5000 
    110 CA        -3.5973  -19.1171  -54.5613 C.3       20 UNK         0.1400 
    111 CB        -3.2071  -18.1092  -55.6617 C.3       20 UNK        -0.1800 
    112 C         -3.7714  -20.5600  -55.0887 C.2       20 UNK         0.5000 
    113 O         -3.4513  -20.8379  -56.2453 O.2       20 UNK        -0.5000 
    114 N         -4.3158  -21.4341  -54.2312 N.am      21 UNK        -0.5000 
    115 CA        -4.6633  -22.8244  -54.5187 C.3       21 UNK         0.1400 
    116 CB        -5.5897  -23.3492  -53.4053 C.3       21 UNK        -0.1800 
    117 C         -3.4285  -23.7208  -54.7520 C.2       21 UNK         0.5000 
    118 O         -3.0133  -23.8857  -55.8996 O.2       21 UNK        -0.5000 
    119 N         -2.8888  -24.3154  -53.6776 N.am      22 UNK        -0.5000 
    120 CA        -1.7668  -25.2766  -53.6900 C.3       22 UNK         0.1400 
    121 C         -2.0683  -26.6257  -54.4166 C.2       22 UNK         0.5000 
    122 N         -3.3259  -27.0055  -54.6088 N.am      22 UNK        -0.7600 
    123 O         -1.1559  -27.3612  -54.7841 O.2       22 UNK        -0.5000 
    124 C124       -0.4169  -24.6413  -54.1303 C.3       23 UNK        -0.0398 
    125 S125        0.1291  -23.3321  -52.9875 S.3       23 UNK        -0.2404 
    126 C126        1.1961  -22.3432  -54.0738 C.3       23 UNK        -0.0205 
    127 H127       -2.3892  -11.3951  -50.8717 H         1 UNK         0.0600 
    128 H128       -3.8138  -12.3790  -50.5380 H         1 UNK         0.0600 
    129 H129       -2.9456  -12.5800  -52.0635 H         1 UNK         0.0600 
    130 H130       -0.5949  -13.2912  -51.8620 H         1 UNK         0.3000 
    131 H131        1.0108  -14.6537  -51.2529 H         1 UNK         0.0600 
    132 H132       -0.8933  -16.2416  -49.4491 H         1 UNK         0.0800 
    133 H133       -0.9343  -16.3673  -51.1710 H         1 UNK         0.0800 
    134 H134        1.9110  -16.9079  -52.5156 H         1 UNK         0.0800 
    135 H135        0.3374  -17.6680  -52.5847 H         1 UNK         0.0800 
    136 H136        0.3559  -19.8227  -53.5004 H         1 UNK         0.1150 
    137 H137        3.6360  -22.5037  -52.8672 H         1 UNK         0.1150 
    138 H138        3.7330  -18.5623  -51.1802 H         1 UNK         0.1150 
    139 H139        5.8645  -21.2197  -52.1528 H         1 UNK         0.0800 
    140 H140        5.6635  -19.9494  -50.9747 H         1 UNK         0.0800 
    141 H141        3.8589  -20.2857  -49.1178 H         1 UNK         0.0800 
    142 H142        4.8584  -21.0318  -47.9244 H         1 UNK         0.0800 
    143 H143        2.9018  -23.0231  -48.8638 H         1 UNK         0.0600 
    144 H144        3.9047  -22.1540  -46.3395 H         1 UNK         0.3000 
    145 H145        1.7444  -24.1080  -44.3079 H         1 UNK         0.0600 
    146 H146        3.8660  -25.1352  -43.5847 H         1 UNK         0.0600 
    147 H147        3.4271  -25.7457  -45.1713 H         1 UNK         0.0600 
    148 H148        4.6920  -24.5315  -45.0219 H         1 UNK         0.0600 
    149 H149        3.9372  -22.6808  -43.4510 H         1 UNK         0.3000 
    150 H150        3.9349  -20.7157  -42.5267 H         1 UNK         0.0600 
    151 H151        3.7170  -19.0721  -44.4001 H         1 UNK         0.0600 
    152 H152        3.5112  -18.2977  -42.8358 H         1 UNK         0.0600 
    153 H153        2.1075  -18.6342  -43.8417 H         1 UNK         0.0600 
    154 H154        1.4827  -19.4653  -41.6504 H         1 UNK         0.3000 
    155 H155        0.8231  -21.8886  -39.0731 H         1 UNK         0.0600 
    156 H156        1.9079  -19.0294  -38.8931 H         1 UNK         0.0600 
    157 H157        2.6443  -20.4499  -38.1579 H         1 UNK         0.0600 
    158 H158        1.0662  -19.9023  -37.6132 H         1 UNK         0.0600 
    159 H159       -0.1553  -19.5194  -40.6101 H         1 UNK         0.3000 
    160 H160       -3.4777  -20.5654  -40.2274 H         1 UNK         0.0600 
    161 H161       -2.3794  -18.1642  -38.6660 H         1 UNK         0.0600 
    162 H162       -3.3705  -19.4529  -37.9913 H         1 UNK         0.0600 
    163 H163       -4.0463  -18.3736  -39.2012 H         1 UNK         0.0600 
    164 H164       -2.2850  -18.0823  -41.0982 H         1 UNK         0.3000 
    165 H165       -0.9185  -19.1504  -44.0565 H         1 UNK         0.0600 
    166 H166       -2.5109  -17.8013  -45.4185 H         1 UNK         0.0600 
    167 H167       -3.2517  -19.3249  -44.9661 H         1 UNK         0.0600 
    168 H168       -3.6962  -17.8487  -44.1186 H         1 UNK         0.0600 
    169 H169       -1.7000  -16.5204  -43.4465 H         1 UNK         0.3000 
    170 H170        0.1294  -15.7445  -40.6429 H         1 UNK         0.0600 
    171 H171        2.2505  -15.9529  -41.9029 H         1 UNK         0.0600 
    172 H172        1.4989  -15.2424  -43.3221 H         1 UNK         0.0600 
    173 H173        1.7223  -14.2763  -41.8667 H         1 UNK         0.0600 
    174 H174       -0.6721  -14.0999  -42.8730 H         1 UNK         0.3000 
    175 H175       -4.1058  -14.1445  -42.3052 H         1 UNK         0.0600 
    176 H176       -2.3579  -11.8921  -41.1767 H         1 UNK         0.0600 
    177 H177       -4.0542  -11.7558  -41.6431 H         1 UNK         0.0600 
    178 H178       -3.5963  -12.7633  -40.2803 H         1 UNK         0.0600 
    179 H179       -2.6143  -12.1702  -43.6356 H         1 UNK         0.3000 
    180 H180       -3.0722  -13.4478  -46.6764 H         1 UNK         0.0600 
    181 H181       -1.4800  -11.2928  -45.1795 H         1 UNK         0.0600 
    182 H182       -3.2122  -11.2537  -45.5155 H         1 UNK         0.0600 
    183 H183       -2.0622  -11.1955  -46.8355 H         1 UNK         0.0600 
    184 H184       -1.1197  -14.0130  -47.5001 H         1 UNK         0.3000 
    185 H185        2.0578  -13.4124  -46.9561 H         1 UNK         0.0600 
    186 H186        1.4546  -16.0675  -45.5977 H         1 UNK         0.0600 
    187 H187        2.8230  -15.8711  -46.6986 H         1 UNK         0.0600 
    188 H188        2.7211  -14.9029  -45.2431 H         1 UNK         0.0600 
    189 H189        0.6323  -15.7231  -48.1364 H         1 UNK         0.3000 
    190 H190        2.0001  -20.2673  -46.7690 H         1 UNK         0.3000 
    191 H191       -0.0820  -19.3460  -48.5487 H         1 UNK         0.0600 
    192 H192       -0.5657  -17.7549  -46.7004 H         1 UNK         0.0600 
    193 H193        1.1371  -17.7891  -47.1268 H         1 UNK         0.0600 
    194 H194        0.5869  -18.6023  -45.6662 H         1 UNK         0.0600 
    195 H195        0.0410  -21.5392  -45.7632 H         1 UNK         0.3000 
    196 H196       -2.7506  -21.8798  -45.3833 H         1 UNK         0.0600 
    197 H197       -2.1170  -23.9214  -44.1918 H         1 UNK         0.0600 
    198 H198       -0.9302  -22.6847  -43.8084 H         1 UNK         0.0600 
    199 H199       -0.5373  -23.9585  -44.9570 H         1 UNK         0.0600 
    200 H200       -0.4084  -23.6570  -47.4740 H         1 UNK         0.3000 
    201 H201       -2.3028  -25.3917  -48.7151 H         1 UNK         0.0600 
    202 H202        0.1412  -25.8323  -48.7114 H         1 UNK         0.0600 
    203 H203        0.4280  -24.4002  -49.6974 H         1 UNK         0.0600 
    204 H204       -0.4615  -25.7640  -50.3613 H         1 UNK         0.0600 
    205 H205       -1.0689  -22.1524  -49.6044 H         1 UNK         0.3000 
    206 H206       -2.4613  -21.8667  -52.0537 H         1 UNK         0.0600 
    207 H207       -0.5299  -20.4373  -51.1661 H         1 UNK         0.0600 
    208 H208       -1.8602  -19.5086  -51.8373 H         1 UNK         0.0600 
    209 H209       -1.6839  -19.6360  -50.1060 H         1 UNK         0.0600 
    210 H210       -3.5549  -21.6025  -48.7613 H         1 UNK         0.3000 
    211 H211       -5.3487  -20.9377  -47.6695 H         1 UNK         0.0600 
    212 H212       -6.8832  -21.2726  -50.3023 H         1 UNK         0.0600 
    213 H213       -7.6133  -21.0384  -48.7208 H         1 UNK         0.0600 
    214 H214       -6.6727  -22.4851  -49.0483 H         1 UNK         0.0600 
    215 H215       -3.5783  -19.1358  -48.2070 H         1 UNK         0.3000 
    216 H216       -2.9786  -17.0238  -48.4027 H         1 UNK         0.0600 
    217 H217       -4.5307  -15.2652  -47.5531 H         1 UNK         0.0600 
    218 H218       -4.5354  -16.6812  -46.5239 H         1 UNK         0.0600 
    219 H219       -5.8803  -16.4006  -47.6205 H         1 UNK         0.0600 
    220 H220       -5.7344  -15.3822  -49.4129 H         1 UNK         0.3000 
    221 H221       -4.5592  -14.5365  -51.8344 H         1 UNK         0.0600 
    222 H222       -7.4291  -14.1840  -50.8090 H         1 UNK         0.0600 
    223 H223       -6.0674  -13.1485  -50.3879 H         1 UNK         0.0600 
    224 H224       -6.6492  -13.2026  -52.0434 H         1 UNK         0.0600 
    225 H225       -6.4805  -17.3615  -51.3241 H         1 UNK         0.3000 
    226 H226       -7.8332  -17.4689  -53.8489 H         1 UNK         0.0600 
    227 H227       -7.0798  -19.6855  -51.8875 H         1 UNK         0.0600 
    228 H228       -8.5827  -18.7681  -51.8813 H         1 UNK         0.0600 
    229 H229       -8.2192  -19.8553  -53.2154 H         1 UNK         0.0600 
    230 H230       -4.5876  -18.3680  -52.8534 H         1 UNK         0.3000 
    231 H231       -2.7719  -19.1526  -53.8525 H         1 UNK         0.0600 
    232 H232       -2.2732  -18.3988  -56.1447 H         1 UNK         0.0600 
    233 H233       -3.0614  -17.1117  -55.2468 H         1 UNK         0.0600 
    234 H234       -3.9706  -18.0410  -56.4371 H         1 UNK         0.0600 
    235 H235       -4.5501  -21.0961  -53.2998 H         1 UNK         0.3000 
    236 H236       -5.2382  -22.8333  -55.4471 H         1 UNK         0.0600 
    237 H237       -6.5192  -22.7802  -53.3735 H         1 UNK         0.0600 
    238 H238       -5.8564  -24.3931  -53.5743 H         1 UNK         0.0600 
    239 H239       -5.1320  -23.2791  -52.4187 H         1 UNK         0.0600 
    240 H240       -3.2810  -24.1425  -52.7575 H         1 UNK         0.3000 
    241 H241       -1.6433  -25.5770  -52.6495 H         1 UNK         0.0600 
    242 H242       -3.5138  -27.8827  -55.0687 H         1 UNK         0.3800 
    243 H243       -4.0906  -26.4289  -54.2978 H         1 UNK         0.3800 
    244 H244        0.3781  -25.3882  -54.1520 H         1 UNK         0.0800 
    245 H245       -0.4891  -24.2440  -55.1432 H         1 UNK         0.0800 
    246 H246        0.5931  -21.8873  -54.8607 H         1 UNK         0.0800 
    247 H247        1.9178  -22.9945  -54.5695 H         1 UNK         0.0800 
@<TRIPOS>BOND
     1    1    2 1    
     2    1  127 1    
     3    1  128 1    
     4    1  129 1    
     5    2    3 2    
     6    2    4 am   BACKBONE|DICT|INTERRES
     7    4    5 1    
     8    4  130 1    
     9    5    6 1    
    10    5   65 1    
    11    5  131 1    
    12    6    7 1    
    13    6  132 1    
    14    6  133 1    
    15    7    8 1    
    16    8    9 1    
    17    8  134 1    
    18    8  135 1    
    19    9   10 ar   
    20    9   14 ar   
    21   10   11 ar   
    22   10  136 1    
    23   11   12 ar   
    24   11  126 1    
    25   12   13 ar   
    26   12  137 1    
    27   13   14 ar   
    28   13   15 1    
    29   14  138 1    
    30   15   16 1    
    31   15  139 1    
    32   15  140 1    
    33   16   17 1    
    34   17   18 1    
    35   17  141 1    
    36   17  142 1    
    37   18   19 1    
    38   18   67 1    
    39   18  143 1    
    40   19   20 am   BACKBONE|DICT|INTERRES
    41   19  144 1    
    42   20   21 2    
    43   20   22 1    
    44   22   23 1    
    45   22   24 1    
    46   22  145 1    
    47   23  146 1    
    48   23  147 1    
    49   23  148 1    
    50   24   25 am   BACKBONE|DICT|INTERRES
    51   24  149 1    
    52   25   26 2    
    53   25   27 1    
    54   27   28 1    
    55   27   29 1    
    56   27  150 1    
    57   28  151 1    
    58   28  152 1    
    59   28  153 1    
    60   29   30 am   BACKBONE|DICT|INTERRES
    61   29  154 1    
    62   30   31 2    
    63   30   32 1    
    64   32   33 1    
    65   32   34 1    
    66   32  155 1    
    67   33  156 1    
    68   33  157 1    
    69   33  158 1    
    70   34   35 am   BACKBONE|DICT|INTERRES
    71   34  159 1    
    72   35   36 2    
    73   35   37 1    
    74   37   38 1    
    75   37   39 1    
    76   37  160 1    
    77   38  161 1    
    78   38  162 1    
    79   38  163 1    
    80   39   40 am   BACKBONE|DICT|INTERRES
    81   39  164 1    
    82   40   41 2    
    83   40   42 1    
    84   42   43 1    
    85   42   44 1    
    86   42  165 1    
    87   43  166 1    
    88   43  167 1    
    89   43  168 1    
    90   44   45 am   BACKBONE|DICT|INTERRES
    91   44  169 1    
    92   45   46 2    
    93   45   47 1    
    94   47   48 1    
    95   47   49 1    
    96   47  170 1    
    97   48  171 1    
    98   48  172 1    
    99   48  173 1    
   100   49   50 am   BACKBONE|DICT|INTERRES
   101   49  174 1    
   102   50   51 2    
   103   50   52 1    
   104   52   53 1    
   105   52   54 1    
   106   52  175 1    
   107   53  176 1    
   108   53  177 1    
   109   53  178 1    
   110   54   55 am   BACKBONE|DICT|INTERRES
   111   54  179 1    
   112   55   56 2    
   113   55   57 1    
   114   57   58 1    
   115   57   59 1    
   116   57  180 1    
   117   58  181 1    
   118   58  182 1    
   119   58  183 1    
   120   59   60 am   BACKBONE|DICT|INTERRES
   121   59  184 1    
   122   60   61 2    
   123   60   62 1    
   124   62   63 1    
   125   62   64 1    
   126   62  185 1    
   127   63  186 1    
   128   63  187 1    
   129   63  188 1    
   130   64   65 am   BACKBONE|DICT|INTERRES
   131   64  189 1    
   132   65   66 2    
   133   67   68 2    
   134   67   69 am   BACKBONE|DICT|INTERRES
   135   69   70 1    
   136   69  190 1    
   137   70   71 1    
   138   70   72 1    
   139   70  191 1    
   140   71  192 1    
   141   71  193 1    
   142   71  194 1    
   143   72   73 2    
   144   72   74 am   BACKBONE|DICT|INTERRES
   145   74   75 1    
   146   74  195 1    
   147   75   76 1    
   148   75   77 1    
   149   75  196 1    
   150   76  197 1    
   151   76  198 1    
   152   76  199 1    
   153   77   78 2    
   154   77   79 am   BACKBONE|DICT|INTERRES
   155   79   80 1    
   156   79  200 1    
   157   80   81 1    
   158   80   82 1    
   159   80  201 1    
   160   81  202 1    
   161   81  203 1    
   162   81  204 1    
   163   82   83 2    
   164   82   84 am   BACKBONE|DICT|INTERRES
   165   84   85 1    
   166   84  205 1    
   167   85   86 1    
   168   85   87 1    
   169   85  206 1    
   170   86  207 1    
   171   86  208 1    
   172   86  209 1    
   173   87   88 2    
   174   87   89 am   BACKBONE|DICT|INTERRES
   175   89   90 1    
   176   89  210 1    
   177   90   91 1    
   178   90   92 1    
   179   90  211 1    
   180   91  212 1    
   181   91  213 1    
   182   91  214 1    
   183   92   93 2    
   184   92   94 am   BACKBONE|DICT|INTERRES
   185   94   95 1    
   186   94  215 1    
   187   95   96 1    
   188   95   97 1    
   189   95  216 1    
   190   96  217 1    
   191   96  218 1    
   192   96  219 1    
   193   97   98 2    
   194   97   99 am   BACKBONE|DICT|INTERRES
   195   99  100 1    
   196   99  220 1    
   197  100  101 1    
   198  100  102 1    
   199  100  221 1    
   200  101  222 1    
   201  101  223 1    
   202  101  224 1    
   203  102  103 2    
   204  102  104 am   BACKBONE|DICT|INTERRES
   205  104  105 1    
   206  104  225 1    
   207  105  106 1    
   208  105  107 1    
   209  105  226 1    
   210  106  227 1    
   211  106  228 1    
   212  106  229 1    
   213  107  108 2    
   214  107  109 am   BACKBONE|DICT|INTERRES
   215  109  110 1    
   216  109  230 1    
   217  110  111 1    
   218  110  112 1    
   219  110  231 1    
   220  111  232 1    
   221  111  233 1    
   222  111  234 1    
   223  112  113 2    
   224  112  114 am   BACKBONE|DICT|INTERRES
   225  114  115 1    
   226  114  235 1    
   227  115  116 1    
   228  115  117 1    
   229  115  236 1    
   230  116  237 1    
   231  116  238 1    
   232  116  239 1    
   233  117  118 2    
   234  117  119 am   BACKBONE|DICT|INTERRES
   235  119  120 1    
   236  119  240 1    
   237  120  121 1    
   238  120  124 1    
   239  120  241 1    
   240  121  122 am   BACKBONE|DICT|INTERRES
   241  121  123 2    
   242  122  242 1    
   243  122  243 1    
   244  124  125 1    
   245  124  244 1    
   246  124  245 1    
   247  125  126 1    
   248  126  246 1    
   249  126  247 1    
@<TRIPOS>SUBSTRUCTURE
     1 UNK         1 GROUP             0       ****    0 ROOT    
