@<TRIPOS>MOLECULE
3R540
247   249    1
SMALL
USER_CHARGES


@<TRIPOS>ATOM
      1 CA         -4.2136  -13.2434  -49.8035 C.3       0 UNK        -0.1800 
      2 C          -2.7272  -13.1105  -50.0997 C.2       0 UNK         0.5000 
      3 O          -2.3188  -12.1614  -50.7688 O.2       0 UNK        -0.5000 
      4 N          -1.9143  -14.0408  -49.5804 N.am      1 UNK        -0.5000 
      5 CA         -0.4487  -14.0379  -49.7008 C.3       1 UNK         0.1400 
      6 C6          0.1623  -15.4213  -49.3667 C.3       23 UNK        -0.0398 
      7 S7         -0.1990  -16.6744  -50.6429 S.3       23 UNK        -0.2404 
      8 C8         -1.2445  -17.8621  -49.7424 C.3       23 UNK        -0.0205 
      9 C9         -2.6981  -17.4203  -49.6711 C.ar      23 UNK        -0.0193 
     10 C10        -3.4555  -17.3073  -50.8413 C.ar      23 UNK        -0.1150 
     11 C11        -4.7899  -16.8952  -50.7906 C.ar      23 UNK        -0.0193 
     12 C12        -5.3784  -16.6377  -49.5499 C.ar      23 UNK        -0.1150 
     13 C13        -4.6400  -16.7677  -48.3703 C.ar      23 UNK        -0.0193 
     14 C14        -3.2950  -17.1443  -48.4376 C.ar      23 UNK        -0.1150 
     15 C15        -5.3032  -16.4876  -47.0308 C.3       23 UNK        -0.0205 
     16 S16        -5.9974  -18.0033  -46.2938 S.3       23 UNK        -0.2404 
     17 C17        -4.5216  -18.7451  -45.5224 C.3       23 UNK        -0.0398 
     18 CA         -4.0273  -20.0328  -46.2352 C.3       11 UNK         0.1400 
     19 N          -2.5712  -20.1824  -46.1331 N.am      11 UNK        -0.5000 
     20 C          -1.8399  -21.1531  -46.6969 C.2       10 UNK         0.5000 
     21 O          -2.3075  -22.0187  -47.4321 O.2       10 UNK        -0.5000 
     22 CA         -0.3434  -21.2073  -46.3372 C.3       10 UNK         0.1400 
     23 CB          0.4867  -20.3142  -47.2690 C.3       10 UNK        -0.1800 
     24 N          -0.0740  -20.8614  -44.9407 N.am      10 UNK        -0.5000 
     25 C          -0.5155  -21.5703  -43.8911 C.2       9 UNK         0.5000 
     26 O          -1.1658  -22.6100  -43.9942 O.2       9 UNK        -0.5000 
     27 CA         -0.2373  -20.9932  -42.4927 C.3       9 UNK         0.1400 
     28 CB          1.2154  -21.2544  -42.0685 C.3       9 UNK        -0.1800 
     29 N          -0.5284  -19.5620  -42.4151 N.am      9 UNK        -0.5000 
     30 C          -1.7434  -19.0234  -42.5938 C.2       8 UNK         0.5000 
     31 O          -2.7655  -19.6853  -42.7819 O.2       8 UNK        -0.5000 
     32 CA         -1.8182  -17.4848  -42.6279 C.3       8 UNK         0.1400 
     33 CB         -1.8148  -16.9032  -41.2071 C.3       8 UNK        -0.1800 
     34 N          -0.7375  -16.8827  -43.4135 N.am      8 UNK        -0.5000 
     35 C          -0.5474  -17.0995  -44.7225 C.2       7 UNK         0.5000 
     36 O          -1.2798  -17.8015  -45.4131 O.2       7 UNK        -0.5000 
     37 CA          0.6864  -16.4645  -45.3738 C.3       7 UNK         0.1400 
     38 CB          0.4137  -15.0018  -45.7311 C.3       7 UNK        -0.1800 
     39 N           1.8805  -16.5778  -44.5398 N.am      7 UNK        -0.5000 
     40 C           2.4702  -17.7437  -44.2395 C.2       6 UNK         0.5000 
     41 O           2.1121  -18.8308  -44.6940 O.2       6 UNK        -0.5000 
     42 CA          3.6078  -17.6899  -43.2068 C.3       6 UNK         0.1400 
     43 CB          4.9321  -17.2683  -43.8608 C.3       6 UNK        -0.1800 
     44 N           3.2870  -16.7907  -42.0970 N.am      6 UNK        -0.5000 
     45 C           2.3317  -17.0402  -41.1891 C.2       5 UNK         0.5000 
     46 O           1.6564  -18.0689  -41.1771 O.2       5 UNK        -0.5000 
     47 CA          2.0573  -15.9530  -40.1348 C.3       5 UNK         0.1400 
     48 CB          2.9305  -16.1787  -38.8917 C.3       5 UNK        -0.1800 
     49 N           2.2626  -14.5903  -40.6256 N.am      5 UNK        -0.5000 
     50 C           1.5591  -14.0020  -41.6030 C.2       4 UNK         0.5000 
     51 O           0.6540  -14.5668  -42.2206 O.2       4 UNK        -0.5000 
     52 CA          1.9214  -12.5385  -41.9476 C.3       4 UNK         0.1400 
     53 CB          3.1124  -11.9799  -41.1366 C.3       4 UNK        -0.1800 
     54 N           2.1633  -12.3069  -43.3750 N.am      4 UNK        -0.5000 
     55 C           2.9660  -12.9895  -44.2009 C.2       3 UNK         0.5000 
     56 O           3.5235  -14.0440  -43.8889 O.2       3 UNK        -0.5000 
     57 CA          3.1871  -12.3815  -45.6082 C.3       3 UNK         0.1400 
     58 CB          4.1181  -13.2483  -46.4763 C.3       3 UNK        -0.1800 
     59 N           1.9578  -12.1318  -46.3680 N.am      3 UNK        -0.5000 
     60 C           1.0077  -11.2242  -46.1208 C.2       2 UNK         0.5000 
     61 O           1.0480  -10.4527  -45.1610 O.2       2 UNK        -0.5000 
     62 CA         -0.2011  -11.1529  -47.0811 C.3       2 UNK         0.1400 
     63 CB         -0.0980   -9.9117  -47.9880 C.3       2 UNK        -0.1800 
     64 N          -0.4964  -12.3527  -47.8852 N.am      2 UNK        -0.5000 
     65 C           0.2237  -12.9175  -48.8687 C.2       1 UNK         0.5000 
     66 O           1.3797  -12.5903  -49.1355 O.2       1 UNK        -0.5000 
     67 C          -4.7723  -21.2746  -45.6990 C.2       11 UNK         0.5000 
     68 O          -5.7024  -21.7596  -46.3445 O.2       11 UNK        -0.5000 
     69 N          -4.3325  -21.7700  -44.5332 N.am      12 UNK        -0.5000 
     70 CA         -4.8790  -22.9562  -43.8776 C.3       12 UNK         0.1400 
     71 CB         -4.4229  -22.9774  -42.4103 C.3       12 UNK        -0.1800 
     72 C          -4.4908  -24.2634  -44.5931 C.2       12 UNK         0.5000 
     73 O          -5.3451  -25.1317  -44.7754 O.2       12 UNK        -0.5000 
     74 N          -3.2122  -24.3842  -44.9737 N.am      13 UNK        -0.5000 
     75 CA         -2.6452  -25.5605  -45.6360 C.3       13 UNK         0.1400 
     76 CB         -1.1160  -25.4715  -45.5679 C.3       13 UNK        -0.1800 
     77 C          -3.1109  -25.7338  -47.0934 C.2       13 UNK         0.5000 
     78 O          -3.2559  -26.8692  -47.5501 O.2       13 UNK        -0.5000 
     79 N          -3.3309  -24.6126  -47.7937 N.am      14 UNK        -0.5000 
     80 CA         -3.7796  -24.5027  -49.1805 C.3       14 UNK         0.1400 
     81 CB         -5.2623  -24.9205  -49.2971 C.3       14 UNK        -0.1800 
     82 C          -2.8294  -25.2440  -50.1434 C.2       14 UNK         0.5000 
     83 O          -1.6652  -24.8553  -50.2685 O.2       14 UNK        -0.5000 
     84 N          -3.3221  -26.3115  -50.7843 N.am      15 UNK        -0.5000 
     85 CA         -2.5819  -27.1585  -51.7200 C.3       15 UNK         0.1400 
     86 CB         -3.5404  -28.1970  -52.3209 C.3       15 UNK        -0.1800 
     87 C          -1.3524  -27.8534  -51.1035 C.2       15 UNK         0.5000 
     88 O          -0.3902  -28.1095  -51.8269 O.2       15 UNK        -0.5000 
     89 N          -1.3746  -28.1076  -49.7859 N.am      16 UNK        -0.5000 
     90 CA         -0.2574  -28.7061  -49.0491 C.3       16 UNK         0.1400 
     91 CB         -0.7496  -29.2011  -47.6810 C.3       16 UNK        -0.1800 
     92 C           0.9480  -27.7566  -48.8912 C.2       16 UNK         0.5000 
     93 O           2.0734  -28.2356  -48.7488 O.2       16 UNK        -0.5000 
     94 N           0.7012  -26.4400  -48.9431 N.am      17 UNK        -0.5000 
     95 CA          1.7308  -25.3967  -48.9459 C.3       17 UNK         0.1400 
     96 CB          1.2721  -24.2475  -48.0350 C.3       17 UNK        -0.1800 
     97 C           2.0268  -24.8693  -50.3628 C.2       17 UNK         0.5000 
     98 O           2.9258  -24.0414  -50.5148 O.2       17 UNK        -0.5000 
     99 N           1.2593  -25.3327  -51.3617 N.am      18 UNK        -0.5000 
    100 CA         1.2265  -24.8620  -52.7492 C.3       18 UNK         0.1400 
    101 CB         2.5385  -25.2094  -53.4832 C.3       18 UNK        -0.1800 
    102 C          0.8449  -23.3686  -52.8412 C.2       18 UNK         0.5000 
    103 O          1.4960  -22.6009  -53.5532 O.2       18 UNK        -0.5000 
    104 N         -0.1964  -22.9864  -52.0868 N.am      19 UNK        -0.5000 
    105 CA        -0.7538  -21.6346  -52.0207 C.3       19 UNK         0.1400 
    106 CB        -1.9006  -21.6331  -50.9988 C.3       19 UNK        -0.1800 
    107 C         -1.2672  -21.1188  -53.3791 C.2       19 UNK         0.5000 
    108 O         -1.7054  -21.9114  -54.2181 O.2       19 UNK        -0.5000 
    109 N         -1.2351  -19.7909  -53.5503 N.am      20 UNK        -0.5000 
    110 CA        -1.7973  -19.0883  -54.7038 C.3       20 UNK         0.1400 
    111 CB        -1.3773  -17.6108  -54.6383 C.3       20 UNK        -0.1800 
    112 C         -3.3324  -19.2095  -54.7603 C.2       20 UNK         0.5000 
    113 O         -3.9776  -19.3511  -53.7199 O.2       20 UNK        -0.5000 
    114 N         -3.8894  -19.1344  -55.9748 N.am      21 UNK        -0.5000 
    115 CA        -5.3332  -19.2012  -56.2156 C.3       21 UNK         0.1400 
    116 CB        -5.5771  -19.5898  -57.6823 C.3       21 UNK        -0.1800 
    117 C         -6.0641  -17.8865  -55.8802 C.2       21 UNK         0.5000 
    118 O         -7.2552  -17.9239  -55.5705 O.2       21 UNK        -0.5000 
    119 N         -5.3447  -16.7576  -55.9647 N.am      22 UNK        -0.5000 
    120 CA        -5.8399  -15.3838  -55.7482 C.3       22 UNK         0.1400 
    121 C         -6.8769  -14.8891  -56.8066 C.2       22 UNK         0.5000 
    122 N         -6.9862  -15.5178  -57.9709 N.am      22 UNK        -0.7600 
    123 O         -7.5728  -13.9002  -56.5907 O.2       22 UNK        -0.5000 
    124 C124       -6.3064  -15.1212  -54.2878 C.3       23 UNK        -0.0398 
    125 S125       -4.9664  -15.3364  -53.0675 S.3       23 UNK        -0.2404 
    126 C126       -5.5955  -16.7233  -52.0707 C.3       23 UNK        -0.0205 
    127 H127       -4.3994  -13.9394  -48.9863 H         1 UNK         0.0600 
    128 H128       -4.7459  -13.5970  -50.6851 H         1 UNK         0.0600 
    129 H129       -4.6292  -12.2767  -49.5195 H         1 UNK         0.0600 
    130 H130       -2.3170  -14.8302  -49.0955 H         1 UNK         0.3000 
    131 H131       -0.2074  -13.8148  -50.7426 H         1 UNK         0.0600 
    132 H132        1.2498  -15.3586  -49.2940 H         1 UNK         0.0800 
    133 H133       -0.1853  -15.7730  -48.3964 H         1 UNK         0.0800 
    134 H134       -1.1910  -18.8215  -50.2534 H         1 UNK         0.0800 
    135 H135       -0.8375  -18.0297  -48.7454 H         1 UNK         0.0800 
    136 H136       -3.0021  -17.5221  -51.7978 H         1 UNK         0.1150 
    137 H137       -6.4138  -16.3313  -49.5001 H         1 UNK         0.1150 
    138 H138       -2.7182  -17.2395  -47.5292 H         1 UNK         0.1150 
    139 H139       -4.5984  -16.0152  -46.3449 H         1 UNK         0.0800 
    140 H140       -6.1121  -15.7679  -47.1657 H         1 UNK         0.0800 
    141 H141       -4.7358  -18.9231  -44.4671 H         1 UNK         0.0800 
    142 H142       -3.7411  -17.9892  -45.5175 H         1 UNK         0.0800 
    143 H143       -4.2460  -19.9491  -47.3020 H         1 UNK         0.0600 
    144 H144       -2.0818  -19.4629  -45.6070 H         1 UNK         0.3000 
    145 H145       -0.0154  -22.2367  -46.4843 H         1 UNK         0.0600 
    146 H146        1.5540  -20.4687  -47.1101 H         1 UNK         0.0600 
    147 H147        0.2772  -19.2588  -47.1024 H         1 UNK         0.0600 
    148 H148        0.2775  -20.5357  -48.3166 H         1 UNK         0.0600 
    149 H149        0.4864  -20.0311  -44.7755 H         1 UNK         0.3000 
    150 H150       -0.8941  -21.5053  -41.7864 H         1 UNK         0.0600 
    151 H151        1.4498  -22.3187  -42.1122 H         1 UNK         0.0600 
    152 H152        1.3911  -20.9241  -41.0447 H         1 UNK         0.0600 
    153 H153        1.9247  -20.7341  -42.7126 H         1 UNK         0.0600 
    154 H154        0.2567  -18.9492  -42.2145 H         1 UNK         0.3000 
    155 H155       -2.7618  -17.2093  -43.1034 H         1 UNK         0.0600 
    156 H156       -2.6651  -17.2745  -40.6339 H         1 UNK         0.0600 
    157 H157       -1.8824  -15.8152  -41.2243 H         1 UNK         0.0600 
    158 H158       -0.9111  -17.1753  -40.6630 H         1 UNK         0.0600 
    159 H159       -0.1166  -16.2396  -42.9310 H         1 UNK         0.3000 
    160 H160        0.8758  -17.0031  -46.3046 H         1 UNK         0.0600 
    161 H161        0.3867  -14.3613  -44.8504 H         1 UNK         0.0600 
    162 H162       -0.5441  -14.8885  -46.2398 H         1 UNK         0.0600 
    163 H163        1.1862  -14.6363  -46.4033 H         1 UNK         0.0600 
    164 H164        2.2393  -15.7287  -44.1179 H         1 UNK         0.3000 
    165 H165        3.7378  -18.6960  -42.8023 H         1 UNK         0.0600 
    166 H166        5.7473  -17.2709  -43.1373 H         1 UNK         0.0600 
    167 H167        5.2055  -17.9572  -44.6610 H         1 UNK         0.0600 
    168 H168        4.8732  -16.2707  -44.2960 H         1 UNK         0.0600 
    169 H169        3.7591  -15.8974  -42.0792 H         1 UNK         0.3000 
    170 H170        1.0120  -16.0412  -39.8341 H         1 UNK         0.0600 
    171 H171        3.9917  -16.0721  -39.1200 H         1 UNK         0.0600 
    172 H172        2.6832  -15.4700  -38.1012 H         1 UNK         0.0600 
    173 H173        2.7808  -17.1804  -38.4864 H         1 UNK         0.0600 
    174 H174        2.9938  -14.0574  -40.1778 H         1 UNK         0.3000 
    175 H175        1.0414  -11.9479  -41.6898 H         1 UNK         0.0600 
    176 H176        4.0351  -12.5252  -41.3397 H         1 UNK         0.0600 
    177 H177        3.2912  -10.9330  -41.3827 H         1 UNK         0.0600 
    178 H178        2.9219  -12.0212  -40.0634 H         1 UNK         0.0600 
    179 H179        1.7008  -11.4931  -43.7735 H         1 UNK         0.3000 
    180 H180        3.6814  -11.4201  -45.4558 H         1 UNK         0.0600 
    181 H181        4.3189  -12.7729  -47.4366 H         1 UNK         0.0600 
    182 H182        3.6860  -14.2304  -46.6724 H         1 UNK         0.0600 
    183 H183        5.0803  -13.4042  -45.9867 H         1 UNK         0.0600 
    184 H184        1.8607  -12.6465  -47.2357 H         1 UNK         0.3000 
    185 H185       -1.0751  -11.0145  -46.4428 H         1 UNK         0.0600 
    186 H186       -0.9877   -9.8020  -48.6083 H         1 UNK         0.0600 
    187 H187       -0.0010   -9.0008  -47.3959 H         1 UNK         0.0600 
    188 H188        0.7675   -9.9632  -48.6492 H         1 UNK         0.0600 
    189 H189       -1.4205  -12.7330  -47.7389 H         1 UNK         0.3000 
    190 H190       -3.5699  -21.2978  -44.0610 H         1 UNK         0.3000 
    191 H191       -5.9684  -22.8808  -43.8894 H         1 UNK         0.0600 
    192 H192       -4.7581  -22.0850  -41.8814 H         1 UNK         0.0600 
    193 H193       -3.3368  -23.0262  -42.3246 H         1 UNK         0.0600 
    194 H194       -4.8335  -23.8411  -41.8859 H         1 UNK         0.0600 
    195 H195       -2.5599  -23.6403  -44.7370 H         1 UNK         0.3000 
    196 H196       -2.9587  -26.4496  -45.0850 H         1 UNK         0.0600 
    197 H197       -0.7649  -25.5132  -44.5368 H         1 UNK         0.0600 
    198 H198       -0.7669  -24.5344  -45.9985 H         1 UNK         0.0600 
    199 H199       -0.6375  -26.2868  -46.1102 H         1 UNK         0.0600 
    200 H200       -3.0894  -23.7225  -47.3653 H         1 UNK         0.3000 
    201 H201       -3.7161  -23.4454  -49.4375 H         1 UNK         0.0600 
    202 H202       -5.8861  -24.3043  -48.6488 H         1 UNK         0.0600 
    203 H203       -5.4253  -25.9605  -49.0125 H         1 UNK         0.0600 
    204 H204       -5.6316  -24.7874  -50.3148 H         1 UNK         0.0600 
    205 H205       -4.2777  -26.5782  -50.5971 H         1 UNK         0.3000 
    206 H206       -2.2217  -26.5179  -52.5276 H         1 UNK         0.0600 
    207 H207       -3.9589  -28.8493  -51.5533 H         1 UNK         0.0600 
    208 H208       -4.3684  -27.7158  -52.8419 H         1 UNK         0.0600 
    209 H209       -3.0269  -28.8302  -53.0458 H         1 UNK         0.0600 
    210 H210       -2.1870  -27.8364  -49.2432 H         1 UNK         0.3000 
    211 H211        0.0885  -29.5761  -49.6115 H         1 UNK         0.0600 
    212 H212       -1.1081  -28.3831  -47.0582 H         1 UNK         0.0600 
    213 H213        0.0524  -29.6997  -47.1351 H         1 UNK         0.0600 
    214 H214       -1.5626  -29.9189  -47.7905 H         1 UNK         0.0600 
    215 H215       -0.2500  -26.1257  -49.0909 H         1 UNK         0.3000 
    216 H216        2.6710  -25.7847  -48.5491 H         1 UNK         0.0600 
    217 H217        1.9466  -23.3923  -48.0963 H         1 UNK         0.0600 
    218 H218        1.2649  -24.5654  -46.9938 H         1 UNK         0.0600 
    219 H219        0.2729  -23.8976  -48.2993 H         1 UNK         0.0600 
    220 H220        0.5647  -26.0270  -51.1261 H         1 UNK         0.3000 
    221 H221        0.4219  -25.4124  -53.2391 H         1 UNK         0.0600 
    222 H222        3.3893  -24.6578  -53.0825 H         1 UNK         0.0600 
    223 H223        2.7620  -26.2734  -53.4061 H         1 UNK         0.0600 
    224 H224        2.4654  -24.9696  -54.5446 H         1 UNK         0.0600 
    225 H225       -0.6605  -23.6848  -51.5144 H         1 UNK         0.3000 
    226 H226        0.0352  -20.9670  -51.6685 H         1 UNK         0.0600 
    227 H227       -1.5466  -21.9158  -50.0077 H         1 UNK         0.0600 
    228 H228       -2.3670  -20.6515  -50.9157 H         1 UNK         0.0600 
    229 H229       -2.6855  -22.3309  -51.2905 H         1 UNK         0.0600 
    230 H230       -0.8861  -19.2079  -52.8046 H         1 UNK         0.3000 
    231 H231       -1.3775  -19.5330  -55.6086 H         1 UNK         0.0600 
    232 H232       -1.7389  -17.0611  -55.5080 H         1 UNK         0.0600 
    233 H233       -0.2920  -17.5089  -54.6207 H         1 UNK         0.0600 
    234 H234       -1.7738  -17.1147  -53.7518 H         1 UNK         0.0600 
    235 H235       -3.2981  -19.0282  -56.7867 H         1 UNK         0.3000 
    236 H236       -5.7582  -19.9845  -55.5839 H         1 UNK         0.0600 
    237 H237       -5.1313  -20.5577  -57.9125 H         1 UNK         0.0600 
    238 H238       -6.6445  -19.6674  -57.8937 H         1 UNK         0.0600 
    239 H239       -5.1583  -18.8548  -58.3706 H         1 UNK         0.0600 
    240 H240       -4.3733  -16.8344  -56.2257 H         1 UNK         0.3000 
    241 H241       -4.9743  -14.7428  -55.9188 H         1 UNK         0.0600 
    242 H242       -6.4149  -16.3209  -58.1775 H         1 UNK         0.3800 
    243 H243       -7.6498  -15.1853  -58.6532 H         1 UNK         0.3800 
    244 H244       -7.1584  -15.7530  -54.0350 H         1 UNK         0.0800 
    245 H245       -6.6571  -14.0940  -54.1771 H         1 UNK         0.0800 
    246 H246       -6.6455  -16.5469  -51.8329 H         1 UNK         0.0800 
    247 H247       -5.5637  -17.6410  -52.6564 H         1 UNK         0.0800 
@<TRIPOS>BOND
     1    1    2 1    
     2    1  127 1    
     3    1  128 1    
     4    1  129 1    
     5    2    3 2    
     6    2    4 am   BACKBONE|DICT|INTERRES
     7    4    5 1    
     8    4  130 1    
     9    5    6 1    
    10    5   65 1    
    11    5  131 1    
    12    6    7 1    
    13    6  132 1    
    14    6  133 1    
    15    7    8 1    
    16    8    9 1    
    17    8  134 1    
    18    8  135 1    
    19    9   10 ar   
    20    9   14 ar   
    21   10   11 ar   
    22   10  136 1    
    23   11   12 ar   
    24   11  126 1    
    25   12   13 ar   
    26   12  137 1    
    27   13   14 ar   
    28   13   15 1    
    29   14  138 1    
    30   15   16 1    
    31   15  139 1    
    32   15  140 1    
    33   16   17 1    
    34   17   18 1    
    35   17  141 1    
    36   17  142 1    
    37   18   19 1    
    38   18   67 1    
    39   18  143 1    
    40   19   20 am   BACKBONE|DICT|INTERRES
    41   19  144 1    
    42   20   21 2    
    43   20   22 1    
    44   22   23 1    
    45   22   24 1    
    46   22  145 1    
    47   23  146 1    
    48   23  147 1    
    49   23  148 1    
    50   24   25 am   BACKBONE|DICT|INTERRES
    51   24  149 1    
    52   25   26 2    
    53   25   27 1    
    54   27   28 1    
    55   27   29 1    
    56   27  150 1    
    57   28  151 1    
    58   28  152 1    
    59   28  153 1    
    60   29   30 am   BACKBONE|DICT|INTERRES
    61   29  154 1    
    62   30   31 2    
    63   30   32 1    
    64   32   33 1    
    65   32   34 1    
    66   32  155 1    
    67   33  156 1    
    68   33  157 1    
    69   33  158 1    
    70   34   35 am   BACKBONE|DICT|INTERRES
    71   34  159 1    
    72   35   36 2    
    73   35   37 1    
    74   37   38 1    
    75   37   39 1    
    76   37  160 1    
    77   38  161 1    
    78   38  162 1    
    79   38  163 1    
    80   39   40 am   BACKBONE|DICT|INTERRES
    81   39  164 1    
    82   40   41 2    
    83   40   42 1    
    84   42   43 1    
    85   42   44 1    
    86   42  165 1    
    87   43  166 1    
    88   43  167 1    
    89   43  168 1    
    90   44   45 am   BACKBONE|DICT|INTERRES
    91   44  169 1    
    92   45   46 2    
    93   45   47 1    
    94   47   48 1    
    95   47   49 1    
    96   47  170 1    
    97   48  171 1    
    98   48  172 1    
    99   48  173 1    
   100   49   50 am   BACKBONE|DICT|INTERRES
   101   49  174 1    
   102   50   51 2    
   103   50   52 1    
   104   52   53 1    
   105   52   54 1    
   106   52  175 1    
   107   53  176 1    
   108   53  177 1    
   109   53  178 1    
   110   54   55 am   BACKBONE|DICT|INTERRES
   111   54  179 1    
   112   55   56 2    
   113   55   57 1    
   114   57   58 1    
   115   57   59 1    
   116   57  180 1    
   117   58  181 1    
   118   58  182 1    
   119   58  183 1    
   120   59   60 am   BACKBONE|DICT|INTERRES
   121   59  184 1    
   122   60   61 2    
   123   60   62 1    
   124   62   63 1    
   125   62   64 1    
   126   62  185 1    
   127   63  186 1    
   128   63  187 1    
   129   63  188 1    
   130   64   65 am   BACKBONE|DICT|INTERRES
   131   64  189 1    
   132   65   66 2    
   133   67   68 2    
   134   67   69 am   BACKBONE|DICT|INTERRES
   135   69   70 1    
   136   69  190 1    
   137   70   71 1    
   138   70   72 1    
   139   70  191 1    
   140   71  192 1    
   141   71  193 1    
   142   71  194 1    
   143   72   73 2    
   144   72   74 am   BACKBONE|DICT|INTERRES
   145   74   75 1    
   146   74  195 1    
   147   75   76 1    
   148   75   77 1    
   149   75  196 1    
   150   76  197 1    
   151   76  198 1    
   152   76  199 1    
   153   77   78 2    
   154   77   79 am   BACKBONE|DICT|INTERRES
   155   79   80 1    
   156   79  200 1    
   157   80   81 1    
   158   80   82 1    
   159   80  201 1    
   160   81  202 1    
   161   81  203 1    
   162   81  204 1    
   163   82   83 2    
   164   82   84 am   BACKBONE|DICT|INTERRES
   165   84   85 1    
   166   84  205 1    
   167   85   86 1    
   168   85   87 1    
   169   85  206 1    
   170   86  207 1    
   171   86  208 1    
   172   86  209 1    
   173   87   88 2    
   174   87   89 am   BACKBONE|DICT|INTERRES
   175   89   90 1    
   176   89  210 1    
   177   90   91 1    
   178   90   92 1    
   179   90  211 1    
   180   91  212 1    
   181   91  213 1    
   182   91  214 1    
   183   92   93 2    
   184   92   94 am   BACKBONE|DICT|INTERRES
   185   94   95 1    
   186   94  215 1    
   187   95   96 1    
   188   95   97 1    
   189   95  216 1    
   190   96  217 1    
   191   96  218 1    
   192   96  219 1    
   193   97   98 2    
   194   97   99 am   BACKBONE|DICT|INTERRES
   195   99  100 1    
   196   99  220 1    
   197  100  101 1    
   198  100  102 1    
   199  100  221 1    
   200  101  222 1    
   201  101  223 1    
   202  101  224 1    
   203  102  103 2    
   204  102  104 am   BACKBONE|DICT|INTERRES
   205  104  105 1    
   206  104  225 1    
   207  105  106 1    
   208  105  107 1    
   209  105  226 1    
   210  106  227 1    
   211  106  228 1    
   212  106  229 1    
   213  107  108 2    
   214  107  109 am   BACKBONE|DICT|INTERRES
   215  109  110 1    
   216  109  230 1    
   217  110  111 1    
   218  110  112 1    
   219  110  231 1    
   220  111  232 1    
   221  111  233 1    
   222  111  234 1    
   223  112  113 2    
   224  112  114 am   BACKBONE|DICT|INTERRES
   225  114  115 1    
   226  114  235 1    
   227  115  116 1    
   228  115  117 1    
   229  115  236 1    
   230  116  237 1    
   231  116  238 1    
   232  116  239 1    
   233  117  118 2    
   234  117  119 am   BACKBONE|DICT|INTERRES
   235  119  120 1    
   236  119  240 1    
   237  120  121 1    
   238  120  124 1    
   239  120  241 1    
   240  121  122 am   BACKBONE|DICT|INTERRES
   241  121  123 2    
   242  122  242 1    
   243  122  243 1    
   244  124  125 1    
   245  124  244 1    
   246  124  245 1    
   247  125  126 1    
   248  126  246 1    
   249  126  247 1    
@<TRIPOS>SUBSTRUCTURE
     1 UNK         1 GROUP             0       ****    0 ROOT    
