@<TRIPOS>MOLECULE
3R540
247   249    1
SMALL
USER_CHARGES


@<TRIPOS>ATOM
      1 CA         -1.9312  -14.8069  -47.9317 C.3       0 UNK        -0.1800 
      2 C          -1.0062  -13.6057  -47.8043 C.2       0 UNK         0.5000 
      3 O          -0.9043  -13.0231  -46.7240 O.2       0 UNK        -0.5000 
      4 N          -0.3293  -13.2383  -48.9016 N.am      1 UNK        -0.5000 
      5 CA          0.5061  -12.0338  -49.0407 C.3       1 UNK         0.1400 
      6 C6          1.0197  -11.8468  -50.4884 C.3       23 UNK        -0.0398 
      7 S7         -0.3264  -11.7148  -51.7120 S.3       23 UNK        -0.2404 
      8 C8          0.1363  -13.0059  -52.9079 C.3       23 UNK        -0.0205 
      9 C9         -0.2826  -14.3940  -52.4480 C.ar      23 UNK        -0.0193 
     10 C10        -1.6054  -14.8100  -52.6265 C.ar      23 UNK        -0.1150 
     11 C11        -1.9981  -16.1014  -52.2674 C.ar      23 UNK        -0.0193 
     12 C12        -1.0539  -16.9758  -51.7255 C.ar      23 UNK        -0.1150 
     13 C13         0.2673  -16.5711  -51.5243 C.ar      23 UNK        -0.0193 
     14 C14         0.6488  -15.2751  -51.8863 C.ar      23 UNK        -0.1150 
     15 C15         1.2822  -17.5576  -50.9613 C.3       23 UNK        -0.0205 
     16 S16         1.4366  -17.4790  -49.1434 S.3       23 UNK        -0.2404 
     17 C17        -0.2342  -17.9522  -48.5828 C.3       23 UNK        -0.0398 
     18 CA         -0.5247  -19.4757  -48.6611 C.3       11 UNK         0.1400 
     19 N           0.1579  -20.1891  -47.5801 N.am      11 UNK        -0.5000 
     20 C           0.4700  -21.4888  -47.5461 C.2       10 UNK         0.5000 
     21 O           0.2625  -22.2728  -48.4711 O.2       10 UNK        -0.5000 
     22 CA          1.0515  -22.0051  -46.2129 C.3       10 UNK         0.1400 
     23 CB          2.5748  -21.8161  -46.1532 C.3       10 UNK        -0.1800 
     24 N           0.4144  -21.3800  -45.0471 N.am      10 UNK        -0.5000 
     25 C          -0.8843  -21.5209  -44.7399 C.2       9 UNK         0.5000 
     26 O          -1.6481  -22.2571  -45.3634 O.2       9 UNK        -0.5000 
     27 CA         -1.4442  -20.6684  -43.5869 C.3       9 UNK         0.1400 
     28 CB         -1.2055  -21.3552  -42.2351 C.3       9 UNK        -0.1800 
     29 N          -0.8900  -19.3142  -43.5667 N.am      9 UNK        -0.5000 
     30 C          -1.1266  -18.3827  -44.5036 C.2       8 UNK         0.5000 
     31 O          -1.9122  -18.5355  -45.4365 O.2       8 UNK        -0.5000 
     32 CA         -0.3040  -17.0833  -44.4232 C.3       8 UNK         0.1400 
     33 CB         -0.9605  -16.0667  -43.4787 C.3       8 UNK        -0.1800 
     34 N           1.0745  -17.3272  -44.0049 N.am      8 UNK        -0.5000 
     35 C           1.9686  -18.0533  -44.6869 C.2       7 UNK         0.5000 
     36 O           1.7413  -18.5340  -45.7942 O.2       7 UNK        -0.5000 
     37 CA          3.3097  -18.3458  -43.9920 C.3       7 UNK         0.1400 
     38 CB          4.3230  -17.2191  -44.2193 C.3       7 UNK        -0.1800 
     39 N           3.1390  -18.5526  -42.5566 N.am      7 UNK        -0.5000 
     40 C           2.6859  -19.6866  -42.0101 C.2       6 UNK         0.5000 
     41 O           2.3750  -20.6821  -42.6648 O.2       6 UNK        -0.5000 
     42 CA          2.5333  -19.6967  -40.4776 C.3       6 UNK         0.1400 
     43 CB          3.8682  -20.0480  -39.8039 C.3       6 UNK        -0.1800 
     44 N           2.0412  -18.4238  -39.9436 N.am      6 UNK        -0.5000 
     45 C           0.8025  -17.9582  -40.1505 C.2       5 UNK         0.5000 
     46 O          -0.0425  -18.5468  -40.8248 O.2       5 UNK        -0.5000 
     47 CA          0.4549  -16.5918  -39.5287 C.3       5 UNK         0.1400 
     48 CB          0.1385  -16.7477  -38.0332 C.3       5 UNK        -0.1800 
     49 N           1.4549  -15.5297  -39.7044 N.am      5 UNK        -0.5000 
     50 C           2.0262  -15.1730  -40.8625 C.2       4 UNK         0.5000 
     51 O           1.9687  -15.8394  -41.8941 O.2       4 UNK        -0.5000 
     52 CA          2.7876  -13.8378  -40.8930 C.3       4 UNK         0.1400 
     53 CB          4.3035  -14.0834  -40.9181 C.3       4 UNK        -0.1800 
     54 N           2.4099  -13.0575  -42.0738 N.am      4 UNK        -0.5000 
     55 C           1.1904  -12.5641  -42.3239 C.2       3 UNK         0.5000 
     56 O           0.2571  -12.6342  -41.5226 O.2       3 UNK        -0.5000 
     57 CA          0.9506  -11.8734  -43.6837 C.3       3 UNK         0.1400 
     58 CB          1.3188  -10.3795  -43.6123 C.3       3 UNK        -0.1800 
     59 N           1.5662  -12.5105  -44.8577 N.am      3 UNK        -0.5000 
     60 C           2.8657  -12.6528  -45.1643 C.2       2 UNK         0.5000 
     61 O           3.7875  -12.3406  -44.4097 O.2       2 UNK        -0.5000 
     62 CA          3.2066  -13.2361  -46.5523 C.3       2 UNK         0.1400 
     63 CB          3.5991  -14.7122  -46.4372 C.3       2 UNK        -0.1800 
     64 N           2.1261  -13.1164  -47.5303 N.am      2 UNK        -0.5000 
     65 C           1.6981  -11.9632  -48.0611 C.2       1 UNK         0.5000 
     66 O           2.2044  -10.8693  -47.8073 O.2       1 UNK        -0.5000 
     67 C          -2.0534  -19.7334  -48.7143 C.2       11 UNK         0.5000 
     68 O          -2.7205  -19.1111  -49.5419 O.2       11 UNK        -0.5000 
     69 N          -2.6145  -20.6033  -47.8607 N.am      12 UNK        -0.5000 
     70 CA         -4.0520  -20.8614  -47.8119 C.3       12 UNK         0.1400 
     71 CB         -4.7703  -19.7510  -47.0143 C.3       12 UNK        -0.1800 
     72 C          -4.3363  -22.2743  -47.2855 C.2       12 UNK         0.5000 
     73 O          -4.3422  -23.2234  -48.0717 O.2       12 UNK        -0.5000 
     74 N          -4.6069  -22.3776  -45.9773 N.am      13 UNK        -0.5000 
     75 CA         -5.1031  -23.5524  -45.2552 C.3       13 UNK         0.1400 
     76 CB         -5.1511  -23.2236  -43.7555 C.3       13 UNK        -0.1800 
     77 C          -4.3289  -24.8628  -45.4854 C.2       13 UNK         0.5000 
     78 O          -4.9548  -25.9212  -45.5540 O.2       13 UNK        -0.5000 
     79 N          -3.0013  -24.7780  -45.6445 N.am      14 UNK        -0.5000 
     80 CA         -2.1233  -25.9204  -45.9235 C.3       14 UNK         0.1400 
     81 CB         -0.6630  -25.4581  -45.8595 C.3       14 UNK        -0.1800 
     82 C          -2.3967  -26.5937  -47.2840 C.2       14 UNK         0.5000 
     83 O          -2.1142  -27.7820  -47.4404 O.2       14 UNK        -0.5000 
     84 N          -2.9526  -25.8266  -48.2288 N.am      15 UNK        -0.5000 
     85 CA         -3.3746  -26.2683  -49.5557 C.3       15 UNK         0.1400 
     86 CB         -2.7237  -25.3418  -50.5943 C.3       15 UNK        -0.1800 
     87 C          -4.9113  -26.2572  -49.6789 C.2       15 UNK         0.5000 
     88 O          -5.4278  -26.2134  -50.7961 O.2       15 UNK        -0.5000 
     89 N          -5.6188  -26.2460  -48.5363 N.am      16 UNK        -0.5000 
     90 CA         -7.0792  -26.1925  -48.3872 C.3       16 UNK         0.1400 
     91 CB         -7.7154  -27.5086  -48.8802 C.3       16 UNK        -0.1800 
     92 C          -7.7319  -24.9462  -49.0278 C.2       16 UNK         0.5000 
     93 O          -8.9189  -24.9801  -49.3562 O.2       16 UNK        -0.5000 
     94 N          -6.9410  -23.8754  -49.2017 N.am      17 UNK        -0.5000 
     95 CA         -7.2734  -22.6222  -49.8841 C.3       17 UNK         0.1400 
     96 CB         -8.2855  -21.8045  -49.0561 C.3       17 UNK        -0.1800 
     97 C          -7.6955  -22.8178  -51.3586 C.2       17 UNK         0.5000 
     98 O          -8.5618  -22.0911  -51.8492 O.2       17 UNK        -0.5000 
     99 N          -7.0772  -23.7990  -52.0345 N.am      18 UNK        -0.5000 
    100 CA        -7.2470  -24.0818  -53.4600 C.3       18 UNK         0.1400 
    101 CB        -6.9653  -25.5778  -53.7053 C.3       18 UNK        -0.1800 
    102 C         -6.3711  -23.1289  -54.3044 C.2       18 UNK         0.5000 
    103 O         -6.5593  -21.9135  -54.2341 O.2       18 UNK        -0.5000 
    104 N         -5.4303  -23.6750  -55.0903 N.am      19 UNK        -0.5000 
    105 CA        -4.4556  -22.9021  -55.8686 C.3       19 UNK         0.1400 
    106 CB        -3.7130  -23.8346  -56.8381 C.3       19 UNK        -0.1800 
    107 C         -3.4641  -22.1480  -54.9628 C.2       19 UNK         0.5000 
    108 O         -3.1716  -20.9813  -55.2213 O.2       19 UNK        -0.5000 
    109 N         -2.9959  -22.8431  -53.9128 N.am      20 UNK        -0.5000 
    110 CA        -2.2820  -22.3496  -52.7263 C.3       20 UNK         0.1400 
    111 CB        -3.2998  -21.7264  -51.7528 C.3       20 UNK        -0.1800 
    112 C         -1.0642  -21.4332  -52.9838 C.2       20 UNK         0.5000 
    113 O         -0.7172  -20.6215  -52.1260 O.2       20 UNK        -0.5000 
    114 N         -0.4332  -21.5925  -54.1567 N.am      21 UNK        -0.5000 
    115 CA         0.6845  -20.7994  -54.6811 C.3       21 UNK         0.1400 
    116 CB         1.9539  -21.0112  -53.8281 C.3       21 UNK        -0.1800 
    117 C          0.3513  -19.3038  -54.8946 C.2       21 UNK         0.5000 
    118 O          1.2653  -18.4766  -54.9029 O.2       21 UNK        -0.5000 
    119 N         -0.9361  -18.9775  -55.0755 N.am      22 UNK        -0.5000 
    120 CA        -1.4191  -17.6122  -55.3289 C.3       22 UNK         0.1400 
    121 C         -1.0125  -17.0803  -56.7311 C.2       22 UNK         0.5000 
    122 N         -0.7635  -15.7838  -56.8598 N.am      22 UNK        -0.7600 
    123 O         -0.9625  -17.8197  -57.7122 O.2       22 UNK        -0.5000 
    124 C124       -2.9524  -17.4791  -55.1277 C.3       23 UNK        -0.0398 
    125 S125       -3.5467  -18.0622  -53.5018 S.3       23 UNK        -0.2404 
    126 C126       -3.4346  -16.5591  -52.4774 C.3       23 UNK        -0.0205 
    127 H127       -2.9542  -14.5155  -47.6947 H         1 UNK         0.0600 
    128 H128       -1.6329  -15.5896  -47.2355 H         1 UNK         0.0600 
    129 H129       -1.9236  -15.2171  -48.9419 H         1 UNK         0.0600 
    130 H130       -0.4615  -13.7625  -49.7557 H         1 UNK         0.3000 
    131 H131       -0.1347  -11.1825  -48.8015 H         1 UNK         0.0600 
    132 H132        1.6116  -10.9328  -50.5687 H         1 UNK         0.0800 
    133 H133        1.6911  -12.6631  -50.7589 H         1 UNK         0.0800 
    134 H134        1.2089  -12.9673  -53.1049 H         1 UNK         0.0800 
    135 H135       -0.3485  -12.7842  -53.8598 H         1 UNK         0.0800 
    136 H136       -2.3250  -14.1287  -53.0585 H         1 UNK         0.1150 
    137 H137       -1.3494  -17.9844  -51.4712 H         1 UNK         0.1150 
    138 H138        1.6752  -14.9638  -51.7523 H         1 UNK         0.1150 
    139 H139        1.0204  -18.5733  -51.2616 H         1 UNK         0.0800 
    140 H140        2.2608  -17.3628  -51.4023 H         1 UNK         0.0800 
    141 H141       -0.9531  -17.3626  -49.1462 H         1 UNK         0.0800 
    142 H142       -0.3469  -17.6117  -47.5547 H         1 UNK         0.0800 
    143 H143       -0.1334  -19.8522  -49.6071 H         1 UNK         0.0600 
    144 H144        0.4473  -19.6170  -46.7924 H         1 UNK         0.3000 
    145 H145        0.8603  -23.0748  -46.1542 H         1 UNK         0.0600 
    146 H146        2.9796  -22.1605  -45.2013 H         1 UNK         0.0600 
    147 H147        3.0639  -22.3891  -46.9416 H         1 UNK         0.0600 
    148 H148        2.8658  -20.7754  -46.2851 H         1 UNK         0.0600 
    149 H149        0.9952  -20.7879  -44.4674 H         1 UNK         0.3000 
    150 H150       -2.5230  -20.5860  -43.7349 H         1 UNK         0.0600 
    151 H151       -1.6262  -22.3616  -42.2288 H         1 UNK         0.0600 
    152 H152       -1.6773  -20.8006  -41.4239 H         1 UNK         0.0600 
    153 H153       -0.1432  -21.4413  -42.0067 H         1 UNK         0.0600 
    154 H154       -0.2870  -19.0800  -42.7852 H         1 UNK         0.3000 
    155 H155       -0.2720  -16.6412  -45.4199 H         1 UNK         0.0600 
    156 H156       -1.9797  -15.8419  -43.7953 H         1 UNK         0.0600 
    157 H157       -0.4083  -15.1268  -43.4673 H         1 UNK         0.0600 
    158 H158       -1.0072  -16.4400  -42.4558 H         1 UNK         0.0600 
    159 H159        1.3649  -16.9040  -43.1237 H         1 UNK         0.3000 
    160 H160        3.7220  -19.2575  -44.4296 H         1 UNK         0.0600 
    161 H161        3.9485  -16.2597  -43.8602 H         1 UNK         0.0600 
    162 H162        4.5503  -17.1223  -45.2809 H         1 UNK         0.0600 
    163 H163        5.2633  -17.4242  -43.7075 H         1 UNK         0.0600 
    164 H164        3.2831  -17.7485  -41.9616 H         1 UNK         0.3000 
    165 H165        1.8099  -20.4746  -40.2236 H         1 UNK         0.0600 
    166 H166        3.7527  -20.1386  -38.7237 H         1 UNK         0.0600 
    167 H167        4.2506  -21.0017  -40.1700 H         1 UNK         0.0600 
    168 H168        4.6301  -19.2921  -39.9986 H         1 UNK         0.0600 
    169 H169        2.6825  -17.8730  -39.3918 H         1 UNK         0.3000 
    170 H170       -0.4540  -16.2442  -40.0234 H         1 UNK         0.0600 
    171 H171       -0.6141  -17.5206  -37.8700 H         1 UNK         0.0600 
    172 H172        1.0244  -17.0258  -37.4610 H         1 UNK         0.0600 
    173 H173       -0.2551  -15.8216  -37.6140 H         1 UNK         0.0600 
    174 H174        1.5887  -14.9261  -38.9062 H         1 UNK         0.3000 
    175 H175        2.5373  -13.2570  -40.0031 H         1 UNK         0.0600 
    176 H176        4.6055  -14.6433  -41.8044 H         1 UNK         0.0600 
    177 H177        4.8550  -13.1430  -40.9132 H         1 UNK         0.0600 
    178 H178        4.6224  -14.6528  -40.0441 H         1 UNK         0.0600 
    179 H179        3.1122  -12.9439  -42.7997 H         1 UNK         0.3000 
    180 H180       -0.1238  -11.9306  -43.8665 H         1 UNK         0.0600 
    181 H181        2.3825  -10.2305  -43.4246 H         1 UNK         0.0600 
    182 H182        0.7740   -9.8822  -42.8089 H         1 UNK         0.0600 
    183 H183        1.0672   -9.8675  -44.5413 H         1 UNK         0.0600 
    184 H184        0.8965  -12.8190  -45.5543 H         1 UNK         0.3000 
    185 H185        4.0682  -12.6848  -46.9345 H         1 UNK         0.0600 
    186 H186        4.4685  -14.8202  -45.7888 H         1 UNK         0.0600 
    187 H187        2.7887  -15.3129  -46.0219 H         1 UNK         0.0600 
    188 H188        3.8657  -15.1318  -47.4076 H         1 UNK         0.0600 
    189 H189        1.6527  -13.9680  -47.7948 H         1 UNK         0.3000 
    190 H190       -2.0402  -21.1093  -47.1974 H         1 UNK         0.3000 
    191 H191       -4.4493  -20.8467  -48.8289 H         1 UNK         0.0600 
    192 H192       -4.3551  -19.6319  -46.0131 H         1 UNK         0.0600 
    193 H193       -5.8358  -19.9625  -46.9143 H         1 UNK         0.0600 
    194 H194       -4.6827  -18.7885  -47.5184 H         1 UNK         0.0600 
    195 H195       -4.5392  -21.5331  -45.4297 H         1 UNK         0.3000 
    196 H196       -6.1253  -23.7227  -45.5986 H         1 UNK         0.0600 
    197 H197       -5.5359  -24.0669  -43.1803 H         1 UNK         0.0600 
    198 H198       -5.8038  -22.3733  -43.5571 H         1 UNK         0.0600 
    199 H199       -4.1601  -22.9850  -43.3666 H         1 UNK         0.0600 
    200 H200       -2.5605  -23.8619  -45.5857 H         1 UNK         0.3000 
    201 H201       -2.2853  -26.6652  -45.1416 H         1 UNK         0.0600 
    202 H202       -0.4463  -24.9386  -44.9258 H         1 UNK         0.0600 
    203 H203       -0.4357  -24.7874  -46.6880 H         1 UNK         0.0600 
    204 H204        0.0189  -26.3064  -45.9293 H         1 UNK         0.0600 
    205 H205       -3.1878  -24.8657  -47.9981 H         1 UNK         0.3000 
    206 H206       -3.0440  -27.2905  -49.7488 H         1 UNK         0.0600 
    207 H207       -1.6370  -25.3556  -50.5085 H         1 UNK         0.0600 
    208 H208       -2.9730  -25.6439  -51.6121 H         1 UNK         0.0600 
    209 H209       -3.0568  -24.3129  -50.4589 H         1 UNK         0.0600 
    210 H210       -5.1037  -26.2591  -47.6636 H         1 UNK         0.3000 
    211 H211       -7.2706  -26.1136  -47.3162 H         1 UNK         0.0600 
    212 H212       -7.6223  -27.6222  -49.9608 H         1 UNK         0.0600 
    213 H213       -8.7780  -27.5470  -48.6379 H         1 UNK         0.0600 
    214 H214       -7.2468  -28.3732  -48.4101 H         1 UNK         0.0600 
    215 H215       -5.9813  -23.9412  -48.8753 H         1 UNK         0.3000 
    216 H216       -6.3472  -22.0479  -49.9217 H         1 UNK         0.0600 
    217 H217       -8.4320  -20.8125  -49.4849 H         1 UNK         0.0600 
    218 H218       -7.9352  -21.6652  -48.0332 H         1 UNK         0.0600 
    219 H219       -9.2606  -22.2904  -49.0143 H         1 UNK         0.0600 
    220 H220       -6.4138  -24.3851  -51.5415 H         1 UNK         0.3000 
    221 H221       -8.2855  -23.8926  -53.7392 H         1 UNK         0.0600 
    222 H222       -5.9382  -25.8485  -53.4575 H         1 UNK         0.0600 
    223 H223       -7.6212  -26.2001  -53.0956 H         1 UNK         0.0600 
    224 H224       -7.1459  -25.8501  -54.7460 H         1 UNK         0.0600 
    225 H225       -5.3454  -24.6806  -55.1188 H         1 UNK         0.3000 
    226 H226       -4.9991  -22.1608  -56.4584 H         1 UNK         0.0600 
    227 H227       -4.4051  -24.3127  -57.5314 H         1 UNK         0.0600 
    228 H228       -2.9893  -23.2784  -57.4355 H         1 UNK         0.0600 
    229 H229       -3.1698  -24.6201  -56.3114 H         1 UNK         0.0600 
    230 H230       -3.2815  -23.8096  -53.8560 H         1 UNK         0.3000 
    231 H231       -1.8666  -23.2346  -52.2458 H         1 UNK         0.0600 
    232 H232       -2.8493  -21.5711  -50.7740 H         1 UNK         0.0600 
    233 H233       -4.1640  -22.3744  -51.6069 H         1 UNK         0.0600 
    234 H234       -3.6613  -20.7627  -52.1117 H         1 UNK         0.0600 
    235 H235       -0.8162  -22.2766  -54.7933 H         1 UNK         0.3000 
    236 H236        0.8909  -21.1987  -55.6749 H         1 UNK         0.0600 
    237 H237        2.8262  -20.5639  -54.3058 H         1 UNK         0.0600 
    238 H238        1.8582  -20.5608  -52.8398 H         1 UNK         0.0600 
    239 H239        2.1680  -22.0715  -53.6947 H         1 UNK         0.0600 
    240 H240       -1.6447  -19.7048  -55.0573 H         1 UNK         0.3000 
    241 H241       -0.9279  -16.9702  -54.5979 H         1 UNK         0.0600 
    242 H242       -0.5134  -15.4217  -57.7671 H         1 UNK         0.3800 
    243 H243       -0.8006  -15.1570  -56.0713 H         1 UNK         0.3800 
    244 H244       -3.2679  -16.4430  -55.2616 H         1 UNK         0.0800 
    245 H245       -3.4785  -18.0561  -55.8904 H         1 UNK         0.0800 
    246 H246       -3.8760  -16.7702  -51.5023 H         1 UNK         0.0800 
    247 H247       -4.0391  -15.7704  -52.9275 H         1 UNK         0.0800 
@<TRIPOS>BOND
     1    1    2 1    
     2    1  127 1    
     3    1  128 1    
     4    1  129 1    
     5    2    3 2    
     6    2    4 am   BACKBONE|DICT|INTERRES
     7    4    5 1    
     8    4  130 1    
     9    5    6 1    
    10    5   65 1    
    11    5  131 1    
    12    6    7 1    
    13    6  132 1    
    14    6  133 1    
    15    7    8 1    
    16    8    9 1    
    17    8  134 1    
    18    8  135 1    
    19    9   10 ar   
    20    9   14 ar   
    21   10   11 ar   
    22   10  136 1    
    23   11   12 ar   
    24   11  126 1    
    25   12   13 ar   
    26   12  137 1    
    27   13   14 ar   
    28   13   15 1    
    29   14  138 1    
    30   15   16 1    
    31   15  139 1    
    32   15  140 1    
    33   16   17 1    
    34   17   18 1    
    35   17  141 1    
    36   17  142 1    
    37   18   19 1    
    38   18   67 1    
    39   18  143 1    
    40   19   20 am   BACKBONE|DICT|INTERRES
    41   19  144 1    
    42   20   21 2    
    43   20   22 1    
    44   22   23 1    
    45   22   24 1    
    46   22  145 1    
    47   23  146 1    
    48   23  147 1    
    49   23  148 1    
    50   24   25 am   BACKBONE|DICT|INTERRES
    51   24  149 1    
    52   25   26 2    
    53   25   27 1    
    54   27   28 1    
    55   27   29 1    
    56   27  150 1    
    57   28  151 1    
    58   28  152 1    
    59   28  153 1    
    60   29   30 am   BACKBONE|DICT|INTERRES
    61   29  154 1    
    62   30   31 2    
    63   30   32 1    
    64   32   33 1    
    65   32   34 1    
    66   32  155 1    
    67   33  156 1    
    68   33  157 1    
    69   33  158 1    
    70   34   35 am   BACKBONE|DICT|INTERRES
    71   34  159 1    
    72   35   36 2    
    73   35   37 1    
    74   37   38 1    
    75   37   39 1    
    76   37  160 1    
    77   38  161 1    
    78   38  162 1    
    79   38  163 1    
    80   39   40 am   BACKBONE|DICT|INTERRES
    81   39  164 1    
    82   40   41 2    
    83   40   42 1    
    84   42   43 1    
    85   42   44 1    
    86   42  165 1    
    87   43  166 1    
    88   43  167 1    
    89   43  168 1    
    90   44   45 am   BACKBONE|DICT|INTERRES
    91   44  169 1    
    92   45   46 2    
    93   45   47 1    
    94   47   48 1    
    95   47   49 1    
    96   47  170 1    
    97   48  171 1    
    98   48  172 1    
    99   48  173 1    
   100   49   50 am   BACKBONE|DICT|INTERRES
   101   49  174 1    
   102   50   51 2    
   103   50   52 1    
   104   52   53 1    
   105   52   54 1    
   106   52  175 1    
   107   53  176 1    
   108   53  177 1    
   109   53  178 1    
   110   54   55 am   BACKBONE|DICT|INTERRES
   111   54  179 1    
   112   55   56 2    
   113   55   57 1    
   114   57   58 1    
   115   57   59 1    
   116   57  180 1    
   117   58  181 1    
   118   58  182 1    
   119   58  183 1    
   120   59   60 am   BACKBONE|DICT|INTERRES
   121   59  184 1    
   122   60   61 2    
   123   60   62 1    
   124   62   63 1    
   125   62   64 1    
   126   62  185 1    
   127   63  186 1    
   128   63  187 1    
   129   63  188 1    
   130   64   65 am   BACKBONE|DICT|INTERRES
   131   64  189 1    
   132   65   66 2    
   133   67   68 2    
   134   67   69 am   BACKBONE|DICT|INTERRES
   135   69   70 1    
   136   69  190 1    
   137   70   71 1    
   138   70   72 1    
   139   70  191 1    
   140   71  192 1    
   141   71  193 1    
   142   71  194 1    
   143   72   73 2    
   144   72   74 am   BACKBONE|DICT|INTERRES
   145   74   75 1    
   146   74  195 1    
   147   75   76 1    
   148   75   77 1    
   149   75  196 1    
   150   76  197 1    
   151   76  198 1    
   152   76  199 1    
   153   77   78 2    
   154   77   79 am   BACKBONE|DICT|INTERRES
   155   79   80 1    
   156   79  200 1    
   157   80   81 1    
   158   80   82 1    
   159   80  201 1    
   160   81  202 1    
   161   81  203 1    
   162   81  204 1    
   163   82   83 2    
   164   82   84 am   BACKBONE|DICT|INTERRES
   165   84   85 1    
   166   84  205 1    
   167   85   86 1    
   168   85   87 1    
   169   85  206 1    
   170   86  207 1    
   171   86  208 1    
   172   86  209 1    
   173   87   88 2    
   174   87   89 am   BACKBONE|DICT|INTERRES
   175   89   90 1    
   176   89  210 1    
   177   90   91 1    
   178   90   92 1    
   179   90  211 1    
   180   91  212 1    
   181   91  213 1    
   182   91  214 1    
   183   92   93 2    
   184   92   94 am   BACKBONE|DICT|INTERRES
   185   94   95 1    
   186   94  215 1    
   187   95   96 1    
   188   95   97 1    
   189   95  216 1    
   190   96  217 1    
   191   96  218 1    
   192   96  219 1    
   193   97   98 2    
   194   97   99 am   BACKBONE|DICT|INTERRES
   195   99  100 1    
   196   99  220 1    
   197  100  101 1    
   198  100  102 1    
   199  100  221 1    
   200  101  222 1    
   201  101  223 1    
   202  101  224 1    
   203  102  103 2    
   204  102  104 am   BACKBONE|DICT|INTERRES
   205  104  105 1    
   206  104  225 1    
   207  105  106 1    
   208  105  107 1    
   209  105  226 1    
   210  106  227 1    
   211  106  228 1    
   212  106  229 1    
   213  107  108 2    
   214  107  109 am   BACKBONE|DICT|INTERRES
   215  109  110 1    
   216  109  230 1    
   217  110  111 1    
   218  110  112 1    
   219  110  231 1    
   220  111  232 1    
   221  111  233 1    
   222  111  234 1    
   223  112  113 2    
   224  112  114 am   BACKBONE|DICT|INTERRES
   225  114  115 1    
   226  114  235 1    
   227  115  116 1    
   228  115  117 1    
   229  115  236 1    
   230  116  237 1    
   231  116  238 1    
   232  116  239 1    
   233  117  118 2    
   234  117  119 am   BACKBONE|DICT|INTERRES
   235  119  120 1    
   236  119  240 1    
   237  120  121 1    
   238  120  124 1    
   239  120  241 1    
   240  121  122 am   BACKBONE|DICT|INTERRES
   241  121  123 2    
   242  122  242 1    
   243  122  243 1    
   244  124  125 1    
   245  124  244 1    
   246  124  245 1    
   247  125  126 1    
   248  126  246 1    
   249  126  247 1    
@<TRIPOS>SUBSTRUCTURE
     1 UNK         1 GROUP             0       ****    0 ROOT    
