@<TRIPOS>MOLECULE
3R540
247   249    1
SMALL
USER_CHARGES


@<TRIPOS>ATOM
      1 CA          1.5288  -10.5795  -46.2896 C.3       0 UNK        -0.1800 
      2 C           0.9980  -11.8337  -46.9699 C.2       0 UNK         0.5000 
      3 O           1.7827  -12.6570  -47.4392 O.2       0 UNK        -0.5000 
      4 N          -0.3291  -11.9730  -47.0375 N.am      1 UNK        -0.5000 
      5 CA         -1.0215  -13.1256  -47.6144 C.3       1 UNK         0.1400 
      6 C6         -2.3554  -12.7179  -48.2890 C.3       23 UNK        -0.0398 
      7 S7         -3.4319  -11.5339  -47.3867 S.3       23 UNK        -0.2404 
      8 C8         -4.2760  -12.5033  -46.0800 C.3       23 UNK        -0.0205 
      9 C9         -4.7594  -13.8916  -46.4899 C.ar      23 UNK        -0.0193 
     10 C10        -5.2785  -14.1418  -47.7646 C.ar      23 UNK        -0.1150 
     11 C11        -5.5802  -15.4453  -48.1627 C.ar      23 UNK        -0.0193 
     12 C12        -5.4664  -16.4904  -47.2444 C.ar      23 UNK        -0.1150 
     13 C13        -4.9963  -16.2483  -45.9524 C.ar      23 UNK        -0.0193 
     14 C14        -4.6441  -14.9486  -45.5813 C.ar      23 UNK        -0.1150 
     15 C15        -4.8262  -17.3984  -44.9761 C.3       23 UNK        -0.0205 
     16 S16        -3.0872  -17.9236  -44.8821 S.3       23 UNK        -0.2404 
     17 C17        -3.2659  -19.5232  -44.0261 C.3       23 UNK        -0.0398 
     18 CA         -2.9270  -20.7102  -44.9599 C.3       11 UNK         0.1400 
     19 N          -1.5246  -20.6962  -45.3670 N.am      11 UNK        -0.5000 
     20 C          -1.0585  -21.2535  -46.4879 C.2       10 UNK         0.5000 
     21 O          -1.7693  -21.8024  -47.3247 O.2       10 UNK        -0.5000 
     22 CA          0.4648  -21.2366  -46.6837 C.3       10 UNK         0.1400 
     23 CB          0.9173  -19.9224  -47.3240 C.3       10 UNK        -0.1800 
     24 N           1.1875  -21.4483  -45.4326 N.am      10 UNK        -0.5000 
     25 C           1.1423  -22.5866  -44.7291 C.2       9 UNK         0.5000 
     26 O           0.5088  -23.5814  -45.0854 O.2       9 UNK        -0.5000 
     27 CA          1.8884  -22.6076  -43.3832 C.3       9 UNK         0.1400 
     28 CB          3.3093  -23.1561  -43.5760 C.3       9 UNK        -0.1800 
     29 N           1.9639  -21.3132  -42.6955 N.am      9 UNK        -0.5000 
     30 C           0.9276  -20.5332  -42.3540 C.2       8 UNK         0.5000 
     31 O          -0.2380  -20.7739  -42.6742 O.2       8 UNK        -0.5000 
     32 CA          1.2267  -19.2858  -41.5074 C.3       8 UNK         0.1400 
     33 CB          2.7273  -18.9950  -41.3032 C.3       8 UNK        -0.1800 
     34 N           0.6037  -18.1211  -42.1265 N.am      8 UNK        -0.5000 
     35 C          -0.2505  -17.2876  -41.5197 C.2       7 UNK         0.5000 
     36 O          -0.6850  -17.4742  -40.3812 O.2       7 UNK        -0.5000 
     37 CA         -0.6895  -16.0268  -42.3025 C.3       7 UNK         0.1400 
     38 CB         -0.9981  -14.8343  -41.3747 C.3       7 UNK        -0.1800 
     39 N           0.2350  -15.6063  -43.3620 N.am      7 UNK        -0.5000 
     40 C           1.5389  -15.3152  -43.2514 C.2       6 UNK         0.5000 
     41 O           2.1800  -15.3586  -42.1992 O.2       6 UNK        -0.5000 
     42 CA          2.2521  -14.9287  -44.5606 C.3       6 UNK         0.1400 
     43 CB          2.9941  -13.5930  -44.3903 C.3       6 UNK        -0.1800 
     44 N           3.2043  -15.9327  -45.0451 N.am      6 UNK        -0.5000 
     45 C           3.0297  -17.2593  -45.1313 C.2       5 UNK         0.5000 
     46 O           2.0338  -17.8720  -44.7356 O.2       5 UNK        -0.5000 
     47 CA          4.1527  -18.0217  -45.8470 C.3       5 UNK         0.1400 
     48 CB          4.3331  -19.4475  -45.2809 C.3       5 UNK        -0.1800 
     49 N           3.8331  -18.0444  -47.2743 N.am      5 UNK        -0.5000 
     50 C           4.6284  -18.5055  -48.2502 C.2       4 UNK         0.5000 
     51 O           5.7638  -18.9407  -48.0542 O.2       4 UNK        -0.5000 
     52 CA          4.0876  -18.4760  -49.6962 C.3       4 UNK         0.1400 
     53 CB          3.5837  -19.8585  -50.1431 C.3       4 UNK        -0.1800 
     54 N           3.0327  -17.4863  -49.9164 N.am      4 UNK        -0.5000 
     55 C           3.2524  -16.1686  -49.9994 C.2       3 UNK         0.5000 
     56 O           4.3680  -15.6576  -49.8921 O.2       3 UNK        -0.5000 
     57 CA          2.0367  -15.2608  -50.2643 C.3       3 UNK         0.1400 
     58 CB          1.9641  -14.8985  -51.7557 C.3       3 UNK        -0.1800 
     59 N           0.7272  -15.7733  -49.8442 N.am      3 UNK        -0.5000 
     60 C           0.3860  -16.0962  -48.5914 C.2       2 UNK         0.5000 
     61 O           1.1970  -16.3251  -47.6934 O.2       2 UNK        -0.5000 
     62 CA         -1.1232  -16.0971  -48.2779 C.3       2 UNK         0.1400 
     63 CB         -1.7144  -17.5119  -48.3160 C.3       2 UNK        -0.1800 
     64 N          -1.3686  -15.5244  -46.9528 N.am      2 UNK        -0.5000 
     65 C          -1.2118  -14.2493  -46.5627 C.2       1 UNK         0.5000 
     66 O          -1.2449  -13.9553  -45.3676 O.2       1 UNK        -0.5000 
     67 C          -3.2702  -22.0503  -44.2840 C.2       11 UNK         0.5000 
     68 O          -4.2882  -22.6576  -44.6162 O.2       11 UNK        -0.5000 
     69 N          -2.4222  -22.4710  -43.3360 N.am      12 UNK        -0.5000 
     70 CA         -2.6809  -23.5888  -42.4316 C.3       12 UNK         0.1400 
     71 CB         -1.7248  -23.4954  -41.2324 C.3       12 UNK        -0.1800 
     72 C          -2.5873  -24.9769  -43.0874 C.2       12 UNK         0.5000 
     73 O          -3.4106  -25.8374  -42.7720 O.2       12 UNK        -0.5000 
     74 N          -1.5849  -25.1850  -43.9512 N.am      13 UNK        -0.5000 
     75 CA         -1.2688  -26.4893  -44.5357 C.3       13 UNK         0.1400 
     76 CB          0.1878  -26.8589  -44.2078 C.3       13 UNK        -0.1800 
     77 C          -1.5073  -26.5108  -46.0510 C.2       13 UNK         0.5000 
     78 O          -2.1069  -27.4649  -46.5483 O.2       13 UNK        -0.5000 
     79 N          -1.0397  -25.4757  -46.7645 N.am      14 UNK        -0.5000 
     80 CA         -1.1249  -25.4059  -48.2295 C.3       14 UNK         0.1400 
     81 CB         -0.0425  -24.4549  -48.7653 C.3       14 UNK        -0.1800 
     82 C          -2.5243  -25.0087  -48.7457 C.2       14 UNK         0.5000 
     83 O          -2.8109  -25.2238  -49.9230 O.2       14 UNK        -0.5000 
     84 N          -3.3645  -24.4524  -47.8605 N.am      15 UNK        -0.5000 
     85 CA         -4.7426  -24.0104  -48.0967 C.3       15 UNK         0.1400 
     86 CB         -5.6684  -25.2102  -48.3864 C.3       15 UNK        -0.1800 
     87 C          -4.8601  -22.8640  -49.1256 C.2       15 UNK         0.5000 
     88 O          -5.8157  -22.8183  -49.9038 O.2       15 UNK        -0.5000 
     89 N          -3.8962  -21.9347  -49.0656 N.am      16 UNK        -0.5000 
     90 CA         -3.8421  -20.6281  -49.7182 C.3       16 UNK         0.1400 
     91 CB         -4.8078  -19.6646  -49.0024 C.3       16 UNK        -0.1800 
     92 C          -4.0477  -20.6924  -51.2424 C.2       16 UNK         0.5000 
     93 O          -3.1149  -21.0418  -51.9683 O.2       16 UNK        -0.5000 
     94 N          -5.2641  -20.3698  -51.7025 N.am      17 UNK        -0.5000 
     95 CA         -5.6850  -20.3936  -53.1033 C.3       17 UNK         0.1400 
     96 CB         -7.1285  -19.8797  -53.2018 C.3       17 UNK        -0.1800 
     97 C          -5.5546  -21.7748  -53.7739 C.2       17 UNK         0.5000 
     98 O          -5.3330  -21.8298  -54.9831 O.2       17 UNK        -0.5000 
     99 N          -5.6271  -22.8588  -52.9863 N.am      18 UNK        -0.5000 
    100 CA        -5.3973  -24.2325  -53.4455 C.3       18 UNK         0.1400 
    101 CB        -5.7895  -25.2088  -52.3294 C.3       18 UNK        -0.1800 
    102 C         -3.9438  -24.4914  -53.8954 C.2       18 UNK         0.5000 
    103 O         -3.7197  -25.3495  -54.7496 O.2       18 UNK        -0.5000 
    104 N         -2.9943  -23.7281  -53.3389 N.am      19 UNK        -0.5000 
    105 CA        -1.5772  -23.7281  -53.7047 C.3       19 UNK         0.1400 
    106 CB        -0.7468  -23.7079  -52.4115 C.3       19 UNK        -0.1800 
    107 C         -1.2178  -22.5322  -54.6103 C.2       19 UNK         0.5000 
    108 O         -0.0369  -22.3208  -54.8874 O.2       19 UNK        -0.5000 
    109 N         -2.2313  -21.7585  -55.0316 N.am      20 UNK        -0.5000 
    110 CA        -2.1607  -20.5177  -55.8109 C.3       20 UNK         0.1400 
    111 CB        -1.5489  -20.7668  -57.2047 C.3       20 UNK        -0.1800 
    112 C         -1.4830  -19.3445  -55.0690 C.2       20 UNK         0.5000 
    113 O         -1.1590  -18.3362  -55.6984 O.2       20 UNK        -0.5000 
    114 N         -1.3331  -19.4492  -53.7398 N.am      21 UNK        -0.5000 
    115 CA        -0.6962  -18.4438  -52.8810 C.3       21 UNK         0.1400 
    116 CB        -0.2555  -19.1141  -51.5702 C.3       21 UNK        -0.1800 
    117 C         -1.5719  -17.1968  -52.6259 C.2       21 UNK         0.5000 
    118 O         -1.0937  -16.2367  -52.0197 O.2       21 UNK        -0.5000 
    119 N         -2.8180  -17.2291  -53.1103 N.am      22 UNK        -0.5000 
    120 CA        -3.7442  -16.0911  -53.2192 C.3       22 UNK         0.1400 
    121 C         -4.2155  -15.8688  -54.6882 C.2       22 UNK         0.5000 
    122 N         -3.5495  -16.4230  -55.6969 N.am      22 UNK        -0.7600 
    123 O         -5.1947  -15.1687  -54.9299 O.2       22 UNK        -0.5000 
    124 C124       -4.9311  -16.2127  -52.2261 C.3       23 UNK        -0.0398 
    125 S125       -4.3624  -16.0666  -50.5062 S.3       23 UNK        -0.2404 
    126 C126       -5.9119  -15.7351  -49.6144 C.3       23 UNK        -0.0205 
    127 H127        0.7272   -9.9921  -45.8412 H         1 UNK         0.0600 
    128 H128        2.0460   -9.9520  -47.0152 H         1 UNK         0.0600 
    129 H129        2.2357  -10.8432  -45.5039 H         1 UNK         0.0600 
    130 H130       -0.9317  -11.2854  -46.6075 H         1 UNK         0.3000 
    131 H131       -0.3858  -13.5063  -48.4120 H         1 UNK         0.0600 
    132 H132       -2.9166  -13.5957  -48.6016 H         1 UNK         0.0800 
    133 H133       -2.1086  -12.2199  -49.2276 H         1 UNK         0.0800 
    134 H134       -5.1331  -11.9309  -45.7240 H         1 UNK         0.0800 
    135 H135       -3.5929  -12.5819  -45.2330 H         1 UNK         0.0800 
    136 H136       -5.3628  -13.3361  -48.4799 H         1 UNK         0.1150 
    137 H137       -5.7041  -17.4981  -47.5485 H         1 UNK         0.1150 
    138 H138       -4.2439  -14.7692  -44.5931 H         1 UNK         0.1150 
    139 H139       -5.4475  -18.2416  -45.2826 H         1 UNK         0.0800 
    140 H140       -5.1712  -17.0999  -43.9850 H         1 UNK         0.0800 
    141 H141       -2.6120  -19.5157  -43.1524 H         1 UNK         0.0800 
    142 H142       -4.2823  -19.6141  -43.6387 H         1 UNK         0.0800 
    143 H143       -3.5551  -20.6255  -45.8499 H         1 UNK         0.0600 
    144 H144       -0.8670  -20.3293  -44.6913 H         1 UNK         0.3000 
    145 H145        0.7327  -22.0474  -47.3607 H         1 UNK         0.0600 
    146 H146        0.4358  -19.7676  -48.2902 H         1 UNK         0.0600 
    147 H147        1.9904  -19.9393  -47.4915 H         1 UNK         0.0600 
    148 H148        0.6904  -19.0633  -46.6927 H         1 UNK         0.0600 
    149 H149        1.6936  -20.6610  -45.0539 H         1 UNK         0.3000 
    150 H150        1.3483  -23.2930  -42.7285 H         1 UNK         0.0600 
    151 H151        3.9169  -22.4919  -44.1921 H         1 UNK         0.0600 
    152 H152        3.2895  -24.1313  -44.0649 H         1 UNK         0.0600 
    153 H153        3.8164  -23.2855  -42.6197 H         1 UNK         0.0600 
    154 H154        2.8840  -21.0287  -42.3932 H         1 UNK         0.3000 
    155 H155        0.7886  -19.4820  -40.5272 H         1 UNK         0.0600 
    156 H156        2.8657  -18.1121  -40.6785 H         1 UNK         0.0600 
    157 H157        3.2357  -18.8042  -42.2481 H         1 UNK         0.0600 
    158 H158        3.2337  -19.8201  -40.8011 H         1 UNK         0.0600 
    159 H159        0.9074  -17.9112  -43.0732 H         1 UNK         0.3000 
    160 H160       -1.6183  -16.2969  -42.8053 H         1 UNK         0.0600 
    161 H161       -0.1225  -14.5372  -40.7967 H         1 UNK         0.0600 
    162 H162       -1.7917  -15.0787  -40.6676 H         1 UNK         0.0600 
    163 H163       -1.3329  -13.9686  -41.9466 H         1 UNK         0.0600 
    164 H164       -0.1978  -15.4709  -44.2671 H         1 UNK         0.3000 
    165 H165        1.5034  -14.7989  -45.3436 H         1 UNK         0.0600 
    166 H166        3.4259  -13.2553  -45.3322 H         1 UNK         0.0600 
    167 H167        2.3147  -12.8137  -44.0435 H         1 UNK         0.0600 
    168 H168        3.8025  -13.6708  -43.6623 H         1 UNK         0.0600 
    169 H169        4.0612  -15.5541  -45.4196 H         1 UNK         0.3000 
    170 H170        5.0875  -17.4755  -45.7052 H         1 UNK         0.0600 
    171 H171        5.2321  -19.9239  -45.6701 H         1 UNK         0.0600 
    172 H172        3.4897  -20.0883  -45.5262 H         1 UNK         0.0600 
    173 H173        4.4328  -19.4296  -44.1959 H         1 UNK         0.0600 
    174 H174        2.9329  -17.6422  -47.5185 H         1 UNK         0.3000 
    175 H175        4.9328  -18.2182  -50.3383 H         1 UNK         0.0600 
    176 H176        4.3244  -20.6326  -49.9383 H         1 UNK         0.0600 
    177 H177        2.6614  -20.1447  -49.6413 H         1 UNK         0.0600 
    178 H178        3.3910  -19.8735  -51.2160 H         1 UNK         0.0600 
    179 H179        2.0865  -17.8238  -49.9980 H         1 UNK         0.3000 
    180 H180        2.2086  -14.3399  -49.7033 H         1 UNK         0.0600 
    181 H181        1.7564  -15.7754  -52.3702 H         1 UNK         0.0600 
    182 H182        2.9041  -14.4677  -52.1034 H         1 UNK         0.0600 
    183 H183        1.1817  -14.1637  -51.9464 H         1 UNK         0.0600 
    184 H184       -0.0024  -15.7205  -50.5521 H         1 UNK         0.3000 
    185 H185       -1.6428  -15.5007  -49.0289 H         1 UNK         0.0600 
    186 H186       -1.5468  -17.9825  -49.2825 H         1 UNK         0.0600 
    187 H187       -1.2872  -18.1526  -47.5466 H         1 UNK         0.0600 
    188 H188       -2.7920  -17.4851  -48.1555 H         1 UNK         0.0600 
    189 H189       -1.5672  -16.2099  -46.2398 H         1 UNK         0.3000 
    190 H190       -1.6063  -21.8996  -43.1260 H         1 UNK         0.3000 
    191 H191       -3.6986  -23.4776  -42.0508 H         1 UNK         0.0600 
    192 H192       -1.8415  -22.5467  -40.7079 H         1 UNK         0.0600 
    193 H193       -1.9205  -24.2912  -40.5126 H         1 UNK         0.0600 
    194 H194       -0.6829  -23.5802  -41.5400 H         1 UNK         0.0600 
    195 H195       -0.9592  -24.4225  -44.1915 H         1 UNK         0.3000 
    196 H196       -1.9011  -27.2675  -44.1031 H         1 UNK         0.0600 
    197 H197        0.4372  -27.8442  -44.6035 H         1 UNK         0.0600 
    198 H198        0.3511  -26.8911  -43.1305 H         1 UNK         0.0600 
    199 H199        0.8978  -26.1486  -44.6314 H         1 UNK         0.0600 
    200 H200       -0.5309  -24.7361  -46.2898 H         1 UNK         0.3000 
    201 H201       -0.9041  -26.4004  -48.6234 H         1 UNK         0.0600 
    202 H202        0.2188  -24.7159  -49.7899 H         1 UNK         0.0600 
    203 H203        0.8752  -24.5087  -48.1790 H         1 UNK         0.0600 
    204 H204       -0.3804  -23.4205  -48.7801 H         1 UNK         0.0600 
    205 H205       -3.0070  -24.2896  -46.9301 H         1 UNK         0.3000 
    206 H206       -5.0770  -23.5767  -47.1535 H         1 UNK         0.0600 
    207 H207       -5.6431  -25.9269  -47.5656 H         1 UNK         0.0600 
    208 H208       -6.7046  -24.8910  -48.5030 H         1 UNK         0.0600 
    209 H209       -5.3839  -25.7398  -49.2940 H         1 UNK         0.0600 
    210 H210       -3.1302  -22.0949  -48.4117 H         1 UNK         0.3000 
    211 H211       -2.8311  -20.2514  -49.5618 H         1 UNK         0.0600 
    212 H212       -5.8356  -20.0289  -48.9996 H         1 UNK         0.0600 
    213 H213       -4.8024  -18.6846  -49.4751 H         1 UNK         0.0600 
    214 H214       -4.5059  -19.5229  -47.9646 H         1 UNK         0.0600 
    215 H215       -5.9774  -20.1428  -51.0252 H         1 UNK         0.3000 
    216 H216       -5.0388  -19.7047  -53.6508 H         1 UNK         0.0600 
    217 H217       -7.4632  -19.8513  -54.2397 H         1 UNK         0.0600 
    218 H218       -7.8199  -20.5188  -52.6511 H         1 UNK         0.0600 
    219 H219       -7.2186  -18.8683  -52.8056 H         1 UNK         0.0600 
    220 H220       -5.7874  -22.7330  -51.9913 H         1 UNK         0.3000 
    221 H221       -6.0485  -24.4133  -54.3032 H         1 UNK         0.0600 
    222 H222       -5.1319  -25.0990  -51.4680 H         1 UNK         0.0600 
    223 H223       -6.8143  -25.0452  -51.9958 H         1 UNK         0.0600 
    224 H224       -5.7150  -26.2425  -52.6689 H         1 UNK         0.0600 
    225 H225       -3.2669  -23.0281  -52.6582 H         1 UNK         0.3000 
    226 H226       -1.3261  -24.6363  -54.2558 H         1 UNK         0.0600 
    227 H227        0.3230  -23.7186  -52.6233 H         1 UNK         0.0600 
    228 H228       -0.9565  -22.8240  -51.8077 H         1 UNK         0.0600 
    229 H229       -0.9635  -24.5873  -51.8068 H         1 UNK         0.0600 
    230 H230       -3.1673  -22.0384  -54.7666 H         1 UNK         0.3000 
    231 H231       -3.1954  -20.2083  -55.9639 H         1 UNK         0.0600 
    232 H232       -0.4848  -20.9971  -57.1475 H         1 UNK         0.0600 
    233 H233       -1.6563  -19.8882  -57.8418 H         1 UNK         0.0600 
    234 H234       -2.0456  -21.5944  -57.7111 H         1 UNK         0.0600 
    235 H235       -1.7025  -20.2695  -53.2710 H         1 UNK         0.3000 
    236 H236        0.2045  -18.0899  -53.3869 H         1 UNK         0.0600 
    237 H237       -1.1033  -19.5165  -51.0191 H         1 UNK         0.0600 
    238 H238        0.4343  -19.9360  -51.7629 H         1 UNK         0.0600 
    239 H239        0.2594  -18.4082  -50.9198 H         1 UNK         0.0600 
    240 H240       -3.1125  -18.0731  -53.5758 H         1 UNK         0.3000 
    241 H241       -3.2066  -15.1725  -52.9770 H         1 UNK         0.0600 
    242 H242       -2.6923  -16.9425  -55.5528 H         1 UNK         0.3800 
    243 H243       -3.8700  -16.2554  -56.6378 H         1 UNK         0.3800 
    244 H244       -5.4500  -17.1631  -52.3541 H         1 UNK         0.0800 
    245 H245       -5.6675  -15.4262  -52.3988 H         1 UNK         0.0800 
    246 H246       -6.4289  -14.8857  -50.0634 H         1 UNK         0.0800 
    247 H247       -6.5786  -16.5950  -49.6942 H         1 UNK         0.0800 
@<TRIPOS>BOND
     1    1    2 1    
     2    1  127 1    
     3    1  128 1    
     4    1  129 1    
     5    2    3 2    
     6    2    4 am   BACKBONE|DICT|INTERRES
     7    4    5 1    
     8    4  130 1    
     9    5    6 1    
    10    5   65 1    
    11    5  131 1    
    12    6    7 1    
    13    6  132 1    
    14    6  133 1    
    15    7    8 1    
    16    8    9 1    
    17    8  134 1    
    18    8  135 1    
    19    9   10 ar   
    20    9   14 ar   
    21   10   11 ar   
    22   10  136 1    
    23   11   12 ar   
    24   11  126 1    
    25   12   13 ar   
    26   12  137 1    
    27   13   14 ar   
    28   13   15 1    
    29   14  138 1    
    30   15   16 1    
    31   15  139 1    
    32   15  140 1    
    33   16   17 1    
    34   17   18 1    
    35   17  141 1    
    36   17  142 1    
    37   18   19 1    
    38   18   67 1    
    39   18  143 1    
    40   19   20 am   BACKBONE|DICT|INTERRES
    41   19  144 1    
    42   20   21 2    
    43   20   22 1    
    44   22   23 1    
    45   22   24 1    
    46   22  145 1    
    47   23  146 1    
    48   23  147 1    
    49   23  148 1    
    50   24   25 am   BACKBONE|DICT|INTERRES
    51   24  149 1    
    52   25   26 2    
    53   25   27 1    
    54   27   28 1    
    55   27   29 1    
    56   27  150 1    
    57   28  151 1    
    58   28  152 1    
    59   28  153 1    
    60   29   30 am   BACKBONE|DICT|INTERRES
    61   29  154 1    
    62   30   31 2    
    63   30   32 1    
    64   32   33 1    
    65   32   34 1    
    66   32  155 1    
    67   33  156 1    
    68   33  157 1    
    69   33  158 1    
    70   34   35 am   BACKBONE|DICT|INTERRES
    71   34  159 1    
    72   35   36 2    
    73   35   37 1    
    74   37   38 1    
    75   37   39 1    
    76   37  160 1    
    77   38  161 1    
    78   38  162 1    
    79   38  163 1    
    80   39   40 am   BACKBONE|DICT|INTERRES
    81   39  164 1    
    82   40   41 2    
    83   40   42 1    
    84   42   43 1    
    85   42   44 1    
    86   42  165 1    
    87   43  166 1    
    88   43  167 1    
    89   43  168 1    
    90   44   45 am   BACKBONE|DICT|INTERRES
    91   44  169 1    
    92   45   46 2    
    93   45   47 1    
    94   47   48 1    
    95   47   49 1    
    96   47  170 1    
    97   48  171 1    
    98   48  172 1    
    99   48  173 1    
   100   49   50 am   BACKBONE|DICT|INTERRES
   101   49  174 1    
   102   50   51 2    
   103   50   52 1    
   104   52   53 1    
   105   52   54 1    
   106   52  175 1    
   107   53  176 1    
   108   53  177 1    
   109   53  178 1    
   110   54   55 am   BACKBONE|DICT|INTERRES
   111   54  179 1    
   112   55   56 2    
   113   55   57 1    
   114   57   58 1    
   115   57   59 1    
   116   57  180 1    
   117   58  181 1    
   118   58  182 1    
   119   58  183 1    
   120   59   60 am   BACKBONE|DICT|INTERRES
   121   59  184 1    
   122   60   61 2    
   123   60   62 1    
   124   62   63 1    
   125   62   64 1    
   126   62  185 1    
   127   63  186 1    
   128   63  187 1    
   129   63  188 1    
   130   64   65 am   BACKBONE|DICT|INTERRES
   131   64  189 1    
   132   65   66 2    
   133   67   68 2    
   134   67   69 am   BACKBONE|DICT|INTERRES
   135   69   70 1    
   136   69  190 1    
   137   70   71 1    
   138   70   72 1    
   139   70  191 1    
   140   71  192 1    
   141   71  193 1    
   142   71  194 1    
   143   72   73 2    
   144   72   74 am   BACKBONE|DICT|INTERRES
   145   74   75 1    
   146   74  195 1    
   147   75   76 1    
   148   75   77 1    
   149   75  196 1    
   150   76  197 1    
   151   76  198 1    
   152   76  199 1    
   153   77   78 2    
   154   77   79 am   BACKBONE|DICT|INTERRES
   155   79   80 1    
   156   79  200 1    
   157   80   81 1    
   158   80   82 1    
   159   80  201 1    
   160   81  202 1    
   161   81  203 1    
   162   81  204 1    
   163   82   83 2    
   164   82   84 am   BACKBONE|DICT|INTERRES
   165   84   85 1    
   166   84  205 1    
   167   85   86 1    
   168   85   87 1    
   169   85  206 1    
   170   86  207 1    
   171   86  208 1    
   172   86  209 1    
   173   87   88 2    
   174   87   89 am   BACKBONE|DICT|INTERRES
   175   89   90 1    
   176   89  210 1    
   177   90   91 1    
   178   90   92 1    
   179   90  211 1    
   180   91  212 1    
   181   91  213 1    
   182   91  214 1    
   183   92   93 2    
   184   92   94 am   BACKBONE|DICT|INTERRES
   185   94   95 1    
   186   94  215 1    
   187   95   96 1    
   188   95   97 1    
   189   95  216 1    
   190   96  217 1    
   191   96  218 1    
   192   96  219 1    
   193   97   98 2    
   194   97   99 am   BACKBONE|DICT|INTERRES
   195   99  100 1    
   196   99  220 1    
   197  100  101 1    
   198  100  102 1    
   199  100  221 1    
   200  101  222 1    
   201  101  223 1    
   202  101  224 1    
   203  102  103 2    
   204  102  104 am   BACKBONE|DICT|INTERRES
   205  104  105 1    
   206  104  225 1    
   207  105  106 1    
   208  105  107 1    
   209  105  226 1    
   210  106  227 1    
   211  106  228 1    
   212  106  229 1    
   213  107  108 2    
   214  107  109 am   BACKBONE|DICT|INTERRES
   215  109  110 1    
   216  109  230 1    
   217  110  111 1    
   218  110  112 1    
   219  110  231 1    
   220  111  232 1    
   221  111  233 1    
   222  111  234 1    
   223  112  113 2    
   224  112  114 am   BACKBONE|DICT|INTERRES
   225  114  115 1    
   226  114  235 1    
   227  115  116 1    
   228  115  117 1    
   229  115  236 1    
   230  116  237 1    
   231  116  238 1    
   232  116  239 1    
   233  117  118 2    
   234  117  119 am   BACKBONE|DICT|INTERRES
   235  119  120 1    
   236  119  240 1    
   237  120  121 1    
   238  120  124 1    
   239  120  241 1    
   240  121  122 am   BACKBONE|DICT|INTERRES
   241  121  123 2    
   242  122  242 1    
   243  122  243 1    
   244  124  125 1    
   245  124  244 1    
   246  124  245 1    
   247  125  126 1    
   248  126  246 1    
   249  126  247 1    
@<TRIPOS>SUBSTRUCTURE
     1 UNK         1 GROUP             0       ****    0 ROOT    
