@<TRIPOS>MOLECULE
3R540
247   249    1
SMALL
USER_CHARGES


@<TRIPOS>ATOM
      1 CA         -1.2377  -17.2338  -50.8512 C.3       0 UNK        -0.1800 
      2 C          -0.6188  -16.8357  -49.5196 C.2       0 UNK         0.5000 
      3 O          -0.3243  -17.7087  -48.7092 O.2       0 UNK        -0.5000 
      4 N          -0.4445  -15.5259  -49.2895 N.am      1 UNK        -0.5000 
      5 CA          0.0828  -14.9236  -48.0535 C.3       1 UNK         0.1400 
      6 C6          1.5813  -15.2394  -47.7857 C.3       23 UNK        -0.0398 
      7 S7          2.6605  -14.3991  -48.9936 S.3       23 UNK        -0.2404 
      8 C8          4.0096  -15.6052  -49.2225 C.3       23 UNK        -0.0205 
      9 C9          3.5892  -16.8589  -49.9813 C.ar      23 UNK        -0.0193 
     10 C10         2.8270  -16.7707  -51.1512 C.ar      23 UNK        -0.1150 
     11 C11         2.4328  -17.9233  -51.8352 C.ar      23 UNK        -0.0193 
     12 C12         2.8288  -19.1748  -51.3561 C.ar      23 UNK        -0.1150 
     13 C13         3.6087  -19.2779  -50.1994 C.ar      23 UNK        -0.0193 
     14 C14         3.9864  -18.1166  -49.5189 C.ar      23 UNK        -0.1150 
     15 C15         4.0256  -20.6466  -49.6742 C.3       23 UNK        -0.0205 
     16 S16         3.2869  -21.0250  -48.0503 S.3       23 UNK        -0.2404 
     17 C17         1.5233  -20.7063  -48.3775 C.3       23 UNK        -0.0398 
     18 CA          0.5695  -21.6948  -47.6733 C.3       11 UNK         0.1400 
     19 N           0.6707  -21.6692  -46.2102 N.am      11 UNK        -0.5000 
     20 C           0.0211  -22.5117  -45.3912 C.2       10 UNK         0.5000 
     21 O          -0.6651  -23.4525  -45.7909 O.2       10 UNK        -0.5000 
     22 CA          0.0904  -22.2335  -43.8763 C.3       10 UNK         0.1400 
     23 CB          1.1889  -23.0760  -43.2128 C.3       10 UNK        -0.1800 
     24 N           0.2841  -20.8188  -43.5539 N.am      10 UNK        -0.5000 
     25 C          -0.5866  -19.8448  -43.8565 C.2       9 UNK         0.5000 
     26 O          -1.6734  -20.0511  -44.3979 O.2       9 UNK        -0.5000 
     27 CA         -0.1564  -18.4014  -43.5375 C.3       9 UNK         0.1400 
     28 CB         -0.6194  -17.9980  -42.1320 C.3       9 UNK        -0.1800 
     29 N           1.2917  -18.2094  -43.6629 N.am      9 UNK        -0.5000 
     30 C           1.9354  -18.1954  -44.8394 C.2       8 UNK         0.5000 
     31 O           1.3652  -18.2858  -45.9228 O.2       8 UNK        -0.5000 
     32 CA          3.4731  -18.1385  -44.8028 C.3       8 UNK         0.1400 
     33 CB          3.9839  -16.6954  -44.6958 C.3       8 UNK        -0.1800 
     34 N           4.0271  -18.9392  -43.7111 N.am      8 UNK        -0.5000 
     35 C           4.0464  -20.2797  -43.7138 C.2       7 UNK         0.5000 
     36 O           3.6347  -20.9630  -44.6491 O.2       7 UNK        -0.5000 
     37 CA          4.5865  -20.9852  -42.4557 C.3       7 UNK         0.1400 
     38 CB          6.0883  -21.2715  -42.6039 C.3       7 UNK        -0.1800 
     39 N           4.3603  -20.2475  -41.2119 N.am      7 UNK        -0.5000 
     40 C           3.1622  -19.9174  -40.7117 C.2       6 UNK         0.5000 
     41 O           2.0970  -20.1764  -41.2751 O.2       6 UNK        -0.5000 
     42 CA          3.1398  -19.1635  -39.3637 C.3       6 UNK         0.1400 
     43 CB          4.5406  -18.8288  -38.8015 C.3       6 UNK        -0.1800 
     44 N           2.3199  -17.9487  -39.4114 N.am      6 UNK        -0.5000 
     45 C           2.4524  -16.9208  -40.2604 C.2       5 UNK         0.5000 
     46 O           3.2654  -16.8872  -41.1893 O.2       5 UNK        -0.5000 
     47 CA          1.5217  -15.7244  -40.0125 C.3       5 UNK         0.1400 
     48 CB          1.9374  -14.9492  -38.7501 C.3       5 UNK        -0.1800 
     49 N           1.5757  -14.8260  -41.1608 N.am      5 UNK        -0.5000 
     50 C           0.5384  -14.1657  -41.6844 C.2       4 UNK         0.5000 
     51 O          -0.6027  -14.2287  -41.2206 O.2       4 UNK        -0.5000 
     52 CA          0.8369  -13.2853  -42.9189 C.3       4 UNK         0.1400 
     53 CB          1.9015  -13.9000  -43.8469 C.3       4 UNK        -0.1800 
     54 N          -0.3715  -13.0202  -43.7004 N.am      4 UNK        -0.5000 
     55 C          -1.2533  -12.0432  -43.4410 C.2       3 UNK         0.5000 
     56 O          -1.1071  -11.2229  -42.5329 O.2       3 UNK        -0.5000 
     57 CA         -2.4944  -11.9278  -44.3525 C.3       3 UNK         0.1400 
     58 CB         -2.4314  -10.6384  -45.1879 C.3       3 UNK        -0.1800 
     59 N          -2.6617  -13.0591  -45.2652 N.am      3 UNK        -0.5000 
     60 C          -3.1859  -14.2478  -44.9382 C.2       2 UNK         0.5000 
     61 O          -3.6391  -14.5134  -43.8252 O.2       2 UNK        -0.5000 
     62 CA         -3.1968  -15.3258  -46.0427 C.3       2 UNK         0.1400 
     63 CB         -4.5676  -15.3575  -46.7375 C.3       2 UNK        -0.1800 
     64 N          -2.1551  -15.1505  -47.0625 N.am      2 UNK        -0.5000 
     65 C          -0.8332  -15.1809  -46.8326 C.2       1 UNK         0.5000 
     66 O          -0.3554  -15.3391  -45.7096 O.2       1 UNK        -0.5000 
     67 C          -0.8725  -21.4320  -48.1460 C.2       11 UNK         0.5000 
     68 O          -1.3563  -22.1548  -49.0147 O.2       11 UNK        -0.5000 
     69 N          -1.5459  -20.4377  -47.5475 N.am      12 UNK        -0.5000 
     70 CA         -2.9360  -20.0965  -47.8488 C.3       12 UNK         0.1400 
     71 CB         -3.3273  -18.7792  -47.1689 C.3       12 UNK        -0.1800 
     72 C          -3.9089  -21.2138  -47.4470 C.2       12 UNK         0.5000 
     73 O          -4.8485  -21.4881  -48.1934 O.2       12 UNK        -0.5000 
     74 N          -3.6464  -21.8568  -46.3006 N.am      13 UNK        -0.5000 
     75 CA         -4.3934  -23.0156  -45.8125 C.3       13 UNK         0.1400 
     76 CB         -3.9542  -23.3532  -44.3798 C.3       13 UNK        -0.1800 
     77 C          -4.2486  -24.2323  -46.7449 C.2       13 UNK         0.5000 
     78 O          -5.2583  -24.8271  -47.1238 O.2       13 UNK        -0.5000 
     79 N          -3.0065  -24.5407  -47.1479 N.am      14 UNK        -0.5000 
     80 CA         -2.6756  -25.5941  -48.1135 C.3       14 UNK         0.1400 
     81 CB         -1.1496  -25.7493  -48.1938 C.3       14 UNK        -0.1800 
     82 C          -3.2710  -25.3398  -49.5127 C.2       14 UNK         0.5000 
     83 O          -3.6892  -26.2851  -50.1812 O.2       14 UNK        -0.5000 
     84 N          -3.3418  -24.0618  -49.9035 N.am      15 UNK        -0.5000 
     85 CA         -3.9702  -23.5669  -51.1272 C.3       15 UNK         0.1400 
     86 CB         -3.3730  -22.1904  -51.4581 C.3       15 UNK        -0.1800 
     87 C          -5.5114  -23.4963  -51.0638 C.2       15 UNK         0.5000 
     88 O          -6.1131  -22.9878  -52.0100 O.2       15 UNK        -0.5000 
     89 N          -6.1261  -23.9815  -49.9738 N.am      16 UNK        -0.5000 
     90 CA         -7.5694  -24.0328  -49.7196 C.3       16 UNK         0.1400 
     91 CB         -8.2756  -24.9590  -50.7327 C.3       16 UNK        -0.1800 
     92 C          -8.1921  -22.6254  -49.6433 C.2       16 UNK         0.5000 
     93 O          -9.0950  -22.2976  -50.4141 O.2       16 UNK        -0.5000 
     94 N          -7.6594  -21.8164  -48.7177 N.am      17 UNK        -0.5000 
     95 CA         -7.9706  -20.4032  -48.4789 C.3       17 UNK         0.1400 
     96 CB         -9.4499  -20.1994  -48.0881 C.3       17 UNK        -0.1800 
     97 C          -7.5087  -19.5145  -49.6502 C.2       17 UNK         0.5000 
     98 O          -8.2469  -18.6346  -50.0963 O.2       17 UNK        -0.5000 
     99 N          -6.2796  -19.7802  -50.1192 N.am      18 UNK        -0.5000 
    100 CA        -5.5721  -19.0905  -51.2052 C.3       18 UNK         0.1400 
    101 CB        -5.2536  -17.6339  -50.8063 C.3       18 UNK        -0.1800 
    102 C         -6.2638  -19.1990  -52.5834 C.2       18 UNK         0.5000 
    103 O         -6.0665  -18.3304  -53.4342 O.2       18 UNK        -0.5000 
    104 N         -7.0501  -20.2637  -52.7932 N.am      19 UNK        -0.5000 
    105 CA        -7.7289  -20.5557  -54.0550 C.3       19 UNK         0.1400 
    106 CB        -8.8761  -21.5459  -53.8021 C.3       19 UNK        -0.1800 
    107 C         -6.7485  -21.1021  -55.1063 C.2       19 UNK         0.5000 
    108 O         -6.7190  -20.6096  -56.2347 O.2       19 UNK        -0.5000 
    109 N         -5.9344  -22.0839  -54.7017 N.am      20 UNK        -0.5000 
    110 CA        -4.8722  -22.6909  -55.5015 C.3       20 UNK         0.1400 
    111 CB        -4.8264  -24.1993  -55.1985 C.3       20 UNK        -0.1800 
    112 C         -3.5382  -21.9780  -55.2122 C.2       20 UNK         0.5000 
    113 O         -2.6019  -22.5914  -54.6968 O.2       20 UNK        -0.5000 
    114 N         -3.5046  -20.6696  -55.4959 N.am      21 UNK        -0.5000 
    115 CA        -2.3755  -19.7717  -55.2506 C.3       21 UNK         0.1400 
    116 CB        -2.8291  -18.3294  -55.5280 C.3       21 UNK        -0.1800 
    117 C         -1.1175  -20.1163  -56.0755 C.2       21 UNK         0.5000 
    118 O         -1.2018  -20.8053  -57.0951 O.2       21 UNK        -0.5000 
    119 N          0.0266  -19.5979  -55.6154 N.am      22 UNK        -0.5000 
    120 CA         1.3651  -19.8045  -56.1951 C.3       22 UNK         0.1400 
    121 C          1.6241  -19.1212  -57.5732 C.2       22 UNK         0.5000 
    122 N          0.7524  -18.2474  -58.0619 N.am      22 UNK        -0.7600 
    123 O          2.6320  -19.4008  -58.2168 O.2       22 UNK        -0.5000 
    124 C124        2.4789  -19.4780  -55.1612 C.3       23 UNK        -0.0398 
    125 S125        2.4919  -17.7320  -54.6107 S.3       23 UNK        -0.2404 
    126 C126        1.5408  -17.8084  -53.0613 C.3       23 UNK        -0.0205 
    127 H127       -0.7173  -18.0984  -51.2611 H         1 UNK         0.0600 
    128 H128       -1.1909  -16.4245  -51.5798 H         1 UNK         0.0600 
    129 H129       -2.2811  -17.5098  -50.7058 H         1 UNK         0.0600 
    130 H130       -0.6980  -14.8664  -50.0115 H         1 UNK         0.3000 
    131 H131        0.0109  -13.8456  -48.2062 H         1 UNK         0.0600 
    132 H132        1.7609  -16.3153  -47.7956 H         1 UNK         0.0800 
    133 H133        1.8893  -14.8880  -46.8007 H         1 UNK         0.0800 
    134 H134        4.4178  -15.8617  -48.2435 H         1 UNK         0.0800 
    135 H135        4.8162  -15.1237  -49.7766 H         1 UNK         0.0800 
    136 H136        2.5221  -15.8017  -51.5201 H         1 UNK         0.1150 
    137 H137        2.5192  -20.0696  -51.8767 H         1 UNK         0.1150 
    138 H138        4.5805  -18.1987  -48.6195 H         1 UNK         0.1150 
    139 H139        3.7501  -21.4326  -50.3790 H         1 UNK         0.0800 
    140 H140        5.1122  -20.6810  -49.5861 H         1 UNK         0.0800 
    141 H141        1.3591  -20.7544  -49.4553 H         1 UNK         0.0800 
    142 H142        1.3068  -19.6779  -48.0882 H         1 UNK         0.0800 
    143 H143        0.8360  -22.7035  -47.9963 H         1 UNK         0.0600 
    144 H144        1.2378  -20.9337  -45.8102 H         1 UNK         0.3000 
    145 H145       -0.8665  -22.5338  -43.4451 H         1 UNK         0.0600 
    146 H146        1.2518  -22.8768  -42.1428 H         1 UNK         0.0600 
    147 H147        0.9853  -24.1405  -43.3351 H         1 UNK         0.0600 
    148 H148        2.1667  -22.8821  -43.6510 H         1 UNK         0.0600 
    149 H149        1.1223  -20.5741  -43.0383 H         1 UNK         0.3000 
    150 H150       -0.6537  -17.7454  -44.2557 H         1 UNK         0.0600 
    151 H151       -1.6904  -18.1658  -42.0108 H         1 UNK         0.0600 
    152 H152       -0.4412  -16.9394  -41.9564 H         1 UNK         0.0600 
    153 H153       -0.1075  -18.5663  -41.3552 H         1 UNK         0.0600 
    154 H154        1.8327  -18.1801  -42.8097 H         1 UNK         0.3000 
    155 H155        3.8364  -18.5475  -45.7487 H         1 UNK         0.0600 
    156 H156        3.7084  -16.2411  -43.7450 H         1 UNK         0.0600 
    157 H157        3.5741  -16.0751  -45.4931 H         1 UNK         0.0600 
    158 H158        5.0698  -16.6565  -44.7812 H         1 UNK         0.0600 
    159 H159        4.3407  -18.4429  -42.8878 H         1 UNK         0.3000 
    160 H160        4.0660  -21.9408  -42.3683 H         1 UNK         0.0600 
    161 H161        6.6697  -20.3505  -42.6617 H         1 UNK         0.0600 
    162 H162        6.2890  -21.8439  -43.5106 H         1 UNK         0.0600 
    163 H163        6.4644  -21.8553  -41.7635 H         1 UNK         0.0600 
    164 H164        5.1838  -19.9804  -40.6927 H         1 UNK         0.3000 
    165 H165        2.6530  -19.8355  -38.6557 H         1 UNK         0.0600 
    166 H166        4.4607  -18.3283  -37.8364 H         1 UNK         0.0600 
    167 H167        5.1318  -19.7311  -38.6399 H         1 UNK         0.0600 
    168 H168        5.1028  -18.1705  -39.4652 H         1 UNK         0.0600 
    169 H169        1.5964  -17.8957  -38.7084 H         1 UNK         0.3000 
    170 H170        0.5093  -16.1113  -39.8805 H         1 UNK         0.0600 
    171 H171        1.8929  -15.5817  -37.8629 H         1 UNK         0.0600 
    172 H172        2.9558  -14.5671  -38.8314 H         1 UNK         0.0600 
    173 H173        1.2755  -14.1009  -38.5744 H         1 UNK         0.0600 
    174 H174        2.4725  -14.8032  -41.6284 H         1 UNK         0.3000 
    175 H175        1.2316  -12.3371  -42.5483 H         1 UNK         0.0600 
    176 H176        1.6540  -14.9281  -44.1119 H         1 UNK         0.0600 
    177 H177        1.9976  -13.3302  -44.7713 H         1 UNK         0.0600 
    178 H178        2.8848  -13.9047  -43.3761 H         1 UNK         0.0600 
    179 H179       -0.5838  -13.6955  -44.4255 H         1 UNK         0.3000 
    180 H180       -3.3696  -11.8685  -43.7021 H         1 UNK         0.0600 
    181 H181       -1.5703  -10.6343  -45.8572 H         1 UNK         0.0600 
    182 H182       -2.3530   -9.7589  -44.5473 H         1 UNK         0.0600 
    183 H183       -3.3295  -10.5161  -45.7937 H         1 UNK         0.0600 
    184 H184       -2.3234  -12.9317  -46.2072 H         1 UNK         0.3000 
    185 H185       -3.0282  -16.2896  -45.5583 H         1 UNK         0.0600 
    186 H186       -4.6086  -16.1233  -47.5112 H         1 UNK         0.0600 
    187 H187       -5.3619  -15.5755  -46.0224 H         1 UNK         0.0600 
    188 H188       -4.8017  -14.4007  -47.2059 H         1 UNK         0.0600 
    189 H189       -2.4713  -15.0085  -48.0105 H         1 UNK         0.3000 
    190 H190       -1.0827  -19.8844  -46.8395 H         1 UNK         0.3000 
    191 H191       -3.0168  -19.9493  -48.9271 H         1 UNK         0.0600 
    192 H192       -3.2547  -18.8407  -46.0835 H         1 UNK         0.0600 
    193 H193       -4.3563  -18.5121  -47.4116 H         1 UNK         0.0600 
    194 H194       -2.6910  -17.9613  -47.5017 H         1 UNK         0.0600 
    195 H195       -2.8610  -21.5432  -45.7445 H         1 UNK         0.3000 
    196 H196       -5.4500  -22.7409  -45.7847 H         1 UNK         0.0600 
    197 H197       -4.5512  -24.1707  -43.9740 H         1 UNK         0.0600 
    198 H198       -4.0801  -22.4973  -43.7164 H         1 UNK         0.0600 
    199 H199       -2.9097  -23.6599  -44.3356 H         1 UNK         0.0600 
    200 H200       -2.2228  -24.0179  -46.7651 H         1 UNK         0.3000 
    201 H201       -3.0954  -26.5306  -47.7407 H         1 UNK         0.0600 
    202 H202       -0.7279  -26.0042  -47.2214 H         1 UNK         0.0600 
    203 H203       -0.6698  -24.8315  -48.5351 H         1 UNK         0.0600 
    204 H204       -0.8726  -26.5439  -48.8878 H         1 UNK         0.0600 
    205 H205       -2.8948  -23.3595  -49.3221 H         1 UNK         0.3000 
    206 H206       -3.7186  -24.2466  -51.9428 H         1 UNK         0.0600 
    207 H207       -2.3070  -22.2676  -51.6723 H         1 UNK         0.0600 
    208 H208       -3.8441  -21.7424  -52.3320 H         1 UNK         0.0600 
    209 H209       -3.4960  -21.4982  -50.6280 H         1 UNK         0.0600 
    210 H210       -5.5464  -24.3375  -49.2235 H         1 UNK         0.3000 
    211 H211       -7.6912  -24.4791  -48.7315 H         1 UNK         0.0600 
    212 H212       -8.2308  -24.5667  -51.7490 H         1 UNK         0.0600 
    213 H213       -9.3289  -25.0802  -50.4781 H         1 UNK         0.0600 
    214 H214       -7.8259  -25.9518  -50.7372 H         1 UNK         0.0600 
    215 H215       -6.8451  -22.1550  -48.2180 H         1 UNK         0.3000 
    216 H216       -7.3671  -20.1043  -47.6205 H         1 UNK         0.0600 
    217 H217       -9.6272  -19.1726  -47.7667 H         1 UNK         0.0600 
    218 H218       -9.7328  -20.8512  -47.2616 H         1 UNK         0.0600 
    219 H219      -10.1255  -20.3985  -48.9201 H         1 UNK         0.0600 
    220 H220       -5.7667  -20.5238  -49.6550 H         1 UNK         0.3000 
    221 H221       -4.6167  -19.5998  -51.3189 H         1 UNK         0.0600 
    222 H222       -6.1571  -17.0294  -50.7242 H         1 UNK         0.0600 
    223 H223       -4.7336  -17.5913  -49.8494 H         1 UNK         0.0600 
    224 H224       -4.6099  -17.1555  -51.5453 H         1 UNK         0.0600 
    225 H225       -7.1277  -20.9654  -52.0680 H         1 UNK         0.3000 
    226 H226       -8.1612  -19.6309  -54.4430 H         1 UNK         0.0600 
    227 H227       -9.6041  -21.1324  -53.1037 H         1 UNK         0.0600 
    228 H228       -9.4055  -21.7763  -54.7273 H         1 UNK         0.0600 
    229 H229       -8.5156  -22.4872  -53.3851 H         1 UNK         0.0600 
    230 H230       -6.0115  -22.4056  -53.7382 H         1 UNK         0.3000 
    231 H231       -5.0851  -22.5726  -56.5660 H         1 UNK         0.0600 
    232 H232       -5.7724  -24.6784  -55.4513 H         1 UNK         0.0600 
    233 H233       -4.6265  -24.3950  -54.1454 H         1 UNK         0.0600 
    234 H234       -4.0466  -24.6920  -55.7805 H         1 UNK         0.0600 
    235 H235       -4.3239  -20.2562  -55.9197 H         1 UNK         0.3000 
    236 H236       -2.1168  -19.8556  -54.1928 H         1 UNK         0.0600 
    237 H237       -2.0354  -17.6137  -55.3102 H         1 UNK         0.0600 
    238 H238       -3.1177  -18.1935  -56.5711 H         1 UNK         0.0600 
    239 H239       -3.6831  -18.0586  -54.9067 H         1 UNK         0.0600 
    240 H240       -0.0025  -18.9972  -54.8068 H         1 UNK         0.3000 
    241 H241        1.4419  -20.8739  -56.4009 H         1 UNK         0.0600 
    242 H242        0.9289  -17.8172  -58.9562 H         1 UNK         0.3800 
    243 H243       -0.0808  -18.0127  -57.5480 H         1 UNK         0.3800 
    244 H244        2.3790  -20.1306  -54.2937 H         1 UNK         0.0800 
    245 H245        3.4606  -19.7082  -55.5785 H         1 UNK         0.0800 
    246 H246        0.8350  -18.6387  -53.0840 H         1 UNK         0.0800 
    247 H247        0.9364  -16.9029  -52.9892 H         1 UNK         0.0800 
@<TRIPOS>BOND
     1    1    2 1    
     2    1  127 1    
     3    1  128 1    
     4    1  129 1    
     5    2    3 2    
     6    2    4 am   BACKBONE|DICT|INTERRES
     7    4    5 1    
     8    4  130 1    
     9    5    6 1    
    10    5   65 1    
    11    5  131 1    
    12    6    7 1    
    13    6  132 1    
    14    6  133 1    
    15    7    8 1    
    16    8    9 1    
    17    8  134 1    
    18    8  135 1    
    19    9   10 ar   
    20    9   14 ar   
    21   10   11 ar   
    22   10  136 1    
    23   11   12 ar   
    24   11  126 1    
    25   12   13 ar   
    26   12  137 1    
    27   13   14 ar   
    28   13   15 1    
    29   14  138 1    
    30   15   16 1    
    31   15  139 1    
    32   15  140 1    
    33   16   17 1    
    34   17   18 1    
    35   17  141 1    
    36   17  142 1    
    37   18   19 1    
    38   18   67 1    
    39   18  143 1    
    40   19   20 am   BACKBONE|DICT|INTERRES
    41   19  144 1    
    42   20   21 2    
    43   20   22 1    
    44   22   23 1    
    45   22   24 1    
    46   22  145 1    
    47   23  146 1    
    48   23  147 1    
    49   23  148 1    
    50   24   25 am   BACKBONE|DICT|INTERRES
    51   24  149 1    
    52   25   26 2    
    53   25   27 1    
    54   27   28 1    
    55   27   29 1    
    56   27  150 1    
    57   28  151 1    
    58   28  152 1    
    59   28  153 1    
    60   29   30 am   BACKBONE|DICT|INTERRES
    61   29  154 1    
    62   30   31 2    
    63   30   32 1    
    64   32   33 1    
    65   32   34 1    
    66   32  155 1    
    67   33  156 1    
    68   33  157 1    
    69   33  158 1    
    70   34   35 am   BACKBONE|DICT|INTERRES
    71   34  159 1    
    72   35   36 2    
    73   35   37 1    
    74   37   38 1    
    75   37   39 1    
    76   37  160 1    
    77   38  161 1    
    78   38  162 1    
    79   38  163 1    
    80   39   40 am   BACKBONE|DICT|INTERRES
    81   39  164 1    
    82   40   41 2    
    83   40   42 1    
    84   42   43 1    
    85   42   44 1    
    86   42  165 1    
    87   43  166 1    
    88   43  167 1    
    89   43  168 1    
    90   44   45 am   BACKBONE|DICT|INTERRES
    91   44  169 1    
    92   45   46 2    
    93   45   47 1    
    94   47   48 1    
    95   47   49 1    
    96   47  170 1    
    97   48  171 1    
    98   48  172 1    
    99   48  173 1    
   100   49   50 am   BACKBONE|DICT|INTERRES
   101   49  174 1    
   102   50   51 2    
   103   50   52 1    
   104   52   53 1    
   105   52   54 1    
   106   52  175 1    
   107   53  176 1    
   108   53  177 1    
   109   53  178 1    
   110   54   55 am   BACKBONE|DICT|INTERRES
   111   54  179 1    
   112   55   56 2    
   113   55   57 1    
   114   57   58 1    
   115   57   59 1    
   116   57  180 1    
   117   58  181 1    
   118   58  182 1    
   119   58  183 1    
   120   59   60 am   BACKBONE|DICT|INTERRES
   121   59  184 1    
   122   60   61 2    
   123   60   62 1    
   124   62   63 1    
   125   62   64 1    
   126   62  185 1    
   127   63  186 1    
   128   63  187 1    
   129   63  188 1    
   130   64   65 am   BACKBONE|DICT|INTERRES
   131   64  189 1    
   132   65   66 2    
   133   67   68 2    
   134   67   69 am   BACKBONE|DICT|INTERRES
   135   69   70 1    
   136   69  190 1    
   137   70   71 1    
   138   70   72 1    
   139   70  191 1    
   140   71  192 1    
   141   71  193 1    
   142   71  194 1    
   143   72   73 2    
   144   72   74 am   BACKBONE|DICT|INTERRES
   145   74   75 1    
   146   74  195 1    
   147   75   76 1    
   148   75   77 1    
   149   75  196 1    
   150   76  197 1    
   151   76  198 1    
   152   76  199 1    
   153   77   78 2    
   154   77   79 am   BACKBONE|DICT|INTERRES
   155   79   80 1    
   156   79  200 1    
   157   80   81 1    
   158   80   82 1    
   159   80  201 1    
   160   81  202 1    
   161   81  203 1    
   162   81  204 1    
   163   82   83 2    
   164   82   84 am   BACKBONE|DICT|INTERRES
   165   84   85 1    
   166   84  205 1    
   167   85   86 1    
   168   85   87 1    
   169   85  206 1    
   170   86  207 1    
   171   86  208 1    
   172   86  209 1    
   173   87   88 2    
   174   87   89 am   BACKBONE|DICT|INTERRES
   175   89   90 1    
   176   89  210 1    
   177   90   91 1    
   178   90   92 1    
   179   90  211 1    
   180   91  212 1    
   181   91  213 1    
   182   91  214 1    
   183   92   93 2    
   184   92   94 am   BACKBONE|DICT|INTERRES
   185   94   95 1    
   186   94  215 1    
   187   95   96 1    
   188   95   97 1    
   189   95  216 1    
   190   96  217 1    
   191   96  218 1    
   192   96  219 1    
   193   97   98 2    
   194   97   99 am   BACKBONE|DICT|INTERRES
   195   99  100 1    
   196   99  220 1    
   197  100  101 1    
   198  100  102 1    
   199  100  221 1    
   200  101  222 1    
   201  101  223 1    
   202  101  224 1    
   203  102  103 2    
   204  102  104 am   BACKBONE|DICT|INTERRES
   205  104  105 1    
   206  104  225 1    
   207  105  106 1    
   208  105  107 1    
   209  105  226 1    
   210  106  227 1    
   211  106  228 1    
   212  106  229 1    
   213  107  108 2    
   214  107  109 am   BACKBONE|DICT|INTERRES
   215  109  110 1    
   216  109  230 1    
   217  110  111 1    
   218  110  112 1    
   219  110  231 1    
   220  111  232 1    
   221  111  233 1    
   222  111  234 1    
   223  112  113 2    
   224  112  114 am   BACKBONE|DICT|INTERRES
   225  114  115 1    
   226  114  235 1    
   227  115  116 1    
   228  115  117 1    
   229  115  236 1    
   230  116  237 1    
   231  116  238 1    
   232  116  239 1    
   233  117  118 2    
   234  117  119 am   BACKBONE|DICT|INTERRES
   235  119  120 1    
   236  119  240 1    
   237  120  121 1    
   238  120  124 1    
   239  120  241 1    
   240  121  122 am   BACKBONE|DICT|INTERRES
   241  121  123 2    
   242  122  242 1    
   243  122  243 1    
   244  124  125 1    
   245  124  244 1    
   246  124  245 1    
   247  125  126 1    
   248  126  246 1    
   249  126  247 1    
@<TRIPOS>SUBSTRUCTURE
     1 UNK         1 GROUP             0       ****    0 ROOT    
