@<TRIPOS>MOLECULE
3R540
247   249    1
SMALL
USER_CHARGES


@<TRIPOS>ATOM
      1 CA         -0.1870   -9.8390  -53.4327 C.3       0 UNK        -0.1800 
      2 C          -0.1779  -11.1161  -52.6041 C.2       0 UNK         0.5000 
      3 O           0.7110  -11.9506  -52.7757 O.2       0 UNK        -0.5000 
      4 N          -1.1661  -11.2730  -51.7150 N.am      1 UNK        -0.5000 
      5 CA         -1.3041  -12.4071  -50.7965 C.3       1 UNK         0.1400 
      6 C6         -2.6977  -12.4272  -50.1221 C.3       23 UNK        -0.0398 
      7 S7         -3.9773  -12.9670  -51.3092 S.3       23 UNK        -0.2404 
      8 C8         -4.3737  -14.6559  -50.7382 C.3       23 UNK        -0.0205 
      9 C9         -3.1369  -15.4993  -50.4571 C.ar      23 UNK        -0.0193 
     10 C10        -2.2995  -15.9076  -51.4989 C.ar      23 UNK        -0.1150 
     11 C11        -1.1565  -16.6687  -51.2353 C.ar      23 UNK        -0.0193 
     12 C12        -0.8645  -17.0337  -49.9183 C.ar      23 UNK        -0.1150 
     13 C13        -1.6947  -16.6335  -48.8664 C.ar      23 UNK        -0.0193 
     14 C14        -2.8248  -15.8604  -49.1440 C.ar      23 UNK        -0.1150 
     15 C15        -1.3433  -17.0097  -47.4340 C.3       23 UNK        -0.0205 
     16 S16        -2.7319  -17.7680  -46.5347 S.3       23 UNK        -0.2404 
     17 C17        -1.8345  -18.6795  -45.2339 C.3       23 UNK        -0.0398 
     18 CA         -1.5081  -20.1269  -45.6742 C.3       11 UNK         0.1400 
     19 N          -0.3958  -20.7081  -44.9162 N.am      11 UNK        -0.5000 
     20 C           0.2409  -21.8395  -45.2511 C.2       10 UNK         0.5000 
     21 O          -0.0133  -22.4813  -46.2696 O.2       10 UNK        -0.5000 
     22 CA          1.2754  -22.3871  -44.2476 C.3       10 UNK         0.1400 
     23 CB          2.6849  -21.8461  -44.5275 C.3       10 UNK        -0.1800 
     24 N           0.9117  -22.1191  -42.8542 N.am      10 UNK        -0.5000 
     25 C          -0.1584  -22.6452  -42.2435 C.2       9 UNK         0.5000 
     26 O          -0.9321  -23.4211  -42.8080 O.2       9 UNK        -0.5000 
     27 CA         -0.4344  -22.2019  -40.7895 C.3       9 UNK         0.1400 
     28 CB         -1.2926  -23.2196  -40.0103 C.3       9 UNK        -0.1800 
     29 N           0.7672  -21.8539  -40.0228 N.am      9 UNK        -0.5000 
     30 C           1.8152  -22.6446  -39.7369 C.2       8 UNK         0.5000 
     31 O           1.9127  -23.8109  -40.1211 O.2       8 UNK        -0.5000 
     32 CA          2.9296  -22.0497  -38.8434 C.3       8 UNK         0.1400 
     33 CB          4.3406  -22.4695  -39.3076 C.3       8 UNK        -0.1800 
     34 N           2.8427  -20.5940  -38.6542 N.am      8 UNK        -0.5000 
     35 C           2.9974  -19.6456  -39.5877 C.2       7 UNK         0.5000 
     36 O           3.2988  -19.8699  -40.7617 O.2       7 UNK        -0.5000 
     37 CA          2.7219  -18.1997  -39.1359 C.3       7 UNK         0.1400 
     38 CB          4.0218  -17.3833  -39.0882 C.3       7 UNK        -0.1800 
     39 N           1.7761  -17.5542  -40.0435 N.am      7 UNK        -0.5000 
     40 C           0.4968  -17.9288  -40.2060 C.2       6 UNK         0.5000 
     41 O          -0.0607  -18.7742  -39.5039 O.2       6 UNK        -0.5000 
     42 CA         -0.2693  -17.2969  -41.3878 C.3       6 UNK         0.1400 
     43 CB         -0.9960  -16.0197  -40.9448 C.3       6 UNK        -0.1800 
     44 N           0.6106  -16.9906  -42.5180 N.am      6 UNK        -0.5000 
     45 C           1.2959  -17.9203  -43.2003 C.2       5 UNK         0.5000 
     46 O           1.0671  -19.1235  -43.0823 O.2       5 UNK        -0.5000 
     47 CA          2.4119  -17.4578  -44.1612 C.3       5 UNK         0.1400 
     48 CB          2.1542  -17.9607  -45.5899 C.3       5 UNK        -0.1800 
     49 N           2.6082  -16.0065  -44.1944 N.am      5 UNK        -0.5000 
     50 C           3.1425  -15.2714  -43.2066 C.2       4 UNK         0.5000 
     51 O           3.5555  -15.7545  -42.1522 O.2       4 UNK        -0.5000 
     52 CA          3.1722  -13.7394  -43.3973 C.3       4 UNK         0.1400 
     53 CB          4.5518  -13.2901  -43.9009 C.3       4 UNK        -0.1800 
     54 N           2.1453  -13.2358  -44.3137 N.am      4 UNK        -0.5000 
     55 C           0.8215  -13.3651  -44.1439 C.2       3 UNK         0.5000 
     56 O           0.3132  -13.8575  -43.1364 O.2       3 UNK        -0.5000 
     57 CA         -0.0867  -12.9231  -45.3116 C.3       3 UNK         0.1400 
     58 CB         -0.6604  -11.5237  -45.0454 C.3       3 UNK        -0.1800 
     59 N           0.5416  -12.9327  -46.6399 N.am      3 UNK        -0.5000 
     60 C           1.1433  -13.9772  -47.2248 C.2       2 UNK         0.5000 
     61 O           1.3215  -15.0569  -46.6624 O.2       2 UNK        -0.5000 
     62 CA          1.6084  -13.7780  -48.6794 C.3       2 UNK         0.1400 
     63 CB          2.4269  -14.9724  -49.2029 C.3       2 UNK        -0.1800 
     64 N           0.4743  -13.5637  -49.5767 N.am      2 UNK        -0.5000 
     65 C          -0.1744  -12.4060  -49.7486 C.2       1 UNK         0.5000 
     66 O           0.0805  -11.3765  -49.1178 O.2       1 UNK        -0.5000 
     67 C          -2.7676  -21.0215  -45.6555 C.2       11 UNK         0.5000 
     68 O          -3.4919  -21.0597  -46.6500 O.2       11 UNK        -0.5000 
     69 N          -2.9936  -21.7505  -44.5519 N.am      12 UNK        -0.5000 
     70 CA         -4.0893  -22.7135  -44.4259 C.3       12 UNK         0.1400 
     71 CB         -4.3282  -23.0550  -42.9479 C.3       12 UNK        -0.1800 
     72 C          -3.8292  -23.9837  -45.2544 C.2       12 UNK         0.5000 
     73 O          -4.7653  -24.5115  -45.8534 O.2       12 UNK        -0.5000 
     74 N          -2.5615  -24.4177  -45.3233 N.am      13 UNK        -0.5000 
     75 CA         -2.1058  -25.5103  -46.1879 C.3       13 UNK         0.1400 
     76 CB         -0.6764  -25.9162  -45.7981 C.3       13 UNK        -0.1800 
     77 C          -2.1947  -25.1493  -47.6849 C.2       13 UNK         0.5000 
     78 O          -2.5961  -25.9881  -48.4916 O.2       13 UNK        -0.5000 
     79 N          -1.8673  -23.8926  -48.0193 N.am      14 UNK        -0.5000 
     80 CA         -2.0462  -23.2949  -49.3467 C.3       14 UNK         0.1400 
     81 CB         -1.2367  -21.9895  -49.4098 C.3       14 UNK        -0.1800 
     82 C          -3.5191  -23.0083  -49.7030 C.2       14 UNK         0.5000 
     83 O          -3.8241  -22.7756  -50.8770 O.2       14 UNK        -0.5000 
     84 N          -4.3835  -23.0013  -48.6786 N.am      15 UNK        -0.5000 
     85 CA         -5.8108  -22.6811  -48.6797 C.3       15 UNK         0.1400 
     86 CB         -6.6074  -23.7884  -49.3955 C.3       15 UNK        -0.1800 
     87 C          -6.0955  -21.2661  -49.2202 C.2       15 UNK         0.5000 
     88 O          -7.0377  -21.0786  -49.9890 O.2       15 UNK        -0.5000 
     89 N          -5.2403  -20.3025  -48.8422 N.am      16 UNK        -0.5000 
     90 CA         -5.2223  -18.9099  -49.3109 C.3       16 UNK         0.1400 
     91 CB         -6.3772  -18.1109  -48.6759 C.3       16 UNK        -0.1800 
     92 C          -5.1817  -18.8048  -50.8519 C.2       16 UNK         0.5000 
     93 O          -5.9532  -18.0524  -51.4483 O.2       16 UNK        -0.5000 
     94 N          -4.2946  -19.6149  -51.4457 N.am      17 UNK        -0.5000 
     95 CA         -4.0401  -19.8267  -52.8729 C.3       17 UNK         0.1400 
     96 CB         -3.9348  -18.5121  -53.6720 C.3       17 UNK        -0.1800 
     97 C          -4.9953  -20.8120  -53.5641 C.2       17 UNK         0.5000 
     98 O          -4.7162  -21.1698  -54.7080 O.2       17 UNK        -0.5000 
     99 N          -6.0683  -21.2714  -52.9032 N.am      18 UNK        -0.5000 
    100 CA        -7.0424  -22.1869  -53.5094 C.3       18 UNK         0.1400 
    101 CB        -8.3080  -22.2694  -52.6442 C.3       18 UNK        -0.1800 
    102 C         -6.4810  -23.5943  -53.7947 C.2       18 UNK         0.5000 
    103 O         -6.9658  -24.2502  -54.7180 O.2       18 UNK        -0.5000 
    104 N         -5.4728  -24.0254  -53.0234 N.am      19 UNK        -0.5000 
    105 CA        -4.7665  -25.2902  -53.2267 C.3       19 UNK         0.1400 
    106 CB        -4.6323  -26.0303  -51.8860 C.3       19 UNK        -0.1800 
    107 C         -3.3857  -25.0607  -53.8624 C.2       19 UNK         0.5000 
    108 O         -2.9831  -25.8456  -54.7217 O.2       19 UNK        -0.5000 
    109 N         -2.6795  -24.0029  -53.4349 N.am      20 UNK        -0.5000 
    110 CA        -1.3182  -23.6997  -53.8883 C.3       20 UNK         0.1400 
    111 CB        -0.6441  -22.7511  -52.8873 C.3       20 UNK        -0.1800 
    112 C         -1.2341  -23.1040  -55.3048 C.2       20 UNK         0.5000 
    113 O         -0.1998  -23.2648  -55.9537 O.2       20 UNK        -0.5000 
    114 N         -2.2897  -22.3981  -55.7402 N.am      21 UNK        -0.5000 
    115 CA        -2.3745  -21.6208  -56.9849 C.3       21 UNK         0.1400 
    116 CB        -2.3217  -22.5445  -58.2200 C.3       21 UNK        -0.1800 
    117 C         -1.3523  -20.4613  -57.0486 C.2       21 UNK         0.5000 
    118 O         -0.9129  -20.0842  -58.1361 O.2       21 UNK        -0.5000 
    119 N         -0.9904  -19.9174  -55.8781 N.am      22 UNK        -0.5000 
    120 CA        -0.0019  -18.8398  -55.7033 C.3       22 UNK         0.1400 
    121 C         -0.4975  -17.4069  -56.0642 C.2       22 UNK         0.5000 
    122 N         -1.7578  -17.2043  -56.4275 N.am      22 UNK        -0.7600 
    123 O          0.2840  -16.4605  -56.0302 O.2       22 UNK        -0.5000 
    124 C124        0.6720  -18.9030  -54.3050 C.3       23 UNK        -0.0398 
    125 S125       -0.4850  -18.7881  -52.8940 S.3       23 UNK        -0.2404 
    126 C126       -0.2180  -17.0676  -52.3646 C.3       23 UNK        -0.0205 
    127 H127       -0.2455  -10.0807  -54.4940 H         1 UNK         0.0600 
    128 H128       -1.0336   -9.1990  -53.1828 H         1 UNK         0.0600 
    129 H129        0.7289   -9.2737  -53.2605 H         1 UNK         0.0600 
    130 H130       -1.8599  -10.5462  -51.6163 H         1 UNK         0.3000 
    131 H131       -1.1956  -13.3163  -51.3913 H         1 UNK         0.0600 
    132 H132       -2.7145  -13.0807  -49.2492 H         1 UNK         0.0800 
    133 H133       -2.9589  -11.4364  -49.7468 H         1 UNK         0.0800 
    134 H134       -4.9799  -15.1548  -51.4960 H         1 UNK         0.0800 
    135 H135       -5.0005  -14.5862  -49.8479 H         1 UNK         0.0800 
    136 H136       -2.5322  -15.6166  -52.5138 H         1 UNK         0.1150 
    137 H137        0.0186  -17.6233  -49.7152 H         1 UNK         0.1150 
    138 H138       -3.4625  -15.5396  -48.3321 H         1 UNK         0.1150 
    139 H139       -0.5013  -17.7016  -47.4367 H         1 UNK         0.0800 
    140 H140       -1.0246  -16.1184  -46.8951 H         1 UNK         0.0800 
    141 H141       -0.9210  -18.1310  -45.0110 H         1 UNK         0.0800 
    142 H142       -2.4199  -18.6655  -44.3128 H         1 UNK         0.0800 
    143 H143       -1.1664  -20.0833  -46.7098 H         1 UNK         0.0600 
    144 H144       -0.0711  -20.2073  -44.0924 H         1 UNK         0.3000 
    145 H145        1.3048  -23.4705  -44.3811 H         1 UNK         0.0600 
    146 H146        3.4307  -22.3861  -43.9440 H         1 UNK         0.0600 
    147 H147        2.9498  -21.9606  -45.5795 H         1 UNK         0.0600 
    148 H148        2.7740  -20.7906  -44.2751 H         1 UNK         0.0600 
    149 H149        1.4707  -21.4355  -42.3597 H         1 UNK         0.3000 
    150 H150       -1.0126  -21.2801  -40.8679 H         1 UNK         0.0600 
    151 H151       -2.2646  -23.3596  -40.4831 H         1 UNK         0.0600 
    152 H152       -1.4784  -22.8806  -38.9912 H         1 UNK         0.0600 
    153 H153       -0.8115  -24.1967  -39.9569 H         1 UNK         0.0600 
    154 H154        0.7852  -20.9058  -39.6681 H         1 UNK         0.3000 
    155 H155        2.7734  -22.4838  -37.8549 H         1 UNK         0.0600 
    156 H156        5.1115  -22.0386  -38.6689 H         1 UNK         0.0600 
    157 H157        4.5413  -22.1599  -40.3335 H         1 UNK         0.0600 
    158 H158        4.4584  -23.5530  -39.2686 H         1 UNK         0.0600 
    159 H159        2.5778  -20.3029  -37.7228 H         1 UNK         0.3000 
    160 H160        2.2823  -18.2073  -38.1363 H         1 UNK         0.0600 
    161 H161        4.5077  -17.3432  -40.0641 H         1 UNK         0.0600 
    162 H162        4.7318  -17.8219  -38.3860 H         1 UNK         0.0600 
    163 H163        3.8340  -16.3590  -38.7658 H         1 UNK         0.0600 
    164 H164        2.1741  -16.8995  -40.7049 H         1 UNK         0.3000 
    165 H165       -1.0168  -18.0184  -41.7244 H         1 UNK         0.0600 
    166 H166       -0.2945  -15.2504  -40.6192 H         1 UNK         0.0600 
    167 H167       -1.5929  -15.6048  -41.7574 H         1 UNK         0.0600 
    168 H168       -1.6729  -16.2226  -40.1140 H         1 UNK         0.0600 
    169 H169        0.7953  -16.0116  -42.6982 H         1 UNK         0.3000 
    170 H170        3.3377  -17.9152  -43.8065 H         1 UNK         0.0600 
    171 H171        2.0718  -19.0461  -45.6276 H         1 UNK         0.0600 
    172 H172        1.2283  -17.5534  -45.9882 H         1 UNK         0.0600 
    173 H173        2.9622  -17.6730  -46.2627 H         1 UNK         0.0600 
    174 H174        2.2522  -15.5344  -45.0214 H         1 UNK         0.3000 
    175 H175        2.9973  -13.2853  -42.4199 H         1 UNK         0.0600 
    176 H176        4.7699  -13.6950  -44.8900 H         1 UNK         0.0600 
    177 H177        4.6165  -12.2034  -43.9598 H         1 UNK         0.0600 
    178 H178        5.3419  -13.6251  -43.2273 H         1 UNK         0.0600 
    179 H179        2.4714  -12.8261  -45.1762 H         1 UNK         0.3000 
    180 H180       -0.9181  -13.6299  -45.3483 H         1 UNK         0.0600 
    181 H181       -1.1662  -11.4841  -44.0796 H         1 UNK         0.0600 
    182 H182        0.1226  -10.7644  -45.0384 H         1 UNK         0.0600 
    183 H183       -1.3915  -11.2457  -45.8049 H         1 UNK         0.0600 
    184 H184        0.4191  -12.0979  -47.2029 H         1 UNK         0.3000 
    185 H185        2.2536  -12.8972  -48.7012 H         1 UNK         0.0600 
    186 H186        3.3041  -15.1484  -48.5789 H         1 UNK         0.0600 
    187 H187        1.8413  -15.8923  -49.2109 H         1 UNK         0.0600 
    188 H188        2.7822  -14.7929  -50.2178 H         1 UNK         0.0600 
    189 H189        0.1729  -14.3720  -50.1018 H         1 UNK         0.3000 
    190 H190       -2.3275  -21.7173  -43.7942 H         1 UNK         0.3000 
    191 H191       -4.9986  -22.2449  -44.8093 H         1 UNK         0.0600 
    192 H192       -5.2249  -23.6653  -42.8347 H         1 UNK         0.0600 
    193 H193       -4.4695  -22.1553  -42.3489 H         1 UNK         0.0600 
    194 H194       -3.5002  -23.6194  -42.5216 H         1 UNK         0.0600 
    195 H195       -1.8589  -23.9509  -44.7628 H         1 UNK         0.3000 
    196 H196       -2.7582  -26.3687  -46.0144 H         1 UNK         0.0600 
    197 H197       -0.3437  -26.7741  -46.3836 H         1 UNK         0.0600 
    198 H198       -0.6190  -26.1973  -44.7463 H         1 UNK         0.0600 
    199 H199        0.0366  -25.1099  -45.9678 H         1 UNK         0.0600 
    200 H200       -1.4491  -23.2990  -47.3086 H         1 UNK         0.3000 
    201 H201       -1.6591  -23.9919  -50.0913 H         1 UNK         0.0600 
    202 H202       -0.1742  -22.1749  -49.2516 H         1 UNK         0.0600 
    203 H203       -1.5684  -21.2783  -48.6548 H         1 UNK         0.0600 
    204 H204       -1.3422  -21.4968  -50.3759 H         1 UNK         0.0600 
    205 H205       -3.9934  -23.1694  -47.7619 H         1 UNK         0.3000 
    206 H206       -6.1234  -22.6728  -47.6347 H         1 UNK         0.0600 
    207 H207       -6.4029  -24.7643  -48.9551 H         1 UNK         0.0600 
    208 H208       -7.6810  -23.6148  -49.3155 H         1 UNK         0.0600 
    209 H209       -6.3596  -23.8430  -50.4533 H         1 UNK         0.0600 
    210 H210       -4.5175  -20.5547  -48.1710 H         1 UNK         0.3000 
    211 H211       -4.2869  -18.4772  -48.9565 H         1 UNK         0.0600 
    212 H212       -7.3506  -18.4769  -49.0039 H         1 UNK         0.0600 
    213 H213       -6.3139  -17.0555  -48.9436 H         1 UNK         0.0600 
    214 H214       -6.3432  -18.1713  -47.5881 H         1 UNK         0.0600 
    215 H215       -3.7701  -20.2295  -50.8390 H         1 UNK         0.3000 
    216 H216       -3.0610  -20.3030  -52.9095 H         1 UNK         0.0600 
    217 H217       -4.9036  -18.0296  -53.8004 H         1 UNK         0.0600 
    218 H218       -3.5369  -18.6979  -54.6690 H         1 UNK         0.0600 
    219 H219       -3.2682  -17.8040  -53.1876 H         1 UNK         0.0600 
    220 H220       -6.2483  -20.9689  -51.9523 H         1 UNK         0.3000 
    221 H221       -7.3348  -21.7585  -54.4706 H         1 UNK         0.0600 
    222 H222       -8.1191  -22.7703  -51.6961 H         1 UNK         0.0600 
    223 H223       -8.7074  -21.2782  -52.4285 H         1 UNK         0.0600 
    224 H224       -9.0903  -22.8316  -53.1555 H         1 UNK         0.0600 
    225 H225       -5.1227  -23.4211  -52.2874 H         1 UNK         0.3000 
    226 H226       -5.3323  -25.9383  -53.8991 H         1 UNK         0.0600 
    227 H227       -5.6082  -26.2042  -51.4327 H         1 UNK         0.0600 
    228 H228       -4.1615  -27.0039  -52.0263 H         1 UNK         0.0600 
    229 H229       -4.0252  -25.4783  -51.1697 H         1 UNK         0.0600 
    230 H230       -3.0621  -23.4255  -52.6961 H         1 UNK         0.3000 
    231 H231       -0.7450  -24.6295  -53.8994 H         1 UNK         0.0600 
    232 H232       -1.2394  -21.8547  -52.7179 H         1 UNK         0.0600 
    233 H233       -0.4831  -23.2451  -51.9314 H         1 UNK         0.0600 
    234 H234        0.3358  -22.4291  -53.2432 H         1 UNK         0.0600 
    235 H235       -3.1042  -22.3165  -55.1411 H         1 UNK         0.3000 
    236 H236       -3.3567  -21.1473  -56.9817 H         1 UNK         0.0600 
    237 H237       -3.0528  -23.3491  -58.1409 H         1 UNK         0.0600 
    238 H238       -2.5483  -21.9907  -59.1318 H         1 UNK         0.0600 
    239 H239       -1.3380  -22.9959  -58.3500 H         1 UNK         0.0600 
    240 H240       -1.4039  -20.2735  -55.0303 H         1 UNK         0.3000 
    241 H241        0.7943  -19.0344  -56.4245 H         1 UNK         0.0600 
    242 H242       -2.4037  -17.9731  -56.4880 H         1 UNK         0.3800 
    243 H243       -2.0598  -16.2733  -56.6670 H         1 UNK         0.3800 
    244 H244        1.4452  -18.1384  -54.2129 H         1 UNK         0.0800 
    245 H245        1.1997  -19.8529  -54.2104 H         1 UNK         0.0800 
    246 H246       -0.3543  -16.3996  -53.2162 H         1 UNK         0.0800 
    247 H247        0.8167  -16.9457  -52.0406 H         1 UNK         0.0800 
@<TRIPOS>BOND
     1    1    2 1    
     2    1  127 1    
     3    1  128 1    
     4    1  129 1    
     5    2    3 2    
     6    2    4 am   BACKBONE|DICT|INTERRES
     7    4    5 1    
     8    4  130 1    
     9    5    6 1    
    10    5   65 1    
    11    5  131 1    
    12    6    7 1    
    13    6  132 1    
    14    6  133 1    
    15    7    8 1    
    16    8    9 1    
    17    8  134 1    
    18    8  135 1    
    19    9   10 ar   
    20    9   14 ar   
    21   10   11 ar   
    22   10  136 1    
    23   11   12 ar   
    24   11  126 1    
    25   12   13 ar   
    26   12  137 1    
    27   13   14 ar   
    28   13   15 1    
    29   14  138 1    
    30   15   16 1    
    31   15  139 1    
    32   15  140 1    
    33   16   17 1    
    34   17   18 1    
    35   17  141 1    
    36   17  142 1    
    37   18   19 1    
    38   18   67 1    
    39   18  143 1    
    40   19   20 am   BACKBONE|DICT|INTERRES
    41   19  144 1    
    42   20   21 2    
    43   20   22 1    
    44   22   23 1    
    45   22   24 1    
    46   22  145 1    
    47   23  146 1    
    48   23  147 1    
    49   23  148 1    
    50   24   25 am   BACKBONE|DICT|INTERRES
    51   24  149 1    
    52   25   26 2    
    53   25   27 1    
    54   27   28 1    
    55   27   29 1    
    56   27  150 1    
    57   28  151 1    
    58   28  152 1    
    59   28  153 1    
    60   29   30 am   BACKBONE|DICT|INTERRES
    61   29  154 1    
    62   30   31 2    
    63   30   32 1    
    64   32   33 1    
    65   32   34 1    
    66   32  155 1    
    67   33  156 1    
    68   33  157 1    
    69   33  158 1    
    70   34   35 am   BACKBONE|DICT|INTERRES
    71   34  159 1    
    72   35   36 2    
    73   35   37 1    
    74   37   38 1    
    75   37   39 1    
    76   37  160 1    
    77   38  161 1    
    78   38  162 1    
    79   38  163 1    
    80   39   40 am   BACKBONE|DICT|INTERRES
    81   39  164 1    
    82   40   41 2    
    83   40   42 1    
    84   42   43 1    
    85   42   44 1    
    86   42  165 1    
    87   43  166 1    
    88   43  167 1    
    89   43  168 1    
    90   44   45 am   BACKBONE|DICT|INTERRES
    91   44  169 1    
    92   45   46 2    
    93   45   47 1    
    94   47   48 1    
    95   47   49 1    
    96   47  170 1    
    97   48  171 1    
    98   48  172 1    
    99   48  173 1    
   100   49   50 am   BACKBONE|DICT|INTERRES
   101   49  174 1    
   102   50   51 2    
   103   50   52 1    
   104   52   53 1    
   105   52   54 1    
   106   52  175 1    
   107   53  176 1    
   108   53  177 1    
   109   53  178 1    
   110   54   55 am   BACKBONE|DICT|INTERRES
   111   54  179 1    
   112   55   56 2    
   113   55   57 1    
   114   57   58 1    
   115   57   59 1    
   116   57  180 1    
   117   58  181 1    
   118   58  182 1    
   119   58  183 1    
   120   59   60 am   BACKBONE|DICT|INTERRES
   121   59  184 1    
   122   60   61 2    
   123   60   62 1    
   124   62   63 1    
   125   62   64 1    
   126   62  185 1    
   127   63  186 1    
   128   63  187 1    
   129   63  188 1    
   130   64   65 am   BACKBONE|DICT|INTERRES
   131   64  189 1    
   132   65   66 2    
   133   67   68 2    
   134   67   69 am   BACKBONE|DICT|INTERRES
   135   69   70 1    
   136   69  190 1    
   137   70   71 1    
   138   70   72 1    
   139   70  191 1    
   140   71  192 1    
   141   71  193 1    
   142   71  194 1    
   143   72   73 2    
   144   72   74 am   BACKBONE|DICT|INTERRES
   145   74   75 1    
   146   74  195 1    
   147   75   76 1    
   148   75   77 1    
   149   75  196 1    
   150   76  197 1    
   151   76  198 1    
   152   76  199 1    
   153   77   78 2    
   154   77   79 am   BACKBONE|DICT|INTERRES
   155   79   80 1    
   156   79  200 1    
   157   80   81 1    
   158   80   82 1    
   159   80  201 1    
   160   81  202 1    
   161   81  203 1    
   162   81  204 1    
   163   82   83 2    
   164   82   84 am   BACKBONE|DICT|INTERRES
   165   84   85 1    
   166   84  205 1    
   167   85   86 1    
   168   85   87 1    
   169   85  206 1    
   170   86  207 1    
   171   86  208 1    
   172   86  209 1    
   173   87   88 2    
   174   87   89 am   BACKBONE|DICT|INTERRES
   175   89   90 1    
   176   89  210 1    
   177   90   91 1    
   178   90   92 1    
   179   90  211 1    
   180   91  212 1    
   181   91  213 1    
   182   91  214 1    
   183   92   93 2    
   184   92   94 am   BACKBONE|DICT|INTERRES
   185   94   95 1    
   186   94  215 1    
   187   95   96 1    
   188   95   97 1    
   189   95  216 1    
   190   96  217 1    
   191   96  218 1    
   192   96  219 1    
   193   97   98 2    
   194   97   99 am   BACKBONE|DICT|INTERRES
   195   99  100 1    
   196   99  220 1    
   197  100  101 1    
   198  100  102 1    
   199  100  221 1    
   200  101  222 1    
   201  101  223 1    
   202  101  224 1    
   203  102  103 2    
   204  102  104 am   BACKBONE|DICT|INTERRES
   205  104  105 1    
   206  104  225 1    
   207  105  106 1    
   208  105  107 1    
   209  105  226 1    
   210  106  227 1    
   211  106  228 1    
   212  106  229 1    
   213  107  108 2    
   214  107  109 am   BACKBONE|DICT|INTERRES
   215  109  110 1    
   216  109  230 1    
   217  110  111 1    
   218  110  112 1    
   219  110  231 1    
   220  111  232 1    
   221  111  233 1    
   222  111  234 1    
   223  112  113 2    
   224  112  114 am   BACKBONE|DICT|INTERRES
   225  114  115 1    
   226  114  235 1    
   227  115  116 1    
   228  115  117 1    
   229  115  236 1    
   230  116  237 1    
   231  116  238 1    
   232  116  239 1    
   233  117  118 2    
   234  117  119 am   BACKBONE|DICT|INTERRES
   235  119  120 1    
   236  119  240 1    
   237  120  121 1    
   238  120  124 1    
   239  120  241 1    
   240  121  122 am   BACKBONE|DICT|INTERRES
   241  121  123 2    
   242  122  242 1    
   243  122  243 1    
   244  124  125 1    
   245  124  244 1    
   246  124  245 1    
   247  125  126 1    
   248  126  246 1    
   249  126  247 1    
@<TRIPOS>SUBSTRUCTURE
     1 UNK         1 GROUP             0       ****    0 ROOT    
