@<TRIPOS>MOLECULE
3R540
247   249    1
SMALL
USER_CHARGES


@<TRIPOS>ATOM
      1 CA          5.0129  -11.9453  -49.3733 C.3       0 UNK        -0.1800 
      2 C           4.2706  -13.2207  -49.0021 C.2       0 UNK         0.5000 
      3 O           4.6695  -13.9131  -48.0662 O.2       0 UNK        -0.5000 
      4 N           3.1824  -13.5259  -49.7212 N.am      1 UNK        -0.5000 
      5 CA          2.3582  -14.7327  -49.5458 C.3       1 UNK         0.1400 
      6 C6          1.3802  -14.9575  -50.7295 C.3       23 UNK        -0.0398 
      7 S7          2.1096  -14.7690  -52.3967 S.3       23 UNK        -0.2404 
      8 C8          3.3950  -16.0593  -52.4431 C.3       23 UNK        -0.0205 
      9 C9          2.8403  -17.4508  -52.1795 C.ar      23 UNK        -0.0193 
     10 C10         1.9826  -18.0605  -53.0994 C.ar      23 UNK        -0.1150 
     11 C11         1.4676  -19.3375  -52.8530 C.ar      23 UNK        -0.0193 
     12 C12         1.8196  -20.0055  -51.6756 C.ar      23 UNK        -0.1150 
     13 C13         2.6866  -19.4087  -50.7543 C.ar      23 UNK        -0.0193 
     14 C14         3.1975  -18.1357  -51.0164 C.ar      23 UNK        -0.1150 
     15 C15         3.0949  -20.1401  -49.4843 C.3       23 UNK        -0.0205 
     16 S16         2.5519  -19.2743  -47.9744 S.3       23 UNK        -0.2404 
     17 C17         0.7404  -19.4681  -48.0708 C.3       23 UNK        -0.0398 
     18 CA          0.2878  -20.8362  -47.5150 C.3       11 UNK         0.1400 
     19 N           0.4977  -20.9743  -46.0734 N.am      11 UNK        -0.5000 
     20 C           0.4591  -22.1440  -45.4220 C.2       10 UNK         0.5000 
     21 O           0.2577  -23.2257  -45.9749 O.2       10 UNK        -0.5000 
     22 CA          0.6292  -22.0965  -43.8940 C.3       10 UNK         0.1400 
     23 CB          2.1058  -21.9166  -43.5115 C.3       10 UNK        -0.1800 
     24 N          -0.1791  -21.0484  -43.2700 N.am      10 UNK        -0.5000 
     25 C          -1.5193  -21.0125  -43.2955 C.2       9 UNK         0.5000 
     26 O          -2.2167  -21.8769  -43.8272 O.2       9 UNK        -0.5000 
     27 CA         -2.1962  -19.7886  -42.6533 C.3       9 UNK         0.1400 
     28 CB         -2.2290  -19.9224  -41.1236 C.3       9 UNK        -0.1800 
     29 N          -1.5575  -18.5257  -43.0233 N.am      9 UNK        -0.5000 
     30 C          -1.4875  -18.0448  -44.2735 C.2       8 UNK         0.5000 
     31 O          -1.9784  -18.6032  -45.2530 O.2       8 UNK        -0.5000 
     32 CA         -0.6881  -16.7459  -44.4707 C.3       8 UNK         0.1400 
     33 CB         -1.4958  -15.5338  -43.9803 C.3       8 UNK        -0.1800 
     34 N           0.6059  -16.7821  -43.7911 N.am      8 UNK        -0.5000 
     35 C           1.5679  -17.6887  -44.0167 C.2       7 UNK         0.5000 
     36 O           1.4824  -18.5912  -44.8463 O.2       7 UNK        -0.5000 
     37 CA          2.8060  -17.6162  -43.1094 C.3       7 UNK         0.1400 
     38 CB          3.7609  -16.4994  -43.5611 C.3       7 UNK        -0.1800 
     39 N           2.4353  -17.4246  -41.7071 N.am      7 UNK        -0.5000 
     40 C           1.7900  -18.3366  -40.9643 C.2       6 UNK         0.5000 
     41 O           1.4756  -19.4551  -41.3706 O.2       6 UNK        -0.5000 
     42 CA          1.3929  -17.9079  -39.5406 C.3       6 UNK         0.1400 
     43 CB          2.5753  -18.0708  -38.5739 C.3       6 UNK        -0.1800 
     44 N           0.9088  -16.5278  -39.4896 N.am      6 UNK        -0.5000 
     45 C          -0.2314  -16.1057  -40.0543 C.2       5 UNK         0.5000 
     46 O          -1.0169  -16.8457  -40.6464 O.2       5 UNK        -0.5000 
     47 CA         -0.5112  -14.5921  -39.9895 C.3       5 UNK         0.1400 
     48 CB         -1.1923  -14.2234  -38.6633 C.3       5 UNK        -0.1800 
     49 N           0.6931  -13.7725  -40.1660 N.am      5 UNK        -0.5000 
     50 C           1.4436  -13.7699  -41.2745 C.2       4 UNK         0.5000 
     51 O           1.2109  -14.4799  -42.2571 O.2       4 UNK        -0.5000 
     52 CA          2.6774  -12.8589  -41.2814 C.3       4 UNK         0.1400 
     53 CB          3.8408  -13.4977  -40.5041 C.3       4 UNK        -0.1800 
     54 N           3.0650  -12.6696  -42.6715 N.am      4 UNK        -0.5000 
     55 C           3.6449  -11.5911  -43.2031 C.2       3 UNK         0.5000 
     56 O           4.0342  -10.6269  -42.5429 O.2       3 UNK        -0.5000 
     57 CA          3.8092  -11.5837  -44.7382 C.3       3 UNK         0.1400 
     58 CB          5.2473  -11.9669  -45.1199 C.3       3 UNK        -0.1800 
     59 N           2.8777  -12.4720  -45.4467 N.am      3 UNK        -0.5000 
     60 C           1.5453  -12.3165  -45.4925 C.2       2 UNK         0.5000 
     61 O           0.9512  -11.3831  -44.9517 O.2       2 UNK        -0.5000 
     62 CA          0.7674  -13.3697  -46.3001 C.3       2 UNK         0.1400 
     63 CB         -0.7091  -12.9983  -46.5366 C.3       2 UNK        -0.1800 
     64 N           1.4281  -13.5775  -47.5834 N.am      2 UNK        -0.5000 
     65 C           1.5785  -14.7506  -48.2095 C.2       1 UNK         0.5000 
     66 O           1.1269  -15.8124  -47.7823 O.2       1 UNK        -0.5000 
     67 C          -1.1585  -21.1651  -47.9248 C.2       11 UNK         0.5000 
     68 O          -1.3411  -21.8198  -48.9482 O.2       11 UNK        -0.5000 
     69 N          -2.1547  -20.7726  -47.1160 N.am      12 UNK        -0.5000 
     70 CA         -3.5589  -21.1389  -47.3166 C.3       12 UNK         0.1400 
     71 CB         -4.4573  -20.3828  -46.3280 C.3       12 UNK        -0.1800 
     72 C          -3.7929  -22.6560  -47.2136 C.2       12 UNK         0.5000 
     73 O          -4.5195  -23.2086  -48.0399 O.2       12 UNK        -0.5000 
     74 N          -3.1469  -23.3073  -46.2359 N.am      13 UNK        -0.5000 
     75 CA         -3.1574  -24.7601  -46.0631 C.3       13 UNK         0.1400 
     76 CB         -2.5014  -25.1334  -44.7255 C.3       13 UNK        -0.1800 
     77 C          -2.4866  -25.4949  -47.2380 C.2       13 UNK         0.5000 
     78 O          -3.0666  -26.4459  -47.7634 O.2       13 UNK        -0.5000 
     79 N          -1.3121  -25.0096  -47.6691 N.am      14 UNK        -0.5000 
     80 CA         -0.5789  -25.5070  -48.8395 C.3       14 UNK         0.1400 
     81 CB          0.7850  -24.8059  -48.9267 C.3       14 UNK        -0.1800 
     82 C          -1.3602  -25.3389  -50.1584 C.2       14 UNK         0.5000 
     83 O          -1.2819  -26.2028  -51.0317 O.2       14 UNK        -0.5000 
     84 N          -2.1404  -24.2555  -50.2497 N.am      15 UNK        -0.5000 
     85 CA         -3.0729  -23.9439  -51.3312 C.3       15 UNK         0.1400 
     86 CB         -3.3375  -22.4298  -51.3189 C.3       15 UNK        -0.1800 
     87 C          -4.3987  -24.7313  -51.2652 C.2       15 UNK         0.5000 
     88 O          -5.2987  -24.4263  -52.0477 O.2       15 UNK        -0.5000 
     89 N          -4.5136  -25.7023  -50.3456 N.am      16 UNK        -0.5000 
     90 CA         -5.6624  -26.5837  -50.1166 C.3       16 UNK         0.1400 
     91 CB         -5.9175  -27.4895  -51.3399 C.3       16 UNK        -0.1800 
     92 C          -6.9092  -25.8030  -49.6597 C.2       16 UNK         0.5000 
     93 O          -7.9720  -25.9087  -50.2728 O.2       16 UNK        -0.5000 
     94 N          -6.7285  -25.0142  -48.5913 N.am      17 UNK        -0.5000 
     95 CA         -7.6898  -24.0784  -47.9984 C.3       17 UNK         0.1400 
     96 CB         -8.9564  -24.8008  -47.4919 C.3       17 UNK        -0.1800 
     97 C          -7.9827  -22.8969  -48.9436 C.2       17 UNK         0.5000 
     98 O          -9.1406  -22.5214  -49.1355 O.2       17 UNK        -0.5000 
     99 N          -6.9022  -22.3428  -49.5148 N.am      18 UNK        -0.5000 
    100 CA        -6.8701  -21.2155  -50.4537 C.3       18 UNK         0.1400 
    101 CB        -7.2857  -19.9100  -49.7444 C.3       18 UNK        -0.1800 
    102 C         -7.6515  -21.4742  -51.7615 C.2       18 UNK         0.5000 
    103 O         -8.2491  -20.5502  -52.3167 O.2       18 UNK        -0.5000 
    104 N         -7.6319  -22.7276  -52.2341 N.am      19 UNK        -0.5000 
    105 CA        -8.2218  -23.1417  -53.5054 C.3       19 UNK         0.1400 
    106 CB        -8.5169  -24.6484  -53.4664 C.3       19 UNK        -0.1800 
    107 C         -7.3072  -22.7944  -54.6928 C.2       19 UNK         0.5000 
    108 O         -7.8099  -22.4122  -55.7508 O.2       19 UNK        -0.5000 
    109 N         -5.9857  -22.9195  -54.4983 N.am      20 UNK        -0.5000 
    110 CA        -4.9677  -22.5062  -55.4651 C.3       20 UNK         0.1400 
    111 CB        -3.6023  -23.0835  -55.0617 C.3       20 UNK        -0.1800 
    112 C         -4.8979  -20.9717  -55.5819 C.2       20 UNK         0.5000 
    113 O         -5.0905  -20.2646  -54.5886 O.2       20 UNK        -0.5000 
    114 N         -4.6080  -20.4857  -56.7941 N.am      21 UNK        -0.5000 
    115 CA        -4.5756  -19.0683  -57.1591 C.3       21 UNK         0.1400 
    116 CB        -4.8056  -18.9499  -58.6772 C.3       21 UNK        -0.1800 
    117 C         -3.2848  -18.3586  -56.6957 C.2       21 UNK         0.5000 
    118 O         -2.5333  -17.8359  -57.5213 O.2       21 UNK        -0.5000 
    119 N         -3.0486  -18.3524  -55.3794 N.am      22 UNK        -0.5000 
    120 CA        -1.9248  -17.6542  -54.7300 C.3       22 UNK         0.1400 
    121 C         -2.0888  -16.1072  -54.6479 C.2       22 UNK         0.5000 
    122 N         -3.2646  -15.5437  -54.8997 N.am      22 UNK        -0.7600 
    123 O         -1.1267  -15.4025  -54.3592 O.2       22 UNK        -0.5000 
    124 C124       -1.6041  -18.2392  -53.3311 C.3       23 UNK        -0.0398 
    125 S125       -1.1940  -20.0173  -53.3676 S.3       23 UNK        -0.2404 
    126 C126        0.5562  -20.0053  -53.8737 C.3       23 UNK        -0.0205 
    127 H127        4.9299  -11.2146  -48.5691 H         1 UNK         0.0600 
    128 H128        4.6156  -11.4966  -50.2841 H         1 UNK         0.0600 
    129 H129        6.0695  -12.1594  -49.5342 H         1 UNK         0.0600 
    130 H130        2.9099  -12.9258  -50.4873 H         1 UNK         0.3000 
    131 H131        3.0412  -15.5825  -49.5094 H         1 UNK         0.0600 
    132 H132        0.9294  -15.9496  -50.6625 H         1 UNK         0.0800 
    133 H133        0.5503  -14.2508  -50.6711 H         1 UNK         0.0800 
    134 H134        4.1791  -15.8084  -51.7271 H         1 UNK         0.0800 
    135 H135        3.8683  -16.0468  -53.4257 H         1 UNK         0.0800 
    136 H136        1.7124  -17.5344  -54.0046 H         1 UNK         0.1150 
    137 H137        1.4217  -20.9924  -51.4834 H         1 UNK         0.1150 
    138 H138        3.8718  -17.6796  -50.3053 H         1 UNK         0.1150 
    139 H139        2.7107  -21.1609  -49.4801 H         1 UNK         0.0800 
    140 H140        4.1821  -20.2258  -49.4641 H         1 UNK         0.0800 
    141 H141        0.4293  -19.3384  -49.1088 H         1 UNK         0.0800 
    142 H142        0.2745  -18.6548  -47.5110 H         1 UNK         0.0800 
    143 H143        0.9070  -21.5973  -47.9929 H         1 UNK         0.0600 
    144 H144        0.7187  -20.1217  -45.5621 H         1 UNK         0.3000 
    145 H145        0.2924  -23.0556  -43.4952 H         1 UNK         0.0600 
    146 H146        2.2422  -21.9737  -42.4315 H         1 UNK         0.0600 
    147 H147        2.7231  -22.6963  -43.9594 H         1 UNK         0.0600 
    148 H148        2.4957  -20.9553  -43.8469 H         1 UNK         0.0600 
    149 H149        0.3261  -20.3127  -42.7861 H         1 UNK         0.3000 
    150 H150       -3.2269  -19.7552  -43.0120 H         1 UNK         0.0600 
    151 H151       -2.7092  -20.8542  -40.8224 H         1 UNK         0.0600 
    152 H152       -2.7900  -19.1055  -40.6694 H         1 UNK         0.0600 
    153 H153       -1.2256  -19.9154  -40.6966 H         1 UNK         0.0600 
    154 H154       -1.1553  -17.9815  -42.2659 H         1 UNK         0.3000 
    155 H155       -0.4941  -16.6240  -45.5384 H         1 UNK         0.0600 
    156 H156       -1.8039  -15.6451  -42.9409 H         1 UNK         0.0600 
    157 H157       -2.3990  -15.4027  -44.5773 H         1 UNK         0.0600 
    158 H158       -0.9191  -14.6131  -44.0508 H         1 UNK         0.0600 
    159 H159        0.7754  -16.0545  -43.1008 H         1 UNK         0.3000 
    160 H160        3.3367  -18.5671  -43.1911 H         1 UNK         0.0600 
    161 H161        3.2929  -15.5172  -43.5158 H         1 UNK         0.0600 
    162 H162        4.0811  -16.6587  -44.5916 H         1 UNK         0.0600 
    163 H163        4.6580  -16.4725  -42.9426 H         1 UNK         0.0600 
    164 H164        2.6100  -16.5147  -41.3100 H         1 UNK         0.3000 
    165 H165        0.5862  -18.5646  -39.2076 H         1 UNK         0.0600 
    166 H166        2.2810  -17.8416  -37.5495 H         1 UNK         0.0600 
    167 H167        2.9468  -19.0964  -38.5824 H         1 UNK         0.0600 
    168 H168        3.4077  -17.4176  -38.8385 H         1 UNK         0.0600 
    169 H169        1.4946  -15.8522  -39.0218 H         1 UNK         0.3000 
    170 H170       -1.1990  -14.3513  -40.8028 H         1 UNK         0.0600 
    171 H171       -2.1017  -14.8078  -38.5162 H         1 UNK         0.0600 
    172 H172       -0.5405  -14.4094  -37.8088 H         1 UNK         0.0600 
    173 H173       -1.4778  -13.1714  -38.6458 H         1 UNK         0.0600 
    174 H174        0.9468  -13.1697  -39.3963 H         1 UNK         0.3000 
    175 H175        2.4071  -11.8995  -40.8354 H         1 UNK         0.0600 
    176 H176        4.1253  -14.4625  -40.9260 H         1 UNK         0.0600 
    177 H177        4.7218  -12.8558  -40.5187 H         1 UNK         0.0600 
    178 H178        3.5755  -13.6588  -39.4587 H         1 UNK         0.0600 
    179 H179        2.7114  -13.3869  -43.2908 H         1 UNK         0.3000 
    180 H180        3.6248  -10.5630  -45.0795 H         1 UNK         0.0600 
    181 H181        5.4758  -12.9965  -44.8416 H         1 UNK         0.0600 
    182 H182        5.9714  -11.3225  -44.6196 H         1 UNK         0.0600 
    183 H183        5.4128  -11.8651  -46.1920 H         1 UNK         0.0600 
    184 H184        3.2917  -13.2491  -45.9445 H         1 UNK         0.3000 
    185 H185        0.8059  -14.2897  -45.7136 H         1 UNK         0.0600 
    186 H186       -1.2278  -12.8094  -45.5963 H         1 UNK         0.0600 
    187 H187       -0.8022  -12.1004  -47.1483 H         1 UNK         0.0600 
    188 H188       -1.2397  -13.8052  -47.0421 H         1 UNK         0.0600 
    189 H189        1.8455  -12.7583  -48.0032 H         1 UNK         0.3000 
    190 H190       -1.9477  -20.1846  -46.3125 H         1 UNK         0.3000 
    191 H191       -3.8413  -20.8290  -48.3244 H         1 UNK         0.0600 
    192 H192       -4.1978  -20.6074  -45.2933 H         1 UNK         0.0600 
    193 H193       -5.5056  -20.6486  -46.4706 H         1 UNK         0.0600 
    194 H194       -4.3748  -19.3049  -46.4675 H         1 UNK         0.0600 
    195 H195       -2.6074  -22.7717  -45.5622 H         1 UNK         0.3000 
    196 H196       -4.2004  -25.0812  -46.0250 H         1 UNK         0.0600 
    197 H197       -2.5203  -26.2126  -44.5692 H         1 UNK         0.0600 
    198 H198       -3.0276  -24.6738  -43.8886 H         1 UNK         0.0600 
    199 H199       -1.4608  -24.8130  -44.6796 H         1 UNK         0.0600 
    200 H200       -0.8805  -24.2473  -47.1529 H         1 UNK         0.3000 
    201 H201       -0.4052  -26.5747  -48.6911 H         1 UNK         0.0600 
    202 H202        1.3647  -24.9531  -48.0152 H         1 UNK         0.0600 
    203 H203        0.6754  -23.7332  -49.0849 H         1 UNK         0.0600 
    204 H204        1.3742  -25.2005  -49.7553 H         1 UNK         0.0600 
    205 H205       -2.0724  -23.5570  -49.5157 H         1 UNK         0.3000 
    206 H206       -2.5994  -24.1993  -52.2808 H         1 UNK         0.0600 
    207 H207       -2.4135  -21.8747  -51.4729 H         1 UNK         0.0600 
    208 H208       -4.0323  -22.1256  -52.1015 H         1 UNK         0.0600 
    209 H209       -3.7565  -22.1088  -50.3675 H         1 UNK         0.0600 
    210 H210       -3.7371  -25.8435  -49.7107 H         1 UNK         0.3000 
    211 H211       -5.3875  -27.2338  -49.2847 H         1 UNK         0.0600 
    212 H212       -6.2258  -26.9191  -52.2159 H         1 UNK         0.0600 
    213 H213       -6.7055  -28.2135  -51.1297 H         1 UNK         0.0600 
    214 H214       -5.0224  -28.0518  -51.6054 H         1 UNK         0.0600 
    215 H215       -5.7853  -24.9281  -48.2314 H         1 UNK         0.3000 
    216 H216       -7.1940  -23.6499  -47.1261 H         1 UNK         0.0600 
    217 H217       -9.5884  -24.1190  -46.9218 H         1 UNK         0.0600 
    218 H218       -8.7003  -25.6316  -46.8346 H         1 UNK         0.0600 
    219 H219       -9.5606  -25.1929  -48.3101 H         1 UNK         0.0600 
    220 H220       -6.0002  -22.7288  -49.2526 H         1 UNK         0.3000 
    221 H221       -5.8304  -21.0951  -50.7538 H         1 UNK         0.0600 
    222 H222       -8.3379  -19.9213  -49.4592 H         1 UNK         0.0600 
    223 H223       -6.6948  -19.7464  -48.8430 H         1 UNK         0.0600 
    224 H224       -7.1315  -19.0462  -50.3920 H         1 UNK         0.0600 
    225 H225       -7.0735  -23.4249  -51.7550 H         1 UNK         0.3000 
    226 H226       -9.1696  -22.6172  -53.6442 H         1 UNK         0.0600 
    227 H227       -9.1998  -24.8943  -52.6529 H         1 UNK         0.0600 
    228 H228       -8.9827  -24.9795  -54.3952 H         1 UNK         0.0600 
    229 H229       -7.6081  -25.2341  -53.3271 H         1 UNK         0.0600 
    230 H230       -5.6622  -23.2708  -53.6030 H         1 UNK         0.3000 
    231 H231       -5.2418  -22.9241  -56.4362 H         1 UNK         0.0600 
    232 H232       -3.6631  -24.1538  -54.8633 H         1 UNK         0.0600 
    233 H233       -3.2007  -22.5962  -54.1747 H         1 UNK         0.0600 
    234 H234       -2.8731  -22.9411  -55.8599 H         1 UNK         0.0600 
    235 H235       -4.4184  -21.1354  -57.5434 H         1 UNK         0.3000 
    236 H236       -5.4086  -18.5645  -56.6642 H         1 UNK         0.0600 
    237 H237       -4.8321  -17.9051  -58.9895 H         1 UNK         0.0600 
    238 H238       -4.0160  -19.4437  -59.2449 H         1 UNK         0.0600 
    239 H239       -5.7570  -19.3962  -58.9677 H         1 UNK         0.0600 
    240 H240       -3.6936  -18.8520  -54.7753 H         1 UNK         0.3000 
    241 H241       -1.0428  -17.8146  -55.3525 H         1 UNK         0.0600 
    242 H242       -3.3538  -14.5409  -54.8487 H         1 UNK         0.3800 
    243 H243       -4.0660  -16.1067  -55.1340 H         1 UNK         0.3800 
    244 H244       -0.7846  -17.6975  -52.8572 H         1 UNK         0.0800 
    245 H245       -2.4625  -18.1109  -52.6697 H         1 UNK         0.0800 
    246 H246        0.6474  -19.5218  -54.8473 H         1 UNK         0.0800 
    247 H247        0.8814  -21.0362  -54.0200 H         1 UNK         0.0800 
@<TRIPOS>BOND
     1    1    2 1    
     2    1  127 1    
     3    1  128 1    
     4    1  129 1    
     5    2    3 2    
     6    2    4 am   BACKBONE|DICT|INTERRES
     7    4    5 1    
     8    4  130 1    
     9    5    6 1    
    10    5   65 1    
    11    5  131 1    
    12    6    7 1    
    13    6  132 1    
    14    6  133 1    
    15    7    8 1    
    16    8    9 1    
    17    8  134 1    
    18    8  135 1    
    19    9   10 ar   
    20    9   14 ar   
    21   10   11 ar   
    22   10  136 1    
    23   11   12 ar   
    24   11  126 1    
    25   12   13 ar   
    26   12  137 1    
    27   13   14 ar   
    28   13   15 1    
    29   14  138 1    
    30   15   16 1    
    31   15  139 1    
    32   15  140 1    
    33   16   17 1    
    34   17   18 1    
    35   17  141 1    
    36   17  142 1    
    37   18   19 1    
    38   18   67 1    
    39   18  143 1    
    40   19   20 am   BACKBONE|DICT|INTERRES
    41   19  144 1    
    42   20   21 2    
    43   20   22 1    
    44   22   23 1    
    45   22   24 1    
    46   22  145 1    
    47   23  146 1    
    48   23  147 1    
    49   23  148 1    
    50   24   25 am   BACKBONE|DICT|INTERRES
    51   24  149 1    
    52   25   26 2    
    53   25   27 1    
    54   27   28 1    
    55   27   29 1    
    56   27  150 1    
    57   28  151 1    
    58   28  152 1    
    59   28  153 1    
    60   29   30 am   BACKBONE|DICT|INTERRES
    61   29  154 1    
    62   30   31 2    
    63   30   32 1    
    64   32   33 1    
    65   32   34 1    
    66   32  155 1    
    67   33  156 1    
    68   33  157 1    
    69   33  158 1    
    70   34   35 am   BACKBONE|DICT|INTERRES
    71   34  159 1    
    72   35   36 2    
    73   35   37 1    
    74   37   38 1    
    75   37   39 1    
    76   37  160 1    
    77   38  161 1    
    78   38  162 1    
    79   38  163 1    
    80   39   40 am   BACKBONE|DICT|INTERRES
    81   39  164 1    
    82   40   41 2    
    83   40   42 1    
    84   42   43 1    
    85   42   44 1    
    86   42  165 1    
    87   43  166 1    
    88   43  167 1    
    89   43  168 1    
    90   44   45 am   BACKBONE|DICT|INTERRES
    91   44  169 1    
    92   45   46 2    
    93   45   47 1    
    94   47   48 1    
    95   47   49 1    
    96   47  170 1    
    97   48  171 1    
    98   48  172 1    
    99   48  173 1    
   100   49   50 am   BACKBONE|DICT|INTERRES
   101   49  174 1    
   102   50   51 2    
   103   50   52 1    
   104   52   53 1    
   105   52   54 1    
   106   52  175 1    
   107   53  176 1    
   108   53  177 1    
   109   53  178 1    
   110   54   55 am   BACKBONE|DICT|INTERRES
   111   54  179 1    
   112   55   56 2    
   113   55   57 1    
   114   57   58 1    
   115   57   59 1    
   116   57  180 1    
   117   58  181 1    
   118   58  182 1    
   119   58  183 1    
   120   59   60 am   BACKBONE|DICT|INTERRES
   121   59  184 1    
   122   60   61 2    
   123   60   62 1    
   124   62   63 1    
   125   62   64 1    
   126   62  185 1    
   127   63  186 1    
   128   63  187 1    
   129   63  188 1    
   130   64   65 am   BACKBONE|DICT|INTERRES
   131   64  189 1    
   132   65   66 2    
   133   67   68 2    
   134   67   69 am   BACKBONE|DICT|INTERRES
   135   69   70 1    
   136   69  190 1    
   137   70   71 1    
   138   70   72 1    
   139   70  191 1    
   140   71  192 1    
   141   71  193 1    
   142   71  194 1    
   143   72   73 2    
   144   72   74 am   BACKBONE|DICT|INTERRES
   145   74   75 1    
   146   74  195 1    
   147   75   76 1    
   148   75   77 1    
   149   75  196 1    
   150   76  197 1    
   151   76  198 1    
   152   76  199 1    
   153   77   78 2    
   154   77   79 am   BACKBONE|DICT|INTERRES
   155   79   80 1    
   156   79  200 1    
   157   80   81 1    
   158   80   82 1    
   159   80  201 1    
   160   81  202 1    
   161   81  203 1    
   162   81  204 1    
   163   82   83 2    
   164   82   84 am   BACKBONE|DICT|INTERRES
   165   84   85 1    
   166   84  205 1    
   167   85   86 1    
   168   85   87 1    
   169   85  206 1    
   170   86  207 1    
   171   86  208 1    
   172   86  209 1    
   173   87   88 2    
   174   87   89 am   BACKBONE|DICT|INTERRES
   175   89   90 1    
   176   89  210 1    
   177   90   91 1    
   178   90   92 1    
   179   90  211 1    
   180   91  212 1    
   181   91  213 1    
   182   91  214 1    
   183   92   93 2    
   184   92   94 am   BACKBONE|DICT|INTERRES
   185   94   95 1    
   186   94  215 1    
   187   95   96 1    
   188   95   97 1    
   189   95  216 1    
   190   96  217 1    
   191   96  218 1    
   192   96  219 1    
   193   97   98 2    
   194   97   99 am   BACKBONE|DICT|INTERRES
   195   99  100 1    
   196   99  220 1    
   197  100  101 1    
   198  100  102 1    
   199  100  221 1    
   200  101  222 1    
   201  101  223 1    
   202  101  224 1    
   203  102  103 2    
   204  102  104 am   BACKBONE|DICT|INTERRES
   205  104  105 1    
   206  104  225 1    
   207  105  106 1    
   208  105  107 1    
   209  105  226 1    
   210  106  227 1    
   211  106  228 1    
   212  106  229 1    
   213  107  108 2    
   214  107  109 am   BACKBONE|DICT|INTERRES
   215  109  110 1    
   216  109  230 1    
   217  110  111 1    
   218  110  112 1    
   219  110  231 1    
   220  111  232 1    
   221  111  233 1    
   222  111  234 1    
   223  112  113 2    
   224  112  114 am   BACKBONE|DICT|INTERRES
   225  114  115 1    
   226  114  235 1    
   227  115  116 1    
   228  115  117 1    
   229  115  236 1    
   230  116  237 1    
   231  116  238 1    
   232  116  239 1    
   233  117  118 2    
   234  117  119 am   BACKBONE|DICT|INTERRES
   235  119  120 1    
   236  119  240 1    
   237  120  121 1    
   238  120  124 1    
   239  120  241 1    
   240  121  122 am   BACKBONE|DICT|INTERRES
   241  121  123 2    
   242  122  242 1    
   243  122  243 1    
   244  124  125 1    
   245  124  244 1    
   246  124  245 1    
   247  125  126 1    
   248  126  246 1    
   249  126  247 1    
@<TRIPOS>SUBSTRUCTURE
     1 UNK         1 GROUP             0       ****    0 ROOT    
