@<TRIPOS>MOLECULE
3R540
247   249    1
SMALL
USER_CHARGES


@<TRIPOS>ATOM
      1 CA         -0.0004  -12.6200  -46.9437 C.3       0 UNK        -0.1800 
      2 C          -0.8203  -13.8884  -46.7680 C.2       0 UNK         0.5000 
      3 O          -0.9427  -14.3923  -45.6506 O.2       0 UNK        -0.5000 
      4 N          -1.3955  -14.4005  -47.8645 N.am      1 UNK        -0.5000 
      5 CA         -2.1657  -15.6540  -47.9420 C.3       1 UNK         0.1400 
      6 C6         -2.3228  -16.1320  -49.4106 C.3       23 UNK        -0.0398 
      7 S7         -0.9105  -17.1523  -49.9500 S.3       23 UNK        -0.2404 
      8 C8          0.2894  -15.9053  -50.5104 C.3       23 UNK        -0.0205 
      9 C9          1.5799  -16.5785  -50.9487 C.ar      23 UNK        -0.0193 
     10 C10         1.9023  -16.6938  -52.3030 C.ar      23 UNK        -0.1150 
     11 C11         3.0662  -17.3646  -52.7085 C.ar      23 UNK        -0.0193 
     12 C12         3.8972  -17.9256  -51.7315 C.ar      23 UNK        -0.1150 
     13 C13         3.5851  -17.8173  -50.3737 C.ar      23 UNK        -0.0193 
     14 C14         2.4377  -17.1192  -49.9903 C.ar      23 UNK        -0.1150 
     15 C15         4.4593  -18.4875  -49.3198 C.3       23 UNK        -0.0205 
     16 S16         4.0990  -20.2706  -49.1432 S.3       23 UNK        -0.2404 
     17 C17         2.2786  -20.2725  -49.0543 C.3       23 UNK        -0.0398 
     18 CA          1.6736  -21.5581  -48.4453 C.3       11 UNK         0.1400 
     19 N           1.8917  -21.6634  -46.9976 N.am      11 UNK        -0.5000 
     20 C           1.6081  -22.7522  -46.2667 C.2       10 UNK         0.5000 
     21 O           1.2467  -23.8250  -46.7510 O.2       10 UNK        -0.5000 
     22 CA          1.7031  -22.6178  -44.7344 C.3       10 UNK         0.1400 
     23 CB          3.1371  -22.8686  -44.2441 C.3       10 UNK        -0.1800 
     24 N           1.2273  -21.3226  -44.2443 N.am      10 UNK        -0.5000 
     25 C          -0.0434  -20.9004  -44.3266 C.2       9 UNK         0.5000 
     26 O          -0.9606  -21.5834  -44.7801 O.2       9 UNK        -0.5000 
     27 CA         -0.3327  -19.4583  -43.8690 C.3       9 UNK         0.1400 
     28 CB         -0.5008  -19.3959  -42.3436 C.3       9 UNK        -0.1800 
     29 N           0.7128  -18.5245  -44.2853 N.am      9 UNK        -0.5000 
     30 C           1.0272  -18.2466  -45.5578 C.2       8 UNK         0.5000 
     31 O           0.4052  -18.6831  -46.5241 O.2       8 UNK        -0.5000 
     32 CA          2.2902  -17.4021  -45.7941 C.3       8 UNK         0.1400 
     33 CB          1.9893  -15.9017  -45.7455 C.3       8 UNK        -0.1800 
     34 N           3.3522  -17.7229  -44.8449 N.am      8 UNK        -0.5000 
     35 C           4.0627  -18.8577  -44.8795 C.2       7 UNK         0.5000 
     36 O           3.9006  -19.7360  -45.7252 O.2       7 UNK        -0.5000 
     37 CA          5.0956  -19.0568  -43.7563 C.3       7 UNK         0.1400 
     38 CB          6.4133  -18.3470  -44.1010 C.3       7 UNK        -0.1800 
     39 N           4.6070  -18.5769  -42.4622 N.am      7 UNK        -0.5000 
     40 C           3.6004  -19.1446  -41.7835 C.2       6 UNK         0.5000 
     41 O           3.0087  -20.1555  -42.1609 O.2       6 UNK        -0.5000 
     42 CA          3.1482  -18.4351  -40.4935 C.3       6 UNK         0.1400 
     43 CB          4.0110  -18.8777  -39.3024 C.3       6 UNK        -0.1800 
     44 N           3.1651  -16.9712  -40.5916 N.am      6 UNK        -0.5000 
     45 C           2.4184  -16.2606  -41.4460 C.2       5 UNK         0.5000 
     46 O           1.6734  -16.7672  -42.2890 O.2       5 UNK        -0.5000 
     47 CA          2.5433  -14.7343  -41.3758 C.3       5 UNK         0.1400 
     48 CB          3.7558  -14.2453  -42.1852 C.3       5 UNK        -0.1800 
     49 N           1.3244  -14.1640  -41.9334 N.am      5 UNK        -0.5000 
     50 C           0.7315  -13.0283  -41.5526 C.2       4 UNK         0.5000 
     51 O           1.1971  -12.2640  -40.7065 O.2       4 UNK        -0.5000 
     52 CA         -0.6121  -12.6869  -42.2287 C.3       4 UNK         0.1400 
     53 CB         -0.4003  -11.6467  -43.3384 C.3       4 UNK        -0.1800 
     54 N          -1.2811  -13.8576  -42.8022 N.am      4 UNK        -0.5000 
     55 C          -1.9126  -14.8034  -42.0922 C.2       3 UNK         0.5000 
     56 O          -2.0326  -14.7735  -40.8663 O.2       3 UNK        -0.5000 
     57 CA         -2.4976  -15.9678  -42.9113 C.3       3 UNK         0.1400 
     58 CB         -3.3287  -16.9697  -42.0812 C.3       3 UNK        -0.1800 
     59 N          -3.2252  -15.4790  -44.0848 N.am      3 UNK        -0.5000 
     60 C          -4.4156  -14.8598  -44.1436 C.2       2 UNK         0.5000 
     61 O          -5.1397  -14.6729  -43.1654 O.2       2 UNK        -0.5000 
     62 CA         -4.8743  -14.3355  -45.5287 C.3       2 UNK         0.1400 
     63 CB         -5.2747  -12.8524  -45.4521 C.3       2 UNK        -0.1800 
     64 N          -3.8474  -14.4789  -46.5639 N.am      2 UNK        -0.5000 
     65 C          -3.5179  -15.6187  -47.1853 C.2       1 UNK         0.5000 
     66 O          -4.2001  -16.6399  -47.1131 O.2       1 UNK        -0.5000 
     67 C           0.1738  -21.6273  -48.8010 C.2       11 UNK         0.5000 
     68 O          -0.1895  -22.3309  -49.7424 O.2       11 UNK        -0.5000 
     69 N          -0.6576  -20.8809  -48.0608 N.am      12 UNK        -0.5000 
     70 CA         -2.0971  -20.7722  -48.2863 C.3       12 UNK         0.1400 
     71 CB         -2.6509  -19.6080  -47.4534 C.3       12 UNK        -0.1800 
     72 C          -2.8626  -22.0692  -47.9778 C.2       12 UNK         0.5000 
     73 O          -3.7610  -22.4315  -48.7373 O.2       12 UNK        -0.5000 
     74 N          -2.4918  -22.7375  -46.8779 N.am      13 UNK        -0.5000 
     75 CA         -3.1132  -23.9422  -46.3230 C.3       13 UNK         0.1400 
     76 CB         -2.9836  -25.1284  -47.3046 C.3       13 UNK        -0.1800 
     77 C          -4.5654  -23.7033  -45.8484 C.2       13 UNK         0.5000 
     78 O          -4.9863  -22.5556  -45.6706 O.2       13 UNK        -0.5000 
     79 N          -5.2989  -24.7994  -45.6086 N.am      14 UNK        -0.5000 
     80 CA         -6.6877  -24.8078  -45.1458 C.3       14 UNK         0.1400 
     81 CB         -7.1436  -26.2606  -44.9431 C.3       14 UNK        -0.1800 
     82 C          -7.6248  -24.0758  -46.1227 C.2       14 UNK         0.5000 
     83 O          -7.5907  -24.3563  -47.3227 O.2       14 UNK        -0.5000 
     84 N          -8.4077  -23.1252  -45.5915 N.am      15 UNK        -0.5000 
     85 CA         -9.3563  -22.2534  -46.3021 C.3       15 UNK         0.1400 
     86 CB        -10.5453  -23.0823  -46.8320 C.3       15 UNK        -0.1800 
     87 C          -8.7182  -21.3802  -47.4092 C.2       15 UNK         0.5000 
     88 O          -9.4346  -20.8902  -48.2835 O.2       15 UNK        -0.5000 
     89 N          -7.3860  -21.2191  -47.3635 N.am      16 UNK        -0.5000 
     90 CA         -6.5285  -20.6003  -48.3779 C.3       16 UNK         0.1400 
     91 CB         -6.7811  -19.0816  -48.4741 C.3       16 UNK        -0.1800 
     92 C          -6.5834  -21.3130  -49.7501 C.2       16 UNK         0.5000 
     93 O          -6.3613  -20.6761  -50.7802 O.2       16 UNK        -0.5000 
     94 N          -6.8797  -22.6217  -49.7526 N.am      17 UNK        -0.5000 
     95 CA         -7.0908  -23.4222  -50.9597 C.3       17 UNK         0.1400 
     96 CB         -7.6947  -24.7776  -50.5637 C.3       17 UNK        -0.1800 
     97 C          -5.8292  -23.6300  -51.8187 C.2       17 UNK         0.5000 
     98 O          -5.9519  -23.7678  -53.0367 O.2       17 UNK        -0.5000 
     99 N          -4.6466  -23.6497  -51.1897 N.am      18 UNK        -0.5000 
    100 CA        -3.3641  -23.8574  -51.8647 C.3       18 UNK         0.1400 
    101 CB        -2.4202  -24.6457  -50.9444 C.3       18 UNK        -0.1800 
    102 C         -2.7193  -22.5422  -52.3398 C.2       18 UNK         0.5000 
    103 O         -1.7578  -22.5976  -53.1065 O.2       18 UNK        -0.5000 
    104 N         -3.2715  -21.3841  -51.9394 N.am      19 UNK        -0.5000 
    105 CA        -2.8145  -20.0502  -52.3541 C.3       19 UNK         0.1400 
    106 CB        -3.6434  -18.9759  -51.6342 C.3       19 UNK        -0.1800 
    107 C         -2.8858  -19.8312  -53.8790 C.2       19 UNK         0.5000 
    108 O         -2.0623  -19.1046  -54.4355 O.2       19 UNK        -0.5000 
    109 N         -3.8409  -20.5118  -54.5288 N.am      20 UNK        -0.5000 
    110 CA        -4.0578  -20.5347  -55.9755 C.3       20 UNK         0.1400 
    111 CB        -5.3643  -21.2930  -56.2578 C.3       20 UNK        -0.1800 
    112 C         -2.8946  -21.1402  -56.7905 C.2       20 UNK         0.5000 
    113 O         -2.8485  -20.9328  -58.0035 O.2       20 UNK        -0.5000 
    114 N         -1.9755  -21.8653  -56.1335 N.am      21 UNK        -0.5000 
    115 CA        -0.7551  -22.3946  -56.7461 C.3       21 UNK         0.1400 
    116 CB        -0.1576  -23.4777  -55.8350 C.3       21 UNK        -0.1800 
    117 C          0.2937  -21.3035  -57.0460 C.2       21 UNK         0.5000 
    118 O          1.1678  -21.5300  -57.8840 O.2       21 UNK        -0.5000 
    119 N          0.2010  -20.1511  -56.3669 N.am      22 UNK        -0.5000 
    120 CA         1.0338  -18.9693  -56.6179 C.3       22 UNK         0.1400 
    121 C          0.6437  -18.2757  -57.9542 C.2       22 UNK         0.5000 
    122 N          1.6019  -18.0074  -58.8311 N.am      22 UNK        -0.7600 
    123 O         -0.5187  -17.9529  -58.1882 O.2       22 UNK        -0.5000 
    124 C124        0.9725  -17.9908  -55.4184 C.3       23 UNK        -0.0398 
    125 S125        2.3541  -16.7951  -55.4202 S.3       23 UNK        -0.2404 
    126 C126        3.4763  -17.5245  -54.1756 C.3       23 UNK        -0.0205 
    127 H127        0.9788  -12.7414  -46.4806 H         1 UNK         0.0600 
    128 H128       -0.5045  -11.7786  -46.4689 H         1 UNK         0.0600 
    129 H129        0.1507  -12.3787  -47.9960 H         1 UNK         0.0600 
    130 H130       -1.2824  -13.9111  -48.7404 H         1 UNK         0.3000 
    131 H131       -1.5822  -16.4034  -47.4024 H         1 UNK         0.0600 
    132 H132       -2.4673  -15.2941  -50.0940 H         1 UNK         0.0800 
    133 H133       -3.2050  -16.7628  -49.5326 H         1 UNK         0.0800 
    134 H134       -0.1421  -15.3216  -51.3249 H         1 UNK         0.0800 
    135 H135        0.5077  -15.2089  -49.7006 H         1 UNK         0.0800 
    136 H136        1.2297  -16.2649  -53.0303 H         1 UNK         0.1150 
    137 H137        4.7859  -18.4648  -52.0292 H         1 UNK         0.1150 
    138 H138        2.1779  -17.0343  -48.9457 H         1 UNK         0.1150 
    139 H139        5.5106  -18.3645  -49.5835 H         1 UNK         0.0800 
    140 H140        4.3343  -18.0005  -48.3526 H         1 UNK         0.0800 
    141 H141        1.9194  -20.1238  -50.0752 H         1 UNK         0.0800 
    142 H142        1.9482  -19.4039  -48.4865 H         1 UNK         0.0800 
    143 H143        2.1555  -22.4173  -48.9169 H         1 UNK         0.0600 
    144 H144        2.2632  -20.8443  -46.5306 H         1 UNK         0.3000 
    145 H145        1.0633  -23.3881  -44.2986 H         1 UNK         0.0600 
    146 H146        3.1928  -22.8370  -43.1559 H         1 UNK         0.0600 
    147 H147        3.4895  -23.8513  -44.5596 H         1 UNK         0.0600 
    148 H148        3.8355  -22.1302  -44.6361 H         1 UNK         0.0600 
    149 H149        1.9130  -20.7248  -43.7955 H         1 UNK         0.3000 
    150 H150       -1.2680  -19.1354  -44.3307 H         1 UNK         0.0600 
    151 H151       -1.3710  -19.9712  -42.0257 H         1 UNK         0.0600 
    152 H152       -0.6396  -18.3723  -41.9988 H         1 UNK         0.0600 
    153 H153        0.3668  -19.8018  -41.8240 H         1 UNK         0.0600 
    154 H154        1.2370  -18.0664  -43.5442 H         1 UNK         0.3000 
    155 H155        2.6567  -17.6350  -46.7933 H         1 UNK         0.0600 
    156 H156        2.8979  -15.3077  -45.8443 H         1 UNK         0.0600 
    157 H157        1.4931  -15.6111  -44.8190 H         1 UNK         0.0600 
    158 H158        1.3391  -15.6323  -46.5757 H         1 UNK         0.0600 
    159 H159        3.5019  -17.0747  -44.0869 H         1 UNK         0.3000 
    160 H160        5.2953  -20.1273  -43.6723 H         1 UNK         0.0600 
    161 H161        6.2835  -17.2665  -44.1757 H         1 UNK         0.0600 
    162 H162        6.8059  -18.6975  -45.0564 H         1 UNK         0.0600 
    163 H163        7.1752  -18.5426  -43.3462 H         1 UNK         0.0600 
    164 H164        5.0419  -17.7491  -42.0824 H         1 UNK         0.3000 
    165 H165        2.1183  -18.7407  -40.2974 H         1 UNK         0.0600 
    166 H166        3.6386  -18.4575  -38.3679 H         1 UNK         0.0600 
    167 H167        4.0010  -19.9633  -39.1953 H         1 UNK         0.0600 
    168 H168        5.0504  -18.5688  -39.4197 H         1 UNK         0.0600 
    169 H169        3.7611  -16.4840  -39.9376 H         1 UNK         0.3000 
    170 H170        2.6489  -14.4405  -40.3294 H         1 UNK         0.0600 
    171 H171        4.6845  -14.6641  -41.7960 H         1 UNK         0.0600 
    172 H172        3.6794  -14.5291  -43.2357 H         1 UNK         0.0600 
    173 H173        3.8461  -13.1598  -42.1397 H         1 UNK         0.0600 
    174 H174        0.8482  -14.7690  -42.5896 H         1 UNK         0.3000 
    175 H175       -1.2664  -12.2515  -41.4705 H         1 UNK         0.0600 
    176 H176        0.2909  -12.0119  -44.0981 H         1 UNK         0.0600 
    177 H177       -1.3397  -11.3922  -43.8295 H         1 UNK         0.0600 
    178 H178        0.0168  -10.7239  -42.9335 H         1 UNK         0.0600 
    179 H179       -1.2117  -13.9724  -43.8103 H         1 UNK         0.3000 
    180 H180       -1.6380  -16.5129  -43.3042 H         1 UNK         0.0600 
    181 H181       -3.6953  -17.7867  -42.7026 H         1 UNK         0.0600 
    182 H182       -4.1866  -16.4975  -41.6031 H         1 UNK         0.0600 
    183 H183       -2.7264  -17.4107  -41.2868 H         1 UNK         0.0600 
    184 H184       -2.6865  -15.4930  -44.9408 H         1 UNK         0.3000 
    185 H185       -5.7533  -14.9137  -45.8204 H         1 UNK         0.0600 
    186 H186       -6.0889  -12.6997  -44.7426 H         1 UNK         0.0600 
    187 H187       -4.4395  -12.2273  -45.1333 H         1 UNK         0.0600 
    188 H188       -5.6191  -12.4861  -46.4194 H         1 UNK         0.0600 
    189 H189       -3.2186  -13.6966  -46.6731 H         1 UNK         0.3000 
    190 H190       -0.2667  -20.2732  -47.3460 H         1 UNK         0.3000 
    191 H191       -2.2441  -20.5392  -49.3413 H         1 UNK         0.0600 
    192 H192       -3.6915  -19.4035  -47.7004 H         1 UNK         0.0600 
    193 H193       -2.0945  -18.6925  -47.6423 H         1 UNK         0.0600 
    194 H194       -2.5983  -19.8130  -46.3838 H         1 UNK         0.0600 
    195 H195       -1.7940  -22.3056  -46.2762 H         1 UNK         0.3000 
    196 H196       -2.5346  -24.1829  -45.4302 H         1 UNK         0.0600 
    197 H197       -3.6724  -25.0370  -48.1451 H         1 UNK         0.0600 
    198 H198       -1.9724  -25.1959  -47.7068 H         1 UNK         0.0600 
    199 H199       -3.1918  -26.0781  -46.8116 H         1 UNK         0.0600 
    200 H200       -4.8907  -25.7020  -45.8001 H         1 UNK         0.3000 
    201 H201       -6.7155  -24.3017  -44.1786 H         1 UNK         0.0600 
    202 H202       -7.1034  -26.8282  -45.8739 H         1 UNK         0.0600 
    203 H203       -8.1713  -26.2998  -44.5795 H         1 UNK         0.0600 
    204 H204       -6.5205  -26.7725  -44.2096 H         1 UNK         0.0600 
    205 H205       -8.3357  -22.9537  -44.5978 H         1 UNK         0.3000 
    206 H206       -9.7447  -21.5562  -45.5584 H         1 UNK         0.0600 
    207 H207      -10.9903  -23.6851  -46.0403 H         1 UNK         0.0600 
    208 H208      -11.3315  -22.4367  -47.2250 H         1 UNK         0.0600 
    209 H209      -10.2428  -23.7544  -47.6358 H         1 UNK         0.0600 
    210 H210       -6.8849  -21.6744  -46.6097 H         1 UNK         0.3000 
    211 H211       -5.5152  -20.7318  -48.0082 H         1 UNK         0.0600 
    212 H212       -6.0374  -18.6021  -49.1120 H         1 UNK         0.0600 
    213 H213       -6.7144  -18.6079  -47.4947 H         1 UNK         0.0600 
    214 H214       -7.7630  -18.8585  -48.8919 H         1 UNK         0.0600 
    215 H215       -7.0403  -23.0919  -48.8676 H         1 UNK         0.3000 
    216 H216       -7.8211  -22.8972  -51.5788 H         1 UNK         0.0600 
    217 H217       -7.0187  -25.3448  -49.9223 H         1 UNK         0.0600 
    218 H218       -7.9030  -25.3872  -51.4439 H         1 UNK         0.0600 
    219 H219       -8.6351  -24.6488  -50.0272 H         1 UNK         0.0600 
    220 H220       -4.6016  -23.4407  -50.1957 H         1 UNK         0.3000 
    221 H221       -3.5218  -24.4680  -52.7563 H         1 UNK         0.0600 
    222 H222       -1.4773  -24.8636  -51.4473 H         1 UNK         0.0600 
    223 H223       -2.8598  -25.5985  -50.6494 H         1 UNK         0.0600 
    224 H224       -2.1807  -24.0922  -50.0386 H         1 UNK         0.0600 
    225 H225       -4.0804  -21.4227  -51.3337 H         1 UNK         0.3000 
    226 H226       -1.7713  -19.9466  -52.0477 H         1 UNK         0.0600 
    227 H227       -4.6871  -18.9956  -51.9487 H         1 UNK         0.0600 
    228 H228       -3.6184  -19.1006  -50.5524 H         1 UNK         0.0600 
    229 H229       -3.2590  -17.9798  -51.8563 H         1 UNK         0.0600 
    230 H230       -4.4565  -21.0924  -53.9777 H         1 UNK         0.3000 
    231 H231       -4.1796  -19.5020  -56.3083 H         1 UNK         0.0600 
    232 H232       -5.3096  -22.3274  -55.9152 H         1 UNK         0.0600 
    233 H233       -5.5855  -21.3114  -57.3258 H         1 UNK         0.0600 
    234 H234       -6.2113  -20.8195  -55.7609 H         1 UNK         0.0600 
    235 H235       -2.0712  -22.0004  -55.1333 H         1 UNK         0.3000 
    236 H236       -1.0239  -22.8633  -57.6951 H         1 UNK         0.0600 
    237 H237       -0.8873  -24.2563  -55.6121 H         1 UNK         0.0600 
    238 H238        0.6972  -23.9590  -56.3116 H         1 UNK         0.0600 
    239 H239        0.1892  -23.0605  -54.8890 H         1 UNK         0.0600 
    240 H240       -0.5771  -20.0190  -55.7318 H         1 UNK         0.3000 
    241 H241        2.0635  -19.3238  -56.7002 H         1 UNK         0.0600 
    242 H242        1.3618  -17.5476  -59.6956 H         1 UNK         0.3800 
    243 H243        2.5632  -18.2543  -58.6527 H         1 UNK         0.3800 
    244 H244        0.9975  -18.5477  -54.4804 H         1 UNK         0.0800 
    245 H245        0.0285  -17.4430  -55.4079 H         1 UNK         0.0800 
    246 H246        4.4566  -17.0638  -54.3049 H         1 UNK         0.0800 
    247 H247        3.6053  -18.5849  -54.3984 H         1 UNK         0.0800 
@<TRIPOS>BOND
     1    1    2 1    
     2    1  127 1    
     3    1  128 1    
     4    1  129 1    
     5    2    3 2    
     6    2    4 am   BACKBONE|DICT|INTERRES
     7    4    5 1    
     8    4  130 1    
     9    5    6 1    
    10    5   65 1    
    11    5  131 1    
    12    6    7 1    
    13    6  132 1    
    14    6  133 1    
    15    7    8 1    
    16    8    9 1    
    17    8  134 1    
    18    8  135 1    
    19    9   10 ar   
    20    9   14 ar   
    21   10   11 ar   
    22   10  136 1    
    23   11   12 ar   
    24   11  126 1    
    25   12   13 ar   
    26   12  137 1    
    27   13   14 ar   
    28   13   15 1    
    29   14  138 1    
    30   15   16 1    
    31   15  139 1    
    32   15  140 1    
    33   16   17 1    
    34   17   18 1    
    35   17  141 1    
    36   17  142 1    
    37   18   19 1    
    38   18   67 1    
    39   18  143 1    
    40   19   20 am   BACKBONE|DICT|INTERRES
    41   19  144 1    
    42   20   21 2    
    43   20   22 1    
    44   22   23 1    
    45   22   24 1    
    46   22  145 1    
    47   23  146 1    
    48   23  147 1    
    49   23  148 1    
    50   24   25 am   BACKBONE|DICT|INTERRES
    51   24  149 1    
    52   25   26 2    
    53   25   27 1    
    54   27   28 1    
    55   27   29 1    
    56   27  150 1    
    57   28  151 1    
    58   28  152 1    
    59   28  153 1    
    60   29   30 am   BACKBONE|DICT|INTERRES
    61   29  154 1    
    62   30   31 2    
    63   30   32 1    
    64   32   33 1    
    65   32   34 1    
    66   32  155 1    
    67   33  156 1    
    68   33  157 1    
    69   33  158 1    
    70   34   35 am   BACKBONE|DICT|INTERRES
    71   34  159 1    
    72   35   36 2    
    73   35   37 1    
    74   37   38 1    
    75   37   39 1    
    76   37  160 1    
    77   38  161 1    
    78   38  162 1    
    79   38  163 1    
    80   39   40 am   BACKBONE|DICT|INTERRES
    81   39  164 1    
    82   40   41 2    
    83   40   42 1    
    84   42   43 1    
    85   42   44 1    
    86   42  165 1    
    87   43  166 1    
    88   43  167 1    
    89   43  168 1    
    90   44   45 am   BACKBONE|DICT|INTERRES
    91   44  169 1    
    92   45   46 2    
    93   45   47 1    
    94   47   48 1    
    95   47   49 1    
    96   47  170 1    
    97   48  171 1    
    98   48  172 1    
    99   48  173 1    
   100   49   50 am   BACKBONE|DICT|INTERRES
   101   49  174 1    
   102   50   51 2    
   103   50   52 1    
   104   52   53 1    
   105   52   54 1    
   106   52  175 1    
   107   53  176 1    
   108   53  177 1    
   109   53  178 1    
   110   54   55 am   BACKBONE|DICT|INTERRES
   111   54  179 1    
   112   55   56 2    
   113   55   57 1    
   114   57   58 1    
   115   57   59 1    
   116   57  180 1    
   117   58  181 1    
   118   58  182 1    
   119   58  183 1    
   120   59   60 am   BACKBONE|DICT|INTERRES
   121   59  184 1    
   122   60   61 2    
   123   60   62 1    
   124   62   63 1    
   125   62   64 1    
   126   62  185 1    
   127   63  186 1    
   128   63  187 1    
   129   63  188 1    
   130   64   65 am   BACKBONE|DICT|INTERRES
   131   64  189 1    
   132   65   66 2    
   133   67   68 2    
   134   67   69 am   BACKBONE|DICT|INTERRES
   135   69   70 1    
   136   69  190 1    
   137   70   71 1    
   138   70   72 1    
   139   70  191 1    
   140   71  192 1    
   141   71  193 1    
   142   71  194 1    
   143   72   73 2    
   144   72   74 am   BACKBONE|DICT|INTERRES
   145   74   75 1    
   146   74  195 1    
   147   75   76 1    
   148   75   77 1    
   149   75  196 1    
   150   76  197 1    
   151   76  198 1    
   152   76  199 1    
   153   77   78 2    
   154   77   79 am   BACKBONE|DICT|INTERRES
   155   79   80 1    
   156   79  200 1    
   157   80   81 1    
   158   80   82 1    
   159   80  201 1    
   160   81  202 1    
   161   81  203 1    
   162   81  204 1    
   163   82   83 2    
   164   82   84 am   BACKBONE|DICT|INTERRES
   165   84   85 1    
   166   84  205 1    
   167   85   86 1    
   168   85   87 1    
   169   85  206 1    
   170   86  207 1    
   171   86  208 1    
   172   86  209 1    
   173   87   88 2    
   174   87   89 am   BACKBONE|DICT|INTERRES
   175   89   90 1    
   176   89  210 1    
   177   90   91 1    
   178   90   92 1    
   179   90  211 1    
   180   91  212 1    
   181   91  213 1    
   182   91  214 1    
   183   92   93 2    
   184   92   94 am   BACKBONE|DICT|INTERRES
   185   94   95 1    
   186   94  215 1    
   187   95   96 1    
   188   95   97 1    
   189   95  216 1    
   190   96  217 1    
   191   96  218 1    
   192   96  219 1    
   193   97   98 2    
   194   97   99 am   BACKBONE|DICT|INTERRES
   195   99  100 1    
   196   99  220 1    
   197  100  101 1    
   198  100  102 1    
   199  100  221 1    
   200  101  222 1    
   201  101  223 1    
   202  101  224 1    
   203  102  103 2    
   204  102  104 am   BACKBONE|DICT|INTERRES
   205  104  105 1    
   206  104  225 1    
   207  105  106 1    
   208  105  107 1    
   209  105  226 1    
   210  106  227 1    
   211  106  228 1    
   212  106  229 1    
   213  107  108 2    
   214  107  109 am   BACKBONE|DICT|INTERRES
   215  109  110 1    
   216  109  230 1    
   217  110  111 1    
   218  110  112 1    
   219  110  231 1    
   220  111  232 1    
   221  111  233 1    
   222  111  234 1    
   223  112  113 2    
   224  112  114 am   BACKBONE|DICT|INTERRES
   225  114  115 1    
   226  114  235 1    
   227  115  116 1    
   228  115  117 1    
   229  115  236 1    
   230  116  237 1    
   231  116  238 1    
   232  116  239 1    
   233  117  118 2    
   234  117  119 am   BACKBONE|DICT|INTERRES
   235  119  120 1    
   236  119  240 1    
   237  120  121 1    
   238  120  124 1    
   239  120  241 1    
   240  121  122 am   BACKBONE|DICT|INTERRES
   241  121  123 2    
   242  122  242 1    
   243  122  243 1    
   244  124  125 1    
   245  124  244 1    
   246  124  245 1    
   247  125  126 1    
   248  126  246 1    
   249  126  247 1    
@<TRIPOS>SUBSTRUCTURE
     1 UNK         1 GROUP             0       ****    0 ROOT    
