@<TRIPOS>MOLECULE
3R540
247   249    1
SMALL
USER_CHARGES


@<TRIPOS>ATOM
      1 CA          0.5019  -16.4542  -48.3562 C.3       0 UNK        -0.1800 
      2 C          -0.2093  -15.1295  -48.1271 C.2       0 UNK         0.5000 
      3 O          -0.1007  -14.5678  -47.0389 O.2       0 UNK        -0.5000 
      4 N          -0.9118  -14.6108  -49.1440 N.am      1 UNK        -0.5000 
      5 CA         -1.5641  -13.2933  -49.1457 C.3       1 UNK         0.1400 
      6 C6         -2.6930  -13.1936  -50.2067 C.3       23 UNK        -0.0398 
      7 S7         -4.2333  -14.0020  -49.6519 S.3       23 UNK        -0.2404 
      8 C8         -4.4182  -15.3705  -50.8369 C.3       23 UNK        -0.0205 
      9 C9         -3.3859  -16.4582  -50.6006 C.ar      23 UNK        -0.0193 
     10 C10        -2.3417  -16.6497  -51.5076 C.ar      23 UNK        -0.1150 
     11 C11        -1.3734  -17.6344  -51.2829 C.ar      23 UNK        -0.0193 
     12 C12        -1.4863  -18.4583  -50.1589 C.ar      23 UNK        -0.1150 
     13 C13        -2.5301  -18.2778  -49.2469 C.ar      23 UNK        -0.0193 
     14 C14        -3.4765  -17.2765  -49.4722 C.ar      23 UNK        -0.1150 
     15 C15        -2.6296  -19.1532  -48.0114 C.3       23 UNK        -0.0205 
     16 S16        -3.6891  -20.5922  -48.3271 S.3       23 UNK        -0.2404 
     17 C17        -3.4632  -21.5354  -46.7871 C.3       23 UNK        -0.0398 
     18 CA         -2.4070  -22.6475  -46.9757 C.3       11 UNK         0.1400 
     19 N          -1.0408  -22.1223  -46.9958 N.am      11 UNK        -0.5000 
     20 C           0.0145  -22.7719  -47.5020 C.2       10 UNK         0.5000 
     21 O          -0.0505  -23.8913  -48.0063 O.2       10 UNK        -0.5000 
     22 CA          1.3772  -22.0686  -47.3764 C.3       10 UNK         0.1400 
     23 CB          1.5295  -20.9867  -48.4569 C.3       10 UNK        -0.1800 
     24 N           1.5754  -21.4691  -46.0561 N.am      10 UNK        -0.5000 
     25 C           1.6322  -22.1638  -44.9114 C.2       9 UNK         0.5000 
     26 O           1.5698  -23.3918  -44.8531 O.2       9 UNK        -0.5000 
     27 CA          1.7257  -21.3497  -43.6083 C.3       9 UNK         0.1400 
     28 CB          3.1932  -21.0783  -43.2462 C.3       9 UNK        -0.1800 
     29 N           0.9941  -20.0794  -43.6244 N.am      9 UNK        -0.5000 
     30 C          -0.3163  -19.9229  -43.8680 C.2       8 UNK         0.5000 
     31 O          -1.0520  -20.8309  -44.2604 O.2       8 UNK        -0.5000 
     32 CA         -0.8830  -18.5078  -43.6193 C.3       8 UNK         0.1400 
     33 CB         -2.4225  -18.4765  -43.5442 C.3       8 UNK        -0.1800 
     34 N          -0.2881  -17.8612  -42.4425 N.am      8 UNK        -0.5000 
     35 C          -0.2985  -18.3015  -41.1728 C.2       7 UNK         0.5000 
     36 O          -0.8833  -19.3171  -40.7955 O.2       7 UNK        -0.5000 
     37 CA          0.4949  -17.4695  -40.1524 C.3       7 UNK         0.1400 
     38 CB          1.9988  -17.7655  -40.2765 C.3       7 UNK        -0.1800 
     39 N           0.2693  -16.0394  -40.3530 N.am      7 UNK        -0.5000 
     40 C          -0.5217  -15.2724  -39.5902 C.2       6 UNK         0.5000 
     41 O          -1.1005  -15.6746  -38.5801 O.2       6 UNK        -0.5000 
     42 CA         -0.7075  -13.8044  -40.0289 C.3       6 UNK         0.1400 
     43 CB          0.2986  -12.8957  -39.3063 C.3       6 UNK        -0.1800 
     44 N          -0.5661  -13.6130  -41.4728 N.am      6 UNK        -0.5000 
     45 C          -1.4039  -14.1054  -42.3958 C.2       5 UNK         0.5000 
     46 O          -2.4549  -14.6855  -42.1223 O.2       5 UNK        -0.5000 
     47 CA         -0.9894  -13.9513  -43.8720 C.3       5 UNK         0.1400 
     48 CB         -1.7874  -12.8152  -44.5297 C.3       5 UNK        -0.1800 
     49 N           0.4468  -13.7298  -44.0904 N.am      5 UNK        -0.5000 
     50 C           1.4254  -14.5850  -43.7517 C.2       4 UNK         0.5000 
     51 O           1.2236  -15.6197  -43.1145 O.2       4 UNK        -0.5000 
     52 CA          2.8707  -14.2563  -44.1772 C.3       4 UNK         0.1400 
     53 CB          3.3340  -15.2357  -45.2668 C.3       4 UNK        -0.1800 
     54 N           3.0593  -12.8924  -44.6685 N.am      4 UNK        -0.5000 
     55 C           3.0259  -11.7777  -43.9253 C.2       3 UNK         0.5000 
     56 O           2.8721  -11.7769  -42.7036 O.2       3 UNK        -0.5000 
     57 CA          3.1541  -10.4379  -44.6847 C.3       3 UNK         0.1400 
     58 CB          4.5922   -9.9055  -44.5951 C.3       3 UNK        -0.1800 
     59 N           2.7612  -10.5177  -46.0991 N.am      3 UNK        -0.5000 
     60 C           1.5316  -10.8317  -46.5302 C.2       2 UNK         0.5000 
     61 O           0.5928  -11.0501  -45.7612 O.2       2 UNK        -0.5000 
     62 CA          1.3172  -10.9837  -48.0481 C.3       2 UNK         0.1400 
     63 CB          2.5928  -11.3856  -48.8191 C.3       2 UNK        -0.1800 
     64 N           0.2815  -11.9911  -48.2349 N.am      2 UNK        -0.5000 
     65 C          -0.5096  -12.1714  -49.2937 C.2       1 UNK         0.5000 
     66 O          -0.4234  -11.5163  -50.3340 O.2       1 UNK        -0.5000 
     67 C          -2.5682  -23.7529  -45.9212 C.2       11 UNK         0.5000 
     68 O          -3.3043  -24.7055  -46.1745 O.2       11 UNK        -0.5000 
     69 N          -1.8614  -23.6420  -44.7885 N.am      12 UNK        -0.5000 
     70 CA         -1.8067  -24.6814  -43.7593 C.3       12 UNK         0.1400 
     71 CB         -1.0660  -24.1493  -42.5235 C.3       12 UNK        -0.1800 
     72 C          -1.1608  -25.9819  -44.2773 C.2       12 UNK         0.5000 
     73 O          -1.6686  -27.0668  -43.9926 O.2       12 UNK        -0.5000 
     74 N          -0.0781  -25.8456  -45.0556 N.am      13 UNK        -0.5000 
     75 CA          0.6254  -26.9526  -45.7008 C.3       13 UNK         0.1400 
     76 CB          2.0019  -26.4676  -46.1820 C.3       13 UNK        -0.1800 
     77 C          -0.1711  -27.5705  -46.8653 C.2       13 UNK         0.5000 
     78 O          -0.2706  -28.7951  -46.9495 O.2       13 UNK        -0.5000 
     79 N          -0.7150  -26.7191  -47.7457 N.am      14 UNK        -0.5000 
     80 CA         -1.4032  -27.1269  -48.9743 C.3       14 UNK         0.1400 
     81 CB         -1.3219  -25.9750  -49.9867 C.3       14 UNK        -0.1800 
     82 C          -2.8718  -27.5473  -48.7742 C.2       14 UNK         0.5000 
     83 O          -3.4867  -28.0133  -49.7332 O.2       14 UNK        -0.5000 
     84 N          -3.4216  -27.3428  -47.5683 N.am      15 UNK        -0.5000 
     85 CA         -4.8310  -27.5252  -47.1989 C.3       15 UNK         0.1400 
     86 CB         -5.2505  -29.0075  -47.2891 C.3       15 UNK        -0.1800 
     87 C          -5.7463  -26.5742  -47.9990 C.2       15 UNK         0.5000 
     88 O          -6.6875  -27.0104  -48.6628 O.2       15 UNK        -0.5000 
     89 N          -5.3988  -25.2815  -47.9398 N.am      16 UNK        -0.5000 
     90 CA         -6.0304  -24.1154  -48.5713 C.3       16 UNK         0.1400 
     91 CB         -7.5102  -23.9852  -48.1609 C.3       16 UNK        -0.1800 
     92 C          -5.8518  -24.0082  -50.0994 C.2       16 UNK         0.5000 
     93 O          -6.1957  -22.9690  -50.6628 O.2       16 UNK        -0.5000 
     94 N          -5.2863  -25.0341  -50.7521 N.am      17 UNK        -0.5000 
     95 CA         -5.0838  -25.0856  -52.2049 C.3       17 UNK         0.1400 
     96 CB         -4.6582  -26.5048  -52.6074 C.3       17 UNK        -0.1800 
     97 C          -4.0797  -24.0438  -52.7393 C.2       17 UNK         0.5000 
     98 O          -4.1446  -23.6900  -53.9174 O.2       17 UNK        -0.5000 
     99 N          -3.1915  -23.5483  -51.8647 N.am      18 UNK        -0.5000 
    100 CA        -2.2110  -22.5035  -52.1658 C.3       18 UNK         0.1400 
    101 CB        -1.2323  -22.3584  -50.9909 C.3       18 UNK        -0.1800 
    102 C         -2.8390  -21.1387  -52.5016 C.2       18 UNK         0.5000 
    103 O         -2.2020  -20.3538  -53.2000 O.2       18 UNK        -0.5000 
    104 N         -4.0733  -20.8841  -52.0403 N.am      19 UNK        -0.5000 
    105 CA        -4.7930  -19.6200  -52.2278 C.3       19 UNK         0.1400 
    106 CB        -6.0843  -19.6475  -51.3970 C.3       19 UNK        -0.1800 
    107 C         -5.0980  -19.2617  -53.6971 C.2       19 UNK         0.5000 
    108 O         -5.3618  -18.0960  -53.9930 O.2       19 UNK        -0.5000 
    109 N         -5.0523  -20.2593  -54.5901 N.am      20 UNK        -0.5000 
    110 CA        -5.1816  -20.0917  -56.0369 C.3       20 UNK         0.1400 
    111 CB        -5.6243  -21.4339  -56.6410 C.3       20 UNK        -0.1800 
    112 C         -3.8843  -19.5982  -56.7141 C.2       20 UNK         0.5000 
    113 O         -3.9396  -19.1829  -57.8729 O.2       20 UNK        -0.5000 
    114 N         -2.7472  -19.6740  -56.0105 N.am      21 UNK        -0.5000 
    115 CA        -1.4191  -19.3058  -56.4961 C.3       21 UNK         0.1400 
    116 CB        -0.4533  -20.4588  -56.1575 C.3       21 UNK        -0.1800 
    117 C         -0.9553  -17.9687  -55.8826 C.2       21 UNK         0.5000 
    118 O         -1.7530  -17.2503  -55.2772 O.2       21 UNK        -0.5000 
    119 N          0.3340  -17.6633  -56.0792 N.am      22 UNK        -0.5000 
    120 CA         1.1441  -16.5405  -55.5607 C.3       22 UNK         0.1400 
    121 C          0.6585  -15.0813  -55.8291 C.2       22 UNK         0.5000 
    122 N         -0.5908  -14.8464  -56.2005 N.am      22 UNK        -0.7600 
    123 O          1.4513  -14.1474  -55.7393 O.2       22 UNK        -0.5000 
    124 C124        1.6532  -16.7777  -54.1065 C.3       23 UNK        -0.0398 
    125 S125        0.5476  -16.2443  -52.7520 S.3       23 UNK        -0.2404 
    126 C126       -0.2138  -17.8239  -52.2533 C.3       23 UNK        -0.0205 
    127 H127        1.5028  -16.4231  -47.9265 H         1 UNK         0.0600 
    128 H128       -0.0474  -17.2642  -47.8778 H         1 UNK         0.0600 
    129 H129        0.6047  -16.6747  -49.4180 H         1 UNK         0.0600 
    130 H130       -0.9773  -15.1306  -50.0081 H         1 UNK         0.3000 
    131 H131       -2.0255  -13.1425  -48.1669 H         1 UNK         0.0600 
    132 H132       -2.3657  -13.5957  -51.1666 H         1 UNK         0.0800 
    133 H133       -2.9587  -12.1517  -50.3947 H         1 UNK         0.0800 
    134 H134       -4.3597  -14.9857  -51.8563 H         1 UNK         0.0800 
    135 H135       -5.4157  -15.7990  -50.7298 H         1 UNK         0.0800 
    136 H136       -2.2766  -16.0269  -52.3890 H         1 UNK         0.1150 
    137 H137       -0.7548  -19.2344  -49.9866 H         1 UNK         0.1150 
    138 H138       -4.2843  -17.1315  -48.7687 H         1 UNK         0.1150 
    139 H139       -1.6350  -19.4825  -47.7111 H         1 UNK         0.0800 
    140 H140       -3.0327  -18.5790  -47.1758 H         1 UNK         0.0800 
    141 H141       -4.4364  -21.9539  -46.5255 H         1 UNK         0.0800 
    142 H142       -3.1970  -20.8695  -45.9651 H         1 UNK         0.0800 
    143 H143       -2.5938  -23.1283  -47.9389 H         1 UNK         0.0600 
    144 H144       -0.8851  -21.2600  -46.4940 H         1 UNK         0.3000 
    145 H145        2.1549  -22.8200  -47.5289 H         1 UNK         0.0600 
    146 H146        2.5254  -20.5441  -48.4329 H         1 UNK         0.0600 
    147 H147        1.3867  -21.4069  -49.4532 H         1 UNK         0.0600 
    148 H148        0.8036  -20.1829  -48.3311 H         1 UNK         0.0600 
    149 H149        1.6384  -20.4631  -46.0106 H         1 UNK         0.3000 
    150 H150        1.2900  -21.9579  -42.8139 H         1 UNK         0.0600 
    151 H151        3.6762  -20.4323  -43.9803 H         1 UNK         0.0600 
    152 H152        3.7630  -22.0075  -43.2005 H         1 UNK         0.0600 
    153 H153        3.2772  -20.5997  -42.2701 H         1 UNK         0.0600 
    154 H154        1.5097  -19.2684  -43.3162 H         1 UNK         0.3000 
    155 H155       -0.5849  -17.9063  -44.4793 H         1 UNK         0.0600 
    156 H156       -2.8016  -19.1108  -42.7425 H         1 UNK         0.0600 
    157 H157       -2.8673  -18.8260  -44.4763 H         1 UNK         0.0600 
    158 H158       -2.7865  -17.4635  -43.3713 H         1 UNK         0.0600 
    159 H159        0.2516  -17.0218  -42.6474 H         1 UNK         0.3000 
    160 H160        0.1750  -17.7715  -39.1529 H         1 UNK         0.0600 
    161 H161        2.3925  -17.4729  -41.2507 H         1 UNK         0.0600 
    162 H162        2.2000  -18.8297  -40.1461 H         1 UNK         0.0600 
    163 H163        2.5666  -17.2318  -39.5142 H         1 UNK         0.0600 
    164 H164        0.6716  -15.6369  -41.1920 H         1 UNK         0.3000 
    165 H165       -1.7156  -13.4978  -39.7424 H         1 UNK         0.0600 
    166 H166        0.1291  -11.8468  -39.5504 H         1 UNK         0.0600 
    167 H167        0.2082  -12.9954  -38.2239 H         1 UNK         0.0600 
    168 H168        1.3271  -13.1410  -39.5746 H         1 UNK         0.0600 
    169 H169        0.2683  -13.1412  -41.7916 H         1 UNK         0.3000 
    170 H170       -1.2519  -14.8841  -44.3755 H         1 UNK         0.0600 
    171 H171       -1.5363  -11.8464  -44.0964 H         1 UNK         0.0600 
    172 H172       -2.8607  -12.9643  -44.4047 H         1 UNK         0.0600 
    173 H173       -1.5935  -12.7642  -45.6008 H         1 UNK         0.0600 
    174 H174        0.6888  -12.8999  -44.6177 H         1 UNK         0.3000 
    175 H175        3.5047  -14.3942  -43.2991 H         1 UNK         0.0600 
    176 H176        2.7433  -15.1284  -46.1773 H         1 UNK         0.0600 
    177 H177        4.3812  -15.0749  -45.5237 H         1 UNK         0.0600 
    178 H178        3.2384  -16.2700  -44.9335 H         1 UNK         0.0600 
    179 H179        3.1899  -12.7903  -45.6636 H         1 UNK         0.3000 
    180 H180        2.4921   -9.7219  -44.1933 H         1 UNK         0.0600 
    181 H181        4.6780   -8.9202  -45.0536 H         1 UNK         0.0600 
    182 H182        5.2994  -10.5711  -45.0917 H         1 UNK         0.0600 
    183 H183        4.9086   -9.8068  -43.5558 H         1 UNK         0.0600 
    184 H184        3.4896  -10.3557  -46.7795 H         1 UNK         0.3000 
    185 H185        0.9529  -10.0262  -48.4247 H         1 UNK         0.0600 
    186 H186        2.3823  -11.5389  -49.8776 H         1 UNK         0.0600 
    187 H187        3.3563  -10.6094  -48.7614 H         1 UNK         0.0600 
    188 H188        3.0219  -12.3107  -48.4319 H         1 UNK         0.0600 
    189 H189        0.1355  -12.5998  -47.4339 H         1 UNK         0.3000 
    190 H190       -1.3261  -22.7953  -44.6267 H         1 UNK         0.3000 
    191 H191       -2.8330  -24.9113  -43.4652 H         1 UNK         0.0600 
    192 H192       -1.1117  -24.8691  -41.7055 H         1 UNK         0.0600 
    193 H193       -1.5080  -23.2190  -42.1656 H         1 UNK         0.0600 
    194 H194       -0.0135  -23.9626  -42.7329 H         1 UNK         0.0600 
    195 H195        0.3118  -24.9183  -45.1925 H         1 UNK         0.3000 
    196 H196        0.7867  -27.7344  -44.9554 H         1 UNK         0.0600 
    197 H197        1.9141  -25.6530  -46.9021 H         1 UNK         0.0600 
    198 H198        2.6056  -26.1096  -45.3479 H         1 UNK         0.0600 
    199 H199        2.5560  -27.2748  -46.6627 H         1 UNK         0.0600 
    200 H200       -0.5479  -25.7222  -47.6367 H         1 UNK         0.3000 
    201 H201       -0.8778  -27.9841  -49.4006 H         1 UNK         0.0600 
    202 H202       -1.8734  -25.1020  -49.6373 H         1 UNK         0.0600 
    203 H203       -1.7358  -26.2644  -50.9524 H         1 UNK         0.0600 
    204 H204       -0.2883  -25.6747  -50.1593 H         1 UNK         0.0600 
    205 H205       -2.8445  -26.8991  -46.8658 H         1 UNK         0.3000 
    206 H206       -4.9143  -27.2260  -46.1529 H         1 UNK         0.0600 
    207 H207       -4.5849  -29.6406  -46.7025 H         1 UNK         0.0600 
    208 H208       -6.2595  -29.1482  -46.9002 H         1 UNK         0.0600 
    209 H209       -5.2450  -29.3754  -48.3153 H         1 UNK         0.0600 
    210 H210       -4.5978  -25.0646  -47.3479 H         1 UNK         0.3000 
    211 H211       -5.5097  -23.2506  -48.1623 H         1 UNK         0.0600 
    212 H212       -7.9280  -23.0385  -48.5059 H         1 UNK         0.0600 
    213 H213       -7.6233  -24.0123  -47.0772 H         1 UNK         0.0600 
    214 H214       -8.1227  -24.7814  -48.5843 H         1 UNK         0.0600 
    215 H215       -5.0524  -25.8674  -50.2300 H         1 UNK         0.3000 
    216 H216       -6.0452  -24.8761  -52.6785 H         1 UNK         0.0600 
    217 H217       -3.6932  -26.7738  -52.1792 H         1 UNK         0.0600 
    218 H218       -4.5711  -26.5937  -53.6910 H         1 UNK         0.0600 
    219 H219       -5.3880  -27.2450  -52.2784 H         1 UNK         0.0600 
    220 H220       -3.2210  -23.8872  -50.9162 H         1 UNK         0.3000 
    221 H221       -1.6433  -22.8210  -53.0429 H         1 UNK         0.0600 
    222 H222       -0.6682  -23.2754  -50.8268 H         1 UNK         0.0600 
    223 H223       -1.7483  -22.1065  -50.0650 H         1 UNK         0.0600 
    224 H224       -0.5060  -21.5678  -51.1839 H         1 UNK         0.0600 
    225 H225       -4.5491  -21.5929  -51.4966 H         1 UNK         0.3000 
    226 H226       -4.1551  -18.8288  -51.8373 H         1 UNK         0.0600 
    227 H227       -6.7611  -20.4332  -51.7346 H         1 UNK         0.0600 
    228 H228       -5.8717  -19.8175  -50.3417 H         1 UNK         0.0600 
    229 H229       -6.6167  -18.6984  -51.4702 H         1 UNK         0.0600 
    230 H230       -4.8254  -21.1877  -54.2600 H         1 UNK         0.3000 
    231 H231       -5.9600  -19.3533  -56.2400 H         1 UNK         0.0600 
    232 H232       -4.8859  -22.2170  -56.4630 H         1 UNK         0.0600 
    233 H233       -5.7640  -21.3522  -57.7197 H         1 UNK         0.0600 
    234 H234       -6.5722  -21.7645  -56.2160 H         1 UNK         0.0600 
    235 H235       -2.7877  -19.9385  -55.0307 H         1 UNK         0.3000 
    236 H236       -1.4338  -19.1805  -57.5804 H         1 UNK         0.0600 
    237 H237       -0.8461  -21.4151  -56.5036 H         1 UNK         0.0600 
    238 H238        0.5168  -20.3245  -56.6364 H         1 UNK         0.0600 
    239 H239       -0.2823  -20.5400  -55.0834 H         1 UNK         0.0600 
    240 H240        0.8650  -18.3136  -56.6400 H         1 UNK         0.3000 
    241 H241        2.0368  -16.6099  -56.1840 H         1 UNK         0.0600 
    242 H242       -0.8978  -13.9050  -56.3858 H         1 UNK         0.3800 
    243 H243       -1.2611  -15.6054  -56.1346 H         1 UNK         0.3800 
    244 H244        2.5876  -16.2310  -53.9709 H         1 UNK         0.0800 
    245 H245        1.9177  -17.8265  -53.9662 H         1 UNK         0.0800 
    246 H246       -0.5815  -18.3489  -53.1313 H         1 UNK         0.0800 
    247 H247        0.5562  -18.4586  -51.8126 H         1 UNK         0.0800 
@<TRIPOS>BOND
     1    1    2 1    
     2    1  127 1    
     3    1  128 1    
     4    1  129 1    
     5    2    3 2    
     6    2    4 am   BACKBONE|DICT|INTERRES
     7    4    5 1    
     8    4  130 1    
     9    5    6 1    
    10    5   65 1    
    11    5  131 1    
    12    6    7 1    
    13    6  132 1    
    14    6  133 1    
    15    7    8 1    
    16    8    9 1    
    17    8  134 1    
    18    8  135 1    
    19    9   10 ar   
    20    9   14 ar   
    21   10   11 ar   
    22   10  136 1    
    23   11   12 ar   
    24   11  126 1    
    25   12   13 ar   
    26   12  137 1    
    27   13   14 ar   
    28   13   15 1    
    29   14  138 1    
    30   15   16 1    
    31   15  139 1    
    32   15  140 1    
    33   16   17 1    
    34   17   18 1    
    35   17  141 1    
    36   17  142 1    
    37   18   19 1    
    38   18   67 1    
    39   18  143 1    
    40   19   20 am   BACKBONE|DICT|INTERRES
    41   19  144 1    
    42   20   21 2    
    43   20   22 1    
    44   22   23 1    
    45   22   24 1    
    46   22  145 1    
    47   23  146 1    
    48   23  147 1    
    49   23  148 1    
    50   24   25 am   BACKBONE|DICT|INTERRES
    51   24  149 1    
    52   25   26 2    
    53   25   27 1    
    54   27   28 1    
    55   27   29 1    
    56   27  150 1    
    57   28  151 1    
    58   28  152 1    
    59   28  153 1    
    60   29   30 am   BACKBONE|DICT|INTERRES
    61   29  154 1    
    62   30   31 2    
    63   30   32 1    
    64   32   33 1    
    65   32   34 1    
    66   32  155 1    
    67   33  156 1    
    68   33  157 1    
    69   33  158 1    
    70   34   35 am   BACKBONE|DICT|INTERRES
    71   34  159 1    
    72   35   36 2    
    73   35   37 1    
    74   37   38 1    
    75   37   39 1    
    76   37  160 1    
    77   38  161 1    
    78   38  162 1    
    79   38  163 1    
    80   39   40 am   BACKBONE|DICT|INTERRES
    81   39  164 1    
    82   40   41 2    
    83   40   42 1    
    84   42   43 1    
    85   42   44 1    
    86   42  165 1    
    87   43  166 1    
    88   43  167 1    
    89   43  168 1    
    90   44   45 am   BACKBONE|DICT|INTERRES
    91   44  169 1    
    92   45   46 2    
    93   45   47 1    
    94   47   48 1    
    95   47   49 1    
    96   47  170 1    
    97   48  171 1    
    98   48  172 1    
    99   48  173 1    
   100   49   50 am   BACKBONE|DICT|INTERRES
   101   49  174 1    
   102   50   51 2    
   103   50   52 1    
   104   52   53 1    
   105   52   54 1    
   106   52  175 1    
   107   53  176 1    
   108   53  177 1    
   109   53  178 1    
   110   54   55 am   BACKBONE|DICT|INTERRES
   111   54  179 1    
   112   55   56 2    
   113   55   57 1    
   114   57   58 1    
   115   57   59 1    
   116   57  180 1    
   117   58  181 1    
   118   58  182 1    
   119   58  183 1    
   120   59   60 am   BACKBONE|DICT|INTERRES
   121   59  184 1    
   122   60   61 2    
   123   60   62 1    
   124   62   63 1    
   125   62   64 1    
   126   62  185 1    
   127   63  186 1    
   128   63  187 1    
   129   63  188 1    
   130   64   65 am   BACKBONE|DICT|INTERRES
   131   64  189 1    
   132   65   66 2    
   133   67   68 2    
   134   67   69 am   BACKBONE|DICT|INTERRES
   135   69   70 1    
   136   69  190 1    
   137   70   71 1    
   138   70   72 1    
   139   70  191 1    
   140   71  192 1    
   141   71  193 1    
   142   71  194 1    
   143   72   73 2    
   144   72   74 am   BACKBONE|DICT|INTERRES
   145   74   75 1    
   146   74  195 1    
   147   75   76 1    
   148   75   77 1    
   149   75  196 1    
   150   76  197 1    
   151   76  198 1    
   152   76  199 1    
   153   77   78 2    
   154   77   79 am   BACKBONE|DICT|INTERRES
   155   79   80 1    
   156   79  200 1    
   157   80   81 1    
   158   80   82 1    
   159   80  201 1    
   160   81  202 1    
   161   81  203 1    
   162   81  204 1    
   163   82   83 2    
   164   82   84 am   BACKBONE|DICT|INTERRES
   165   84   85 1    
   166   84  205 1    
   167   85   86 1    
   168   85   87 1    
   169   85  206 1    
   170   86  207 1    
   171   86  208 1    
   172   86  209 1    
   173   87   88 2    
   174   87   89 am   BACKBONE|DICT|INTERRES
   175   89   90 1    
   176   89  210 1    
   177   90   91 1    
   178   90   92 1    
   179   90  211 1    
   180   91  212 1    
   181   91  213 1    
   182   91  214 1    
   183   92   93 2    
   184   92   94 am   BACKBONE|DICT|INTERRES
   185   94   95 1    
   186   94  215 1    
   187   95   96 1    
   188   95   97 1    
   189   95  216 1    
   190   96  217 1    
   191   96  218 1    
   192   96  219 1    
   193   97   98 2    
   194   97   99 am   BACKBONE|DICT|INTERRES
   195   99  100 1    
   196   99  220 1    
   197  100  101 1    
   198  100  102 1    
   199  100  221 1    
   200  101  222 1    
   201  101  223 1    
   202  101  224 1    
   203  102  103 2    
   204  102  104 am   BACKBONE|DICT|INTERRES
   205  104  105 1    
   206  104  225 1    
   207  105  106 1    
   208  105  107 1    
   209  105  226 1    
   210  106  227 1    
   211  106  228 1    
   212  106  229 1    
   213  107  108 2    
   214  107  109 am   BACKBONE|DICT|INTERRES
   215  109  110 1    
   216  109  230 1    
   217  110  111 1    
   218  110  112 1    
   219  110  231 1    
   220  111  232 1    
   221  111  233 1    
   222  111  234 1    
   223  112  113 2    
   224  112  114 am   BACKBONE|DICT|INTERRES
   225  114  115 1    
   226  114  235 1    
   227  115  116 1    
   228  115  117 1    
   229  115  236 1    
   230  116  237 1    
   231  116  238 1    
   232  116  239 1    
   233  117  118 2    
   234  117  119 am   BACKBONE|DICT|INTERRES
   235  119  120 1    
   236  119  240 1    
   237  120  121 1    
   238  120  124 1    
   239  120  241 1    
   240  121  122 am   BACKBONE|DICT|INTERRES
   241  121  123 2    
   242  122  242 1    
   243  122  243 1    
   244  124  125 1    
   245  124  244 1    
   246  124  245 1    
   247  125  126 1    
   248  126  246 1    
   249  126  247 1    
@<TRIPOS>SUBSTRUCTURE
     1 UNK         1 GROUP             0       ****    0 ROOT    
