@<TRIPOS>MOLECULE
3R540
247   249    1
SMALL
USER_CHARGES


@<TRIPOS>ATOM
      1 CA         -1.5183  -14.0788  -51.9085 C.3       0 UNK        -0.1800 
      2 C          -0.1560  -14.0015  -51.2344 C.2       0 UNK         0.5000 
      3 O           0.8691  -14.0421  -51.9141 O.2       0 UNK        -0.5000 
      4 N          -0.1445  -13.8959  -49.9016 N.am      1 UNK        -0.5000 
      5 CA          1.0632  -13.8550  -49.0715 C.3       1 UNK         0.1400 
      6 C6          1.6299  -15.2679  -48.7596 C.3       23 UNK        -0.0398 
      7 S7          0.5637  -16.3249  -47.7150 S.3       23 UNK        -0.2404 
      8 C8         -0.4974  -17.1600  -48.9384 C.3       23 UNK        -0.0205 
      9 C9          0.2601  -18.0919  -49.8725 C.ar      23 UNK        -0.0193 
     10 C10         0.1547  -17.9163  -51.2532 C.ar      23 UNK        -0.1150 
     11 C11         0.7563  -18.8167  -52.1358 C.ar      23 UNK        -0.0193 
     12 C12         1.5041  -19.8802  -51.6251 C.ar      23 UNK        -0.1150 
     13 C13         1.6449  -20.0513  -50.2443 C.ar      23 UNK        -0.0193 
     14 C14         1.0156  -19.1567  -49.3715 C.ar      23 UNK        -0.1150 
     15 C15         2.4801  -21.2027  -49.7049 C.3       23 UNK        -0.0205 
     16 S16         1.4526  -22.6460  -49.2872 S.3       23 UNK        -0.2404 
     17 C17         0.7944  -22.1489  -47.6608 C.3       23 UNK        -0.0398 
     18 CA          0.4967  -23.3524  -46.7406 C.3       11 UNK         0.1400 
     19 N           0.4848  -22.9592  -45.3321 N.am      11 UNK        -0.5000 
     20 C           0.4981  -23.8132  -44.3013 C.2       10 UNK         0.5000 
     21 O           0.5122  -25.0369  -44.4289 O.2       10 UNK        -0.5000 
     22 CA          0.4412  -23.1936  -42.8946 C.3       10 UNK         0.1400 
     23 CB          1.8040  -22.6094  -42.4927 C.3       10 UNK        -0.1800 
     24 N          -0.5847  -22.1568  -42.7939 N.am      10 UNK        -0.5000 
     25 C          -1.9021  -22.3843  -42.8915 C.2       9 UNK         0.5000 
     26 O          -2.3980  -23.5012  -43.0414 O.2       9 UNK        -0.5000 
     27 CA         -2.8120  -21.1445  -42.8598 C.3       9 UNK         0.1400 
     28 CB         -3.0525  -20.6775  -41.4166 C.3       9 UNK        -0.1800 
     29 N          -2.2662  -20.0380  -43.6460 N.am      9 UNK        -0.5000 
     30 C          -2.1337  -20.0573  -44.9796 C.2       8 UNK         0.5000 
     31 O          -2.4576  -21.0075  -45.6874 O.2       8 UNK        -0.5000 
     32 CA         -1.4813  -18.8297  -45.6296 C.3       8 UNK         0.1400 
     33 CB         -2.5162  -17.7097  -45.8169 C.3       8 UNK        -0.1800 
     34 N          -0.3362  -18.3325  -44.8679 N.am      8 UNK        -0.5000 
     35 C           0.7916  -19.0317  -44.6651 C.2       7 UNK         0.5000 
     36 O           0.9699  -20.1700  -45.0948 O.2       7 UNK        -0.5000 
     37 CA          1.8995  -18.3799  -43.8181 C.3       7 UNK         0.1400 
     38 CB          2.9386  -17.7116  -44.7299 C.3       7 UNK        -0.1800 
     39 N           1.4014  -17.3964  -42.8589 N.am      7 UNK        -0.5000 
     40 C           0.5494  -17.6486  -41.8550 C.2       6 UNK         0.5000 
     41 O           0.1259  -18.7728  -41.5812 O.2       6 UNK        -0.5000 
     42 CA          0.0527  -16.4272  -41.0574 C.3       6 UNK         0.1400 
     43 CB          0.8672  -16.2607  -39.7665 C.3       6 UNK        -0.1800 
     44 N           0.1039  -15.1739  -41.8184 N.am      6 UNK        -0.5000 
     45 C          -0.6002  -14.9021  -42.9245 C.2       5 UNK         0.5000 
     46 O          -1.3772  -15.7016  -43.4454 O.2       5 UNK        -0.5000 
     47 CA         -0.3705  -13.5300  -43.5841 C.3       5 UNK         0.1400 
     48 CB         -0.9548  -12.3868  -42.7334 C.3       5 UNK        -0.1800 
     49 N           1.0256  -13.2702  -43.9560 N.am      5 UNK        -0.5000 
     50 C           2.1035  -13.1098  -43.1721 C.2       4 UNK         0.5000 
     51 O           2.0815  -13.1724  -41.9423 O.2       4 UNK        -0.5000 
     52 CA          3.4324  -12.8266  -43.8912 C.3       4 UNK         0.1400 
     53 CB          4.0148  -14.1223  -44.4771 C.3       4 UNK        -0.1800 
     54 N           3.2365  -11.8559  -44.9665 N.am      4 UNK        -0.5000 
     55 C           3.4925  -10.5438  -44.8709 C.2       3 UNK         0.5000 
     56 O           4.0296  -10.0179  -43.8951 O.2       3 UNK        -0.5000 
     57 CA          3.0597   -9.6617  -46.0611 C.3       3 UNK         0.1400 
     58 CB          4.2013   -9.5344  -47.0813 C.3       3 UNK        -0.1800 
     59 N           1.8649  -10.1678  -46.7403 N.am      3 UNK        -0.5000 
     60 C           0.6440  -10.2282  -46.1904 C.2       2 UNK         0.5000 
     61 O           0.3687   -9.7407  -45.0941 O.2       2 UNK        -0.5000 
     62 CA         -0.4532  -10.9775  -46.9752 C.3       2 UNK         0.1400 
     63 CB         -1.4295   -9.9793  -47.6163 C.3       2 UNK        -0.1800 
     64 N           0.0241  -11.9003  -48.0136 N.am      2 UNK        -0.5000 
     65 C           0.8290  -12.9601  -47.8362 C.2       1 UNK         0.5000 
     66 O           1.3685  -13.2245  -46.7604 O.2       1 UNK        -0.5000 
     67 C          -0.7912  -24.0992  -47.1458 C.2       11 UNK         0.5000 
     68 O          -0.7040  -25.1037  -47.8499 O.2       11 UNK        -0.5000 
     69 N          -1.9537  -23.6484  -46.6504 N.am      12 UNK        -0.5000 
     70 CA         -3.2449  -24.3069  -46.8574 C.3       12 UNK         0.1400 
     71 CB         -4.3828  -23.3995  -46.3685 C.3       12 UNK        -0.1800 
     72 C          -3.3346  -25.6967  -46.2020 C.2       12 UNK         0.5000 
     73 O          -3.9966  -26.5765  -46.7514 O.2       12 UNK        -0.5000 
     74 N          -2.6621  -25.8787  -45.0574 N.am      13 UNK        -0.5000 
     75 CA         -2.5319  -27.1705  -44.3857 C.3       13 UNK         0.1400 
     76 CB         -2.1035  -26.9520  -42.9263 C.3       13 UNK        -0.1800 
     77 C          -1.5499  -28.1062  -45.1160 C.2       13 UNK         0.5000 
     78 O          -1.8347  -29.2969  -45.2503 O.2       13 UNK        -0.5000 
     79 N          -0.4143  -27.5560  -45.5679 N.am      14 UNK        -0.5000 
     80 CA          0.6469  -28.2869  -46.2614 C.3       14 UNK         0.1400 
     81 CB          1.9201  -27.4270  -46.2875 C.3       14 UNK        -0.1800 
     82 C           0.2642  -28.7216  -47.6883 C.2       14 UNK         0.5000 
     83 O           0.5926  -29.8401  -48.0873 O.2       14 UNK        -0.5000 
     84 N          -0.4039  -27.8334  -48.4311 N.am      15 UNK        -0.5000 
     85 CA         -0.7941  -28.0212  -49.8226 C.3       15 UNK         0.1400 
     86 CB          0.3346  -27.5192  -50.7473 C.3       15 UNK        -0.1800 
     87 C          -2.1458  -27.3290  -50.0525 C.2       15 UNK         0.5000 
     88 O          -3.1827  -27.9248  -49.7581 O.2       15 UNK        -0.5000 
     89 N          -2.1196  -26.0963  -50.5689 N.am      16 UNK        -0.5000 
     90 CA         -3.2795  -25.2493  -50.8139 C.3       16 UNK         0.1400 
     91 CB         -3.9666  -25.6521  -52.1309 C.3       16 UNK        -0.1800 
     92 C          -2.8097  -23.7893  -50.8632 C.2       16 UNK         0.5000 
     93 O          -1.7240  -23.5193  -51.3809 O.2       16 UNK        -0.5000 
     94 N          -3.6467  -22.8842  -50.3507 N.am      17 UNK        -0.5000 
     95 CA         -3.4728  -21.4348  -50.3263 C.3       17 UNK         0.1400 
     96 CB         -2.3084  -21.0270  -49.4046 C.3       17 UNK        -0.1800 
     97 C          -4.7977  -20.8080  -49.8653 C.2       17 UNK         0.5000 
     98 O          -5.7264  -21.5431  -49.5161 O.2       17 UNK        -0.5000 
     99 N          -4.8649  -19.4689  -49.8848 N.am      18 UNK        -0.5000 
    100 CA        -6.0324  -18.6429  -49.5501 C.3       18 UNK         0.1400 
    101 CB        -6.4441  -18.8235  -48.0731 C.3       18 UNK        -0.1800 
    102 C         -7.2050  -18.8278  -50.5389 C.2       18 UNK         0.5000 
    103 O         -8.3667  -18.6536  -50.1663 O.2       18 UNK        -0.5000 
    104 N         -6.8728  -19.1617  -51.7903 N.am      19 UNK        -0.5000 
    105 CA        -7.7834  -19.3476  -52.9101 C.3       19 UNK         0.1400 
    106 CB        -8.3868  -20.7622  -52.8703 C.3       19 UNK        -0.1800 
    107 C         -6.9898  -19.1210  -54.2027 C.2       19 UNK         0.5000 
    108 O         -5.7899  -19.4141  -54.2388 O.2       19 UNK        -0.5000 
    109 N         -7.6747  -18.6064  -55.2333 N.am      20 UNK        -0.5000 
    110 CA        -7.1328  -18.2266  -56.5429 C.3       20 UNK         0.1400 
    111 CB        -6.7406  -19.4865  -57.3485 C.3       20 UNK        -0.1800 
    112 C         -6.0023  -17.1804  -56.4099 C.2       20 UNK         0.5000 
    113 O         -6.1335  -16.2476  -55.6129 O.2       20 UNK        -0.5000 
    114 N         -4.9046  -17.3565  -57.1582 N.am      21 UNK        -0.5000 
    115 CA        -3.7110  -16.5043  -57.1220 C.3       21 UNK         0.1400 
    116 CB        -2.7587  -16.9358  -58.2480 C.3       21 UNK        -0.1800 
    117 C         -2.9763  -16.5109  -55.7647 C.2       21 UNK         0.5000 
    118 O         -2.2569  -15.5577  -55.4644 O.2       21 UNK        -0.5000 
    119 N         -3.1829  -17.5689  -54.9717 N.am      22 UNK        -0.5000 
    120 CA        -2.6755  -17.7158  -53.6019 C.3       22 UNK         0.1400 
    121 C         -3.6610  -17.2064  -52.5099 C.2       22 UNK         0.5000 
    122 N         -4.7758  -16.5692  -52.8492 N.am      22 UNK        -0.7600 
    123 O         -3.4048  -17.3869  -51.3225 O.2       22 UNK        -0.5000 
    124 C124       -2.2073  -19.1674  -53.3242 C.3       23 UNK        -0.0398 
    125 S125       -0.7617  -19.6658  -54.3248 S.3       23 UNK        -0.2404 
    126 C126        0.5876  -18.6418  -53.6386 C.3       23 UNK        -0.0205 
    127 H127       -1.8005  -13.1014  -52.2994 H         1 UNK         0.0600 
    128 H128       -2.2921  -14.4111  -51.2158 H         1 UNK         0.0600 
    129 H129       -1.4886  -14.7808  -52.7413 H         1 UNK         0.0600 
    130 H130       -1.0169  -13.8722  -49.3914 H         1 UNK         0.3000 
    131 H131        1.8362  -13.3269  -49.6338 H         1 UNK         0.0600 
    132 H132        2.5909  -15.1720  -48.2521 H         1 UNK         0.0800 
    133 H133        1.8505  -15.7907  -49.6907 H         1 UNK         0.0800 
    134 H134       -1.0552  -16.4130  -49.5023 H         1 UNK         0.0800 
    135 H135       -1.2523  -17.7446  -48.4169 H         1 UNK         0.0800 
    136 H136       -0.4270  -17.0936  -51.6411 H         1 UNK         0.1150 
    137 H137        1.9720  -20.5788  -52.3045 H         1 UNK         0.1150 
    138 H138        1.1049  -19.2907  -48.3027 H         1 UNK         0.1150 
    139 H139        3.2142  -21.5076  -50.4522 H         1 UNK         0.0800 
    140 H140        3.0564  -20.8790  -48.8371 H         1 UNK         0.0800 
    141 H141       -0.0791  -21.5087  -47.7797 H         1 UNK         0.0800 
    142 H142        1.5553  -21.5268  -47.1904 H         1 UNK         0.0800 
    143 H143        1.3217  -24.0600  -46.8478 H         1 UNK         0.0600 
    144 H144        0.5056  -21.9592  -45.1446 H         1 UNK         0.3000 
    145 H145        0.1898  -23.9887  -42.1894 H         1 UNK         0.0600 
    146 H146        1.7814  -22.2219  -41.4740 H         1 UNK         0.0600 
    147 H147        2.5816  -23.3731  -42.5332 H         1 UNK         0.0600 
    148 H148        2.1082  -21.7967  -43.1528 H         1 UNK         0.0600 
    149 H149       -0.2669  -21.2040  -42.6845 H         1 UNK         0.3000 
    150 H150       -3.7743  -21.4261  -43.2927 H         1 UNK         0.0600 
    151 H151       -3.4776  -21.4804  -40.8130 H         1 UNK         0.0600 
    152 H152       -3.7516  -19.8417  -41.3842 H         1 UNK         0.0600 
    153 H153       -2.1270  -20.3591  -40.9350 H         1 UNK         0.0600 
    154 H154       -1.9261  -19.2357  -43.1350 H         1 UNK         0.3000 
    155 H155       -1.1154  -19.1358  -46.6110 H         1 UNK         0.0600 
    156 H156       -2.9729  -17.4199  -44.8698 H         1 UNK         0.0600 
    157 H157       -3.3177  -18.0305  -46.4832 H         1 UNK         0.0600 
    158 H158       -2.0674  -16.8175  -46.2523 H         1 UNK         0.0600 
    159 H159       -0.4298  -17.4104  -44.4599 H         1 UNK         0.3000 
    160 H160        2.3932  -19.1749  -43.2557 H         1 UNK         0.0600 
    161 H161        3.7813  -17.3282  -44.1548 H         1 UNK         0.0600 
    162 H162        2.5058  -16.8830  -45.2915 H         1 UNK         0.0600 
    163 H163        3.3384  -18.4229  -45.4540 H         1 UNK         0.0600 
    164 H164        1.6833  -16.4391  -43.0047 H         1 UNK         0.3000 
    165 H165       -0.9887  -16.6140  -40.7878 H         1 UNK         0.0600 
    166 H166        0.4724  -15.4505  -39.1532 H         1 UNK         0.0600 
    167 H167        0.8356  -17.1693  -39.1635 H         1 UNK         0.0600 
    168 H168        1.9147  -16.0416  -39.9780 H         1 UNK         0.0600 
    169 H169        0.7671  -14.4689  -41.5069 H         1 UNK         0.3000 
    170 H170       -0.9215  -13.5444  -44.5259 H         1 UNK         0.0600 
    171 H171       -2.0145  -12.5524  -42.5361 H         1 UNK         0.0600 
    172 H172       -0.4554  -12.2936  -41.7688 H         1 UNK         0.0600 
    173 H173       -0.8665  -11.4302  -43.2480 H         1 UNK         0.0600 
    174 H174        1.1847  -13.2520  -44.9615 H         1 UNK         0.3000 
    175 H175        4.1402  -12.4416  -43.1541 H         1 UNK         0.0600 
    176 H176        3.3612  -14.5553  -45.2352 H         1 UNK         0.0600 
    177 H177        4.9850  -13.9410  -44.9397 H         1 UNK         0.0600 
    178 H178        4.1616  -14.8710  -43.6978 H         1 UNK         0.0600 
    179 H179        2.7505  -12.1958  -45.7892 H         1 UNK         0.3000 
    180 H180        2.8342   -8.6663  -45.6726 H         1 UNK         0.0600 
    181 H181        4.4591  -10.4992  -47.5200 H         1 UNK         0.0600 
    182 H182        5.1017   -9.1364  -46.6113 H         1 UNK         0.0600 
    183 H183        3.9327   -8.8568  -47.8919 H         1 UNK         0.0600 
    184 H184        1.9981  -10.5777  -47.6525 H         1 UNK         0.3000 
    185 H185       -1.0074  -11.5724  -46.2467 H         1 UNK         0.0600 
    186 H186       -0.9409   -9.3765  -48.3829 H         1 UNK         0.0600 
    187 H187       -2.2735  -10.4921  -48.0779 H         1 UNK         0.0600 
    188 H188       -1.8374   -9.2947  -46.8711 H         1 UNK         0.0600 
    189 H189       -0.3372  -11.7390  -48.9429 H         1 UNK         0.3000 
    190 H190       -1.9716  -22.7849  -46.1134 H         1 UNK         0.3000 
    191 H191       -3.3705  -24.4496  -47.9298 H         1 UNK         0.0600 
    192 H192       -4.2812  -23.1649  -45.3083 H         1 UNK         0.0600 
    193 H193       -5.3534  -23.8763  -46.5097 H         1 UNK         0.0600 
    194 H194       -4.4027  -22.4601  -46.9214 H         1 UNK         0.0600 
    195 H195       -2.1830  -25.0918  -44.6372 H         1 UNK         0.3000 
    196 H196       -3.5104  -27.6555  -44.3759 H         1 UNK         0.0600 
    197 H197       -2.0239  -27.9022  -42.3970 H         1 UNK         0.0600 
    198 H198       -2.8303  -26.3407  -42.3910 H         1 UNK         0.0600 
    199 H199       -1.1358  -26.4553  -42.8564 H         1 UNK         0.0600 
    200 H200       -0.2294  -26.5793  -45.3586 H         1 UNK         0.3000 
    201 H201        0.8640  -29.1900  -45.6872 H         1 UNK         0.0600 
    202 H202        2.2484  -27.1773  -45.2784 H         1 UNK         0.0600 
    203 H203        1.7628  -26.4936  -46.8288 H         1 UNK         0.0600 
    204 H204        2.7399  -27.9559  -46.7753 H         1 UNK         0.0600 
    205 H205       -0.6224  -26.9186  -48.0385 H         1 UNK         0.3000 
    206 H206       -0.9529  -29.0830  -50.0226 H         1 UNK         0.0600 
    207 H207        0.0359  -27.5668  -51.7953 H         1 UNK         0.0600 
    208 H208        0.6182  -26.4897  -50.5242 H         1 UNK         0.0600 
    209 H209        1.2275  -28.1351  -50.6392 H         1 UNK         0.0600 
    210 H210       -1.2308  -25.6434  -50.7432 H         1 UNK         0.3000 
    211 H211       -3.9878  -25.3675  -49.9915 H         1 UNK         0.0600 
    212 H212       -3.2843  -25.5744  -52.9783 H         1 UNK         0.0600 
    213 H213       -4.8227  -25.0086  -52.3371 H         1 UNK         0.0600 
    214 H214       -4.3348  -26.6773  -52.0903 H         1 UNK         0.0600 
    215 H215       -4.5466  -23.1699  -49.9811 H         1 UNK         0.3000 
    216 H216       -3.2741  -21.0960  -51.3433 H         1 UNK         0.0600 
    217 H217       -2.1988  -19.9437  -49.3521 H         1 UNK         0.0600 
    218 H218       -1.3603  -21.4184  -49.7711 H         1 UNK         0.0600 
    219 H219       -2.4593  -21.3926  -48.3894 H         1 UNK         0.0600 
    220 H220       -4.0686  -18.9357  -50.2215 H         1 UNK         0.3000 
    221 H221       -5.7067  -17.6086  -49.6684 H         1 UNK         0.0600 
    222 H222       -6.8751  -19.8074  -47.8870 H         1 UNK         0.0600 
    223 H223       -5.5902  -18.7001  -47.4073 H         1 UNK         0.0600 
    224 H224       -7.1901  -18.0828  -47.7834 H         1 UNK         0.0600 
    225 H225       -5.8958  -19.2423  -52.0401 H         1 UNK         0.3000 
    226 H226       -8.5817  -18.6047  -52.8516 H         1 UNK         0.0600 
    227 H227       -9.0570  -20.9260  -53.7150 H         1 UNK         0.0600 
    228 H228       -7.6117  -21.5287  -52.9100 H         1 UNK         0.0600 
    229 H229       -8.9661  -20.9203  -51.9605 H         1 UNK         0.0600 
    230 H230       -8.6489  -18.3792  -55.0917 H         1 UNK         0.3000 
    231 H231       -7.9422  -17.7293  -57.0791 H         1 UNK         0.0600 
    232 H232       -7.5712  -20.1910  -57.3953 H         1 UNK         0.0600 
    233 H233       -5.8919  -20.0097  -56.9063 H         1 UNK         0.0600 
    234 H234       -6.4817  -19.2361  -58.3779 H         1 UNK         0.0600 
    235 H235       -4.8688  -18.1528  -57.7779 H         1 UNK         0.3000 
    236 H236       -4.0278  -15.4773  -57.3151 H         1 UNK         0.0600 
    237 H237       -3.2389  -16.8586  -59.2237 H         1 UNK         0.0600 
    238 H238       -1.8710  -16.3024  -58.2735 H         1 UNK         0.0600 
    239 H239       -2.4231  -17.9655  -58.1174 H         1 UNK         0.0600 
    240 H240       -3.8234  -18.2876  -55.2798 H         1 UNK         0.3000 
    241 H241       -1.8070  -17.0689  -53.4910 H         1 UNK         0.0600 
    242 H242       -5.0244  -16.4267  -53.8205 H         1 UNK         0.3800 
    243 H243       -5.3803  -16.2150  -52.1273 H         1 UNK         0.3800 
    244 H244       -1.9547  -19.3159  -52.2744 H         1 UNK         0.0800 
    245 H245       -3.0201  -19.8651  -53.5315 H         1 UNK         0.0800 
    246 H246        1.5176  -18.9119  -54.1409 H         1 UNK         0.0800 
    247 H247        0.4142  -17.5931  -53.8835 H         1 UNK         0.0800 
@<TRIPOS>BOND
     1    1    2 1    
     2    1  127 1    
     3    1  128 1    
     4    1  129 1    
     5    2    3 2    
     6    2    4 am   BACKBONE|DICT|INTERRES
     7    4    5 1    
     8    4  130 1    
     9    5    6 1    
    10    5   65 1    
    11    5  131 1    
    12    6    7 1    
    13    6  132 1    
    14    6  133 1    
    15    7    8 1    
    16    8    9 1    
    17    8  134 1    
    18    8  135 1    
    19    9   10 ar   
    20    9   14 ar   
    21   10   11 ar   
    22   10  136 1    
    23   11   12 ar   
    24   11  126 1    
    25   12   13 ar   
    26   12  137 1    
    27   13   14 ar   
    28   13   15 1    
    29   14  138 1    
    30   15   16 1    
    31   15  139 1    
    32   15  140 1    
    33   16   17 1    
    34   17   18 1    
    35   17  141 1    
    36   17  142 1    
    37   18   19 1    
    38   18   67 1    
    39   18  143 1    
    40   19   20 am   BACKBONE|DICT|INTERRES
    41   19  144 1    
    42   20   21 2    
    43   20   22 1    
    44   22   23 1    
    45   22   24 1    
    46   22  145 1    
    47   23  146 1    
    48   23  147 1    
    49   23  148 1    
    50   24   25 am   BACKBONE|DICT|INTERRES
    51   24  149 1    
    52   25   26 2    
    53   25   27 1    
    54   27   28 1    
    55   27   29 1    
    56   27  150 1    
    57   28  151 1    
    58   28  152 1    
    59   28  153 1    
    60   29   30 am   BACKBONE|DICT|INTERRES
    61   29  154 1    
    62   30   31 2    
    63   30   32 1    
    64   32   33 1    
    65   32   34 1    
    66   32  155 1    
    67   33  156 1    
    68   33  157 1    
    69   33  158 1    
    70   34   35 am   BACKBONE|DICT|INTERRES
    71   34  159 1    
    72   35   36 2    
    73   35   37 1    
    74   37   38 1    
    75   37   39 1    
    76   37  160 1    
    77   38  161 1    
    78   38  162 1    
    79   38  163 1    
    80   39   40 am   BACKBONE|DICT|INTERRES
    81   39  164 1    
    82   40   41 2    
    83   40   42 1    
    84   42   43 1    
    85   42   44 1    
    86   42  165 1    
    87   43  166 1    
    88   43  167 1    
    89   43  168 1    
    90   44   45 am   BACKBONE|DICT|INTERRES
    91   44  169 1    
    92   45   46 2    
    93   45   47 1    
    94   47   48 1    
    95   47   49 1    
    96   47  170 1    
    97   48  171 1    
    98   48  172 1    
    99   48  173 1    
   100   49   50 am   BACKBONE|DICT|INTERRES
   101   49  174 1    
   102   50   51 2    
   103   50   52 1    
   104   52   53 1    
   105   52   54 1    
   106   52  175 1    
   107   53  176 1    
   108   53  177 1    
   109   53  178 1    
   110   54   55 am   BACKBONE|DICT|INTERRES
   111   54  179 1    
   112   55   56 2    
   113   55   57 1    
   114   57   58 1    
   115   57   59 1    
   116   57  180 1    
   117   58  181 1    
   118   58  182 1    
   119   58  183 1    
   120   59   60 am   BACKBONE|DICT|INTERRES
   121   59  184 1    
   122   60   61 2    
   123   60   62 1    
   124   62   63 1    
   125   62   64 1    
   126   62  185 1    
   127   63  186 1    
   128   63  187 1    
   129   63  188 1    
   130   64   65 am   BACKBONE|DICT|INTERRES
   131   64  189 1    
   132   65   66 2    
   133   67   68 2    
   134   67   69 am   BACKBONE|DICT|INTERRES
   135   69   70 1    
   136   69  190 1    
   137   70   71 1    
   138   70   72 1    
   139   70  191 1    
   140   71  192 1    
   141   71  193 1    
   142   71  194 1    
   143   72   73 2    
   144   72   74 am   BACKBONE|DICT|INTERRES
   145   74   75 1    
   146   74  195 1    
   147   75   76 1    
   148   75   77 1    
   149   75  196 1    
   150   76  197 1    
   151   76  198 1    
   152   76  199 1    
   153   77   78 2    
   154   77   79 am   BACKBONE|DICT|INTERRES
   155   79   80 1    
   156   79  200 1    
   157   80   81 1    
   158   80   82 1    
   159   80  201 1    
   160   81  202 1    
   161   81  203 1    
   162   81  204 1    
   163   82   83 2    
   164   82   84 am   BACKBONE|DICT|INTERRES
   165   84   85 1    
   166   84  205 1    
   167   85   86 1    
   168   85   87 1    
   169   85  206 1    
   170   86  207 1    
   171   86  208 1    
   172   86  209 1    
   173   87   88 2    
   174   87   89 am   BACKBONE|DICT|INTERRES
   175   89   90 1    
   176   89  210 1    
   177   90   91 1    
   178   90   92 1    
   179   90  211 1    
   180   91  212 1    
   181   91  213 1    
   182   91  214 1    
   183   92   93 2    
   184   92   94 am   BACKBONE|DICT|INTERRES
   185   94   95 1    
   186   94  215 1    
   187   95   96 1    
   188   95   97 1    
   189   95  216 1    
   190   96  217 1    
   191   96  218 1    
   192   96  219 1    
   193   97   98 2    
   194   97   99 am   BACKBONE|DICT|INTERRES
   195   99  100 1    
   196   99  220 1    
   197  100  101 1    
   198  100  102 1    
   199  100  221 1    
   200  101  222 1    
   201  101  223 1    
   202  101  224 1    
   203  102  103 2    
   204  102  104 am   BACKBONE|DICT|INTERRES
   205  104  105 1    
   206  104  225 1    
   207  105  106 1    
   208  105  107 1    
   209  105  226 1    
   210  106  227 1    
   211  106  228 1    
   212  106  229 1    
   213  107  108 2    
   214  107  109 am   BACKBONE|DICT|INTERRES
   215  109  110 1    
   216  109  230 1    
   217  110  111 1    
   218  110  112 1    
   219  110  231 1    
   220  111  232 1    
   221  111  233 1    
   222  111  234 1    
   223  112  113 2    
   224  112  114 am   BACKBONE|DICT|INTERRES
   225  114  115 1    
   226  114  235 1    
   227  115  116 1    
   228  115  117 1    
   229  115  236 1    
   230  116  237 1    
   231  116  238 1    
   232  116  239 1    
   233  117  118 2    
   234  117  119 am   BACKBONE|DICT|INTERRES
   235  119  120 1    
   236  119  240 1    
   237  120  121 1    
   238  120  124 1    
   239  120  241 1    
   240  121  122 am   BACKBONE|DICT|INTERRES
   241  121  123 2    
   242  122  242 1    
   243  122  243 1    
   244  124  125 1    
   245  124  244 1    
   246  124  245 1    
   247  125  126 1    
   248  126  246 1    
   249  126  247 1    
@<TRIPOS>SUBSTRUCTURE
     1 UNK         1 GROUP             0       ****    0 ROOT    
