@<TRIPOS>MOLECULE
3R540
247   249    1
SMALL
USER_CHARGES


@<TRIPOS>ATOM
      1 CA         -1.9203  -14.2721  -46.0109 C.3       0 UNK        -0.1800 
      2 C          -0.9956  -13.0632  -46.0375 C.2       0 UNK         0.5000 
      3 O          -0.5561  -12.5959  -44.9862 O.2       0 UNK        -0.5000 
      4 N          -0.6814  -12.5659  -47.2416 N.am      1 UNK        -0.5000 
      5 CA          0.1313  -11.3648  -47.4952 C.3       1 UNK         0.1400 
      6 C6         -0.0287  -10.8497  -48.9501 C.3       23 UNK        -0.0398 
      7 S7          0.5552  -12.0147  -50.2308 S.3       23 UNK        -0.2404 
      8 C8         -0.9867  -12.8953  -50.6598 C.3       23 UNK        -0.0205 
      9 C9         -0.7818  -14.3808  -50.9461 C.ar      23 UNK        -0.0193 
     10 C10        -1.5703  -15.0100  -51.9147 C.ar      23 UNK        -0.1150 
     11 C11        -1.4258  -16.3759  -52.1748 C.ar      23 UNK        -0.0193 
     12 C12        -0.4884  -17.1195  -51.4530 C.ar      23 UNK        -0.1150 
     13 C13         0.3050  -16.5082  -50.4788 C.ar      23 UNK        -0.0193 
     14 C14         0.1519  -15.1414  -50.2309 C.ar      23 UNK        -0.1150 
     15 C15         1.3288  -17.3285  -49.7025 C.3       23 UNK        -0.0205 
     16 S16         1.1953  -17.1432  -47.8920 S.3       23 UNK        -0.2404 
     17 C17        -0.5489  -17.5735  -47.5875 C.3       23 UNK        -0.0398 
     18 CA         -0.8353  -19.0933  -47.6164 C.3       11 UNK         0.1400 
     19 N          -0.1254  -19.8453  -46.5757 N.am      11 UNK        -0.5000 
     20 C          -0.1456  -21.1813  -46.4508 C.2       10 UNK         0.5000 
     21 O          -0.7020  -21.9338  -47.2505 O.2       10 UNK        -0.5000 
     22 CA          0.5054  -21.7779  -45.1892 C.3       10 UNK         0.1400 
     23 CB          2.0232  -21.9399  -45.3611 C.3       10 UNK        -0.1800 
     24 N           0.2125  -20.9889  -43.9913 N.am      10 UNK        -0.5000 
     25 C          -1.0092  -20.8778  -43.4490 C.2       9 UNK         0.5000 
     26 O          -1.9989  -21.4733  -43.8735 O.2       9 UNK        -0.5000 
     27 CA         -1.1660  -19.9085  -42.2633 C.3       9 UNK         0.1400 
     28 CB         -0.7478  -20.5875  -40.9510 C.3       9 UNK        -0.1800 
     29 N          -0.4103  -18.6684  -42.4434 N.am      9 UNK        -0.5000 
     30 C          -0.6433  -17.7746  -43.4157 C.2       8 UNK         0.5000 
     31 O          -1.5754  -17.8642  -44.2142 O.2       8 UNK        -0.5000 
     32 CA          0.3670  -16.6227  -43.5667 C.3       8 UNK         0.1400 
     33 CB          0.0147  -15.4491  -42.6416 C.3       8 UNK        -0.1800 
     34 N           1.7462  -17.0399  -43.3250 N.am      8 UNK        -0.5000 
     35 C           2.4090  -17.9534  -44.0456 C.2       7 UNK         0.5000 
     36 O           1.9204  -18.5503  -45.0014 O.2       7 UNK        -0.5000 
     37 CA          3.8335  -18.2977  -43.5863 C.3       7 UNK         0.1400 
     38 CB          4.8360  -17.2221  -44.0272 C.3       7 UNK        -0.1800 
     39 N           3.8968  -18.4635  -42.1367 N.am      7 UNK        -0.5000 
     40 C           3.4299  -19.5345  -41.4821 C.2       6 UNK         0.5000 
     41 O           2.9272  -20.5118  -42.0380 O.2       6 UNK        -0.5000 
     42 CA          3.5196  -19.4926  -39.9453 C.3       6 UNK         0.1400 
     43 CB          4.9007  -19.9684  -39.4704 C.3       6 UNK        -0.1800 
     44 N           3.2489  -18.1633  -39.3925 N.am      6 UNK        -0.5000 
     45 C           2.0524  -17.5627  -39.4391 C.2       5 UNK         0.5000 
     46 O           1.0579  -18.0593  -39.9669 O.2       5 UNK        -0.5000 
     47 CA          1.9565  -16.1543  -38.8256 C.3       5 UNK         0.1400 
     48 CB          1.8281  -16.2392  -37.2970 C.3       5 UNK        -0.1800 
     49 N           3.0541  -15.2436  -39.1717 N.am      5 UNK        -0.5000 
     50 C           3.4546  -14.9511  -40.4159 C.2       4 UNK         0.5000 
     51 O           3.0929  -15.5638  -41.4202 O.2       4 UNK        -0.5000 
     52 CA          4.4026  -13.7535  -40.5855 C.3       4 UNK         0.1400 
     53 CB          5.8042  -14.2242  -41.0014 C.3       4 UNK        -0.1800 
     54 N           3.8776  -12.8443  -41.6045 N.am      4 UNK        -0.5000 
     55 C           2.7414  -12.1438  -41.5020 C.2       3 UNK         0.5000 
     56 O           2.0746  -12.0855  -40.4677 O.2       3 UNK        -0.5000 
     57 CA          2.2446  -11.3881  -42.7506 C.3       3 UNK         0.1400 
     58 CB          2.8545   -9.9755  -42.8226 C.3       3 UNK        -0.1800 
     59 N           2.3946  -12.0973  -44.0294 N.am      3 UNK        -0.5000 
     60 C           3.5137  -12.4160  -44.7008 C.2       2 UNK         0.5000 
     61 O           4.6506  -12.2481  -44.2585 O.2       2 UNK        -0.5000 
     62 CA          3.3425  -13.0192  -46.1123 C.3       2 UNK         0.1400 
     63 CB          3.5258  -14.5426  -46.0694 C.3       2 UNK        -0.1800 
     64 N           2.0473  -12.7185  -46.7230 N.am      2 UNK        -0.5000 
     65 C           1.6152  -11.4979  -47.0740 C.2       1 UNK         0.5000 
     66 O           2.3251  -10.4918  -47.0389 O.2       1 UNK        -0.5000 
     67 C          -2.3553  -19.3341  -47.5530 C.2       11 UNK         0.5000 
     68 O          -2.9595  -19.6274  -48.5828 O.2       11 UNK        -0.5000 
     69 N          -2.9376  -19.2398  -46.3489 N.am      12 UNK        -0.5000 
     70 CA         -4.3561  -19.4904  -46.0918 C.3       12 UNK         0.1400 
     71 CB         -4.6904  -19.1241  -44.6383 C.3       12 UNK        -0.1800 
     72 C          -4.7743  -20.9380  -46.4061 C.2       12 UNK         0.5000 
     73 O          -5.8179  -21.1434  -47.0250 O.2       12 UNK        -0.5000 
     74 N          -3.9377  -21.9090  -46.0123 N.am      13 UNK        -0.5000 
     75 CA         -4.1226  -23.3312  -46.3037 C.3       13 UNK         0.1400 
     76 CB         -3.0809  -24.1566  -45.5337 C.3       13 UNK        -0.1800 
     77 C          -4.0664  -23.6480  -47.8095 C.2       13 UNK         0.5000 
     78 O          -4.8577  -24.4638  -48.2820 O.2       13 UNK        -0.5000 
     79 N          -3.1572  -22.9841  -48.5375 N.am      14 UNK        -0.5000 
     80 CA         -3.0489  -23.0705  -49.9928 C.3       14 UNK         0.1400 
     81 CB         -1.7265  -22.4416  -50.4572 C.3       14 UNK        -0.1800 
     82 C          -4.2551  -22.4246  -50.6984 C.2       14 UNK         0.5000 
     83 O          -4.8664  -23.0554  -51.5619 O.2       14 UNK        -0.5000 
     84 N          -4.6015  -21.1969  -50.2843 N.am      15 UNK        -0.5000 
     85 CA         -5.7077  -20.4024  -50.8224 C.3       15 UNK         0.1400 
     86 CB         -5.6920  -19.0052  -50.1853 C.3       15 UNK        -0.1800 
     87 C          -7.0904  -21.0589  -50.6530 C.2       15 UNK         0.5000 
     88 O          -7.9756  -20.8173  -51.4748 O.2       15 UNK        -0.5000 
     89 N          -7.2454  -21.9132  -49.6323 N.am      16 UNK        -0.5000 
     90 CA         -8.4192  -22.7473  -49.3628 C.3       16 UNK         0.1400 
     91 CB         -8.3745  -23.2007  -47.8924 C.3       16 UNK        -0.1800 
     92 C          -8.5712  -23.9321  -50.3492 C.2       16 UNK         0.5000 
     93 O          -8.7926  -25.0675  -49.9241 O.2       16 UNK        -0.5000 
     94 N          -8.4753  -23.6337  -51.6521 N.am      17 UNK        -0.5000 
     95 CA         -8.6910  -24.5117  -52.8047 C.3       17 UNK         0.1400 
     96 CB        -10.1867  -24.8739  -52.9220 C.3       17 UNK        -0.1800 
     97 C          -7.7673  -25.7479  -52.8500 C.2       17 UNK         0.5000 
     98 O          -8.2180  -26.8368  -53.2151 O.2       17 UNK        -0.5000 
     99 N          -6.4855  -25.5664  -52.5024 N.am      18 UNK        -0.5000 
    100 CA        -5.4515  -26.5896  -52.6751 C.3       18 UNK         0.1400 
    101 CB        -4.2366  -26.2292  -51.8070 C.3       18 UNK        -0.1800 
    102 C         -5.0321  -26.7276  -54.1529 C.2       18 UNK         0.5000 
    103 O         -5.3602  -25.8721  -54.9801 O.2       18 UNK        -0.5000 
    104 N         -4.2760  -27.7897  -54.4584 N.am      19 UNK        -0.5000 
    105 CA        -3.6243  -27.9838  -55.7541 C.3       19 UNK         0.1400 
    106 CB        -3.0140  -29.3932  -55.8128 C.3       19 UNK        -0.1800 
    107 C         -2.5527  -26.8992  -55.9752 C.2       19 UNK         0.5000 
    108 O         -1.6172  -26.8087  -55.1770 O.2       19 UNK        -0.5000 
    109 N         -2.7402  -26.0831  -57.0230 N.am      20 UNK        -0.5000 
    110 CA        -1.9589  -24.8850  -57.3543 C.3       20 UNK         0.1400 
    111 CB        -0.5227  -25.2601  -57.7776 C.3       20 UNK        -0.1800 
    112 C         -2.0081  -23.8320  -56.2247 C.2       20 UNK         0.5000 
    113 O         -0.9629  -23.3609  -55.7713 O.2       20 UNK        -0.5000 
    114 N         -3.2373  -23.4928  -55.8020 N.am      21 UNK        -0.5000 
    115 CA        -3.6043  -22.6377  -54.6620 C.3       21 UNK         0.1400 
    116 CB        -5.1204  -22.3795  -54.7098 C.3       21 UNK        -0.1800 
    117 C         -2.8596  -21.2932  -54.5306 C.2       21 UNK         0.5000 
    118 O         -2.6899  -20.8053  -53.4136 O.2       21 UNK        -0.5000 
    119 N         -2.4223  -20.7265  -55.6585 N.am      22 UNK        -0.5000 
    120 CA        -1.5498  -19.5482  -55.7249 C.3       22 UNK         0.1400 
    121 C         -0.4594  -19.6988  -56.8256 C.2       22 UNK         0.5000 
    122 N         -0.0110  -20.9128  -57.1277 N.am      22 UNK        -0.7600 
    123 O         -0.0093  -18.7214  -57.4169 O.2       22 UNK        -0.5000 
    124 C124       -2.3644  -18.2249  -55.7818 C.3       23 UNK        -0.0398 
    125 S125       -1.5303  -16.8738  -54.8836 S.3       23 UNK        -0.2404 
    126 C126       -2.2788  -17.0526  -53.2349 C.3       23 UNK        -0.0205 
    127 H127       -2.9032  -13.9808  -45.6413 H         1 UNK         0.0600 
    128 H128       -1.5259  -15.0406  -45.3489 H         1 UNK         0.0600 
    129 H129       -2.0432  -14.7095  -47.0020 H         1 UNK         0.0600 
    130 H130       -1.0454  -13.0179  -48.0670 H         1 UNK         0.3000 
    131 H131       -0.2754  -10.5848  -46.8477 H         1 UNK         0.0600 
    132 H132       -1.0727  -10.5981  -49.1412 H         1 UNK         0.0800 
    133 H133        0.5157   -9.9122  -49.0769 H         1 UNK         0.0800 
    134 H134       -1.4260  -12.4000  -51.5271 H         1 UNK         0.0800 
    135 H135       -1.7172  -12.8057  -49.8563 H         1 UNK         0.0800 
    136 H136       -2.2994  -14.4374  -52.4710 H         1 UNK         0.1150 
    137 H137       -0.3763  -18.1758  -51.6552 H         1 UNK         0.1150 
    138 H138        0.7625  -14.6768  -49.4701 H         1 UNK         0.1150 
    139 H139        1.2458  -18.3874  -49.9513 H         1 UNK         0.0800 
    140 H140        2.3284  -17.0202  -50.0112 H         1 UNK         0.0800 
    141 H141       -1.1705  -17.0486  -48.3144 H         1 UNK         0.0800 
    142 H142       -0.8228  -17.1567  -46.6193 H         1 UNK         0.0800 
    143 H143       -0.4950  -19.4817  -48.5783 H         1 UNK         0.0600 
    144 H144        0.4264  -19.3034  -45.9153 H         1 UNK         0.3000 
    145 H145        0.0828  -22.7736  -45.0400 H         1 UNK         0.0600 
    146 H146        2.4762  -22.3780  -44.4716 H         1 UNK         0.0600 
    147 H147        2.2482  -22.5993  -46.2002 H         1 UNK         0.0600 
    148 H148        2.5189  -20.9895  -45.5543 H         1 UNK         0.0600 
    149 H149        0.9763  -20.4559  -43.5973 H         1 UNK         0.3000 
    150 H150       -2.2233  -19.6469  -42.1874 H         1 UNK         0.0600 
    151 H151       -1.2908  -21.5218  -40.8029 H         1 UNK         0.0600 
    152 H152       -0.9610  -19.9497  -40.0932 H         1 UNK         0.0600 
    153 H153        0.3177  -20.8195  -40.9390 H         1 UNK         0.0600 
    154 H154        0.3376  -18.4909  -41.7801 H         1 UNK         0.3000 
    155 H155        0.3168  -16.2709  -44.5982 H         1 UNK         0.0600 
    156 H156        0.0931  -15.7295  -41.5908 H         1 UNK         0.0600 
    157 H157       -1.0047  -15.1033  -42.8168 H         1 UNK         0.0600 
    158 H158        0.6787  -14.6011  -42.8121 H         1 UNK         0.0600 
    159 H159        2.2336  -16.5746  -42.5595 H         1 UNK         0.3000 
    160 H160        4.1214  -19.2398  -44.0580 H         1 UNK         0.0600 
    161 H161        4.5878  -16.2427  -43.6172 H         1 UNK         0.0600 
    162 H162        4.8498  -17.1335  -45.1140 H         1 UNK         0.0600 
    163 H163        5.8484  -17.4718  -43.7097 H         1 UNK         0.0600 
    164 H164        4.2178  -17.6691  -41.6017 H         1 UNK         0.3000 
    165 H165        2.7689  -20.1819  -39.5525 H         1 UNK         0.0600 
    166 H166        4.9471  -20.0212  -38.3826 H         1 UNK         0.0600 
    167 H167        5.1223  -20.9658  -39.8529 H         1 UNK         0.0600 
    168 H168        5.6956  -19.3028  -39.8092 H         1 UNK         0.0600 
    169 H169        4.0183  -17.6787  -38.9541 H         1 UNK         0.3000 
    170 H170        1.0406  -15.7022  -39.2115 H         1 UNK         0.0600 
    171 H171        1.0087  -16.8994  -37.0090 H         1 UNK         0.0600 
    172 H172        2.7384  -16.6254  -36.8368 H         1 UNK         0.0600 
    173 H173        1.6213  -15.2608  -36.8631 H         1 UNK         0.0600 
    174 H174        3.4209  -14.6917  -38.4100 H         1 UNK         0.3000 
    175 H175        4.4784  -13.2104  -39.6414 H         1 UNK         0.0600 
    176 H176        5.7862  -14.7503  -41.9568 H         1 UNK         0.0600 
    177 H177        6.4894  -13.3818  -41.0977 H         1 UNK         0.0600 
    178 H178        6.2250  -14.9034  -40.2591 H         1 UNK         0.0600 
    179 H179        4.3554  -12.8245  -42.5008 H         1 UNK         0.3000 
    180 H180        1.1676  -11.2666  -42.6230 H         1 UNK         0.0600 
    181 H181        3.9387  -10.0042  -42.9343 H         1 UNK         0.0600 
    182 H182        2.6365   -9.4115  -41.9149 H         1 UNK         0.0600 
    183 H183        2.4454   -9.4125  -43.6617 H         1 UNK         0.0600 
    184 H184        1.5129  -12.3251  -44.4765 H         1 UNK         0.3000 
    185 H185        4.1217  -12.5954  -46.7489 H         1 UNK         0.0600 
    186 H186        4.5127  -14.7974  -45.6831 H         1 UNK         0.0600 
    187 H187        2.7838  -15.0223  -45.4295 H         1 UNK         0.0600 
    188 H188        3.4457  -14.9809  -47.0644 H         1 UNK         0.0600 
    189 H189        1.3935  -13.4838  -46.7925 H         1 UNK         0.3000 
    190 H190       -2.3771  -18.9485  -45.5518 H         1 UNK         0.3000 
    191 H191       -4.9304  -18.8314  -46.7457 H         1 UNK         0.0600 
    192 H192       -4.1271  -19.7308  -43.9293 H         1 UNK         0.0600 
    193 H193       -5.7505  -19.2758  -44.4315 H         1 UNK         0.0600 
    194 H194       -4.4650  -18.0772  -44.4343 H         1 UNK         0.0600 
    195 H195       -3.1243  -21.6602  -45.4566 H         1 UNK         0.3000 
    196 H196       -5.1135  -23.6162  -45.9438 H         1 UNK         0.0600 
    197 H197       -3.2139  -25.2233  -45.7178 H         1 UNK         0.0600 
    198 H198       -3.1690  -23.9984  -44.4588 H         1 UNK         0.0600 
    199 H199       -2.0640  -23.8963  -45.8280 H         1 UNK         0.0600 
    200 H200       -2.5019  -22.3696  -48.0648 H         1 UNK         0.3000 
    201 H201       -3.0240  -24.1269  -50.2614 H         1 UNK         0.0600 
    202 H202       -0.8721  -22.9272  -49.9857 H         1 UNK         0.0600 
    203 H203       -1.6770  -21.3780  -50.2229 H         1 UNK         0.0600 
    204 H204       -1.6056  -22.5455  -51.5360 H         1 UNK         0.0600 
    205 H205       -4.0255  -20.7393  -49.5803 H         1 UNK         0.3000 
    206 H206       -5.5315  -20.2870  -51.8934 H         1 UNK         0.0600 
    207 H207       -4.7538  -18.4893  -50.3907 H         1 UNK         0.0600 
    208 H208       -6.4969  -18.3842  -50.5805 H         1 UNK         0.0600 
    209 H209       -5.8169  -19.0584  -49.1034 H         1 UNK         0.0600 
    210 H210       -6.4692  -22.0205  -48.9908 H         1 UNK         0.3000 
    211 H211       -9.3083  -22.1257  -49.4853 H         1 UNK         0.0600 
    212 H212       -7.5031  -23.8248  -47.6922 H         1 UNK         0.0600 
    213 H213       -9.2622  -23.7770  -47.6292 H         1 UNK         0.0600 
    214 H214       -8.3352  -22.3455  -47.2176 H         1 UNK         0.0600 
    215 H215       -8.2846  -22.6605  -51.8733 H         1 UNK         0.3000 
    216 H216       -8.4306  -23.9192  -53.6830 H         1 UNK         0.0600 
    217 H217      -10.3891  -25.4144  -53.8474 H         1 UNK         0.0600 
    218 H218      -10.8096  -23.9794  -52.9295 H         1 UNK         0.0600 
    219 H219      -10.5151  -25.5045  -52.0952 H         1 UNK         0.0600 
    220 H220       -6.1667  -24.6446  -52.2244 H         1 UNK         0.3000 
    221 H221       -5.8468  -27.5489  -52.3345 H         1 UNK         0.0600 
    222 H222       -3.7115  -25.3584  -52.2004 H         1 UNK         0.0600 
    223 H223       -4.5328  -26.0148  -50.7797 H         1 UNK         0.0600 
    224 H224       -3.5198  -27.0501  -51.7729 H         1 UNK         0.0600 
    225 H225       -4.0186  -28.4361  -53.7271 H         1 UNK         0.3000 
    226 H226       -4.3830  -27.9088  -56.5361 H         1 UNK         0.0600 
    227 H227       -3.7799  -30.1600  -55.6946 H         1 UNK         0.0600 
    228 H228       -2.5268  -29.5659  -56.7733 H         1 UNK         0.0600 
    229 H229       -2.2655  -29.5432  -55.0336 H         1 UNK         0.0600 
    230 H230       -3.5546  -26.2388  -57.6011 H         1 UNK         0.3000 
    231 H231       -2.4431  -24.4285  -58.2188 H         1 UNK         0.0600 
    232 H232       -0.5287  -25.9866  -58.5900 H         1 UNK         0.0600 
    233 H233        0.0497  -25.6848  -56.9525 H         1 UNK         0.0600 
    234 H234        0.0198  -24.3827  -58.1317 H         1 UNK         0.0600 
    235 H235       -4.0152  -23.9773  -56.2279 H         1 UNK         0.3000 
    236 H236       -3.3796  -23.2110  -53.7616 H         1 UNK         0.0600 
    237 H237       -5.4353  -21.7203  -53.9002 H         1 UNK         0.0600 
    238 H238       -5.4185  -21.9096  -55.6475 H         1 UNK         0.0600 
    239 H239       -5.6859  -23.3037  -54.6008 H         1 UNK         0.0600 
    240 H240       -2.5950  -21.1938  -56.5369 H         1 UNK         0.3000 
    241 H241       -0.9655  -19.5380  -54.8026 H         1 UNK         0.0600 
    242 H242        0.6970  -21.0129  -57.8380 H         1 UNK         0.3800 
    243 H243       -0.3153  -21.7282  -56.6033 H         1 UNK         0.3800 
    244 H244       -2.5466  -17.9161  -56.8123 H         1 UNK         0.0800 
    245 H245       -3.3531  -18.3606  -55.3409 H         1 UNK         0.0800 
    246 H246       -3.2834  -16.6270  -53.2418 H         1 UNK         0.0800 
    247 H247       -2.3942  -18.1106  -52.9936 H         1 UNK         0.0800 
@<TRIPOS>BOND
     1    1    2 1    
     2    1  127 1    
     3    1  128 1    
     4    1  129 1    
     5    2    3 2    
     6    2    4 am   BACKBONE|DICT|INTERRES
     7    4    5 1    
     8    4  130 1    
     9    5    6 1    
    10    5   65 1    
    11    5  131 1    
    12    6    7 1    
    13    6  132 1    
    14    6  133 1    
    15    7    8 1    
    16    8    9 1    
    17    8  134 1    
    18    8  135 1    
    19    9   10 ar   
    20    9   14 ar   
    21   10   11 ar   
    22   10  136 1    
    23   11   12 ar   
    24   11  126 1    
    25   12   13 ar   
    26   12  137 1    
    27   13   14 ar   
    28   13   15 1    
    29   14  138 1    
    30   15   16 1    
    31   15  139 1    
    32   15  140 1    
    33   16   17 1    
    34   17   18 1    
    35   17  141 1    
    36   17  142 1    
    37   18   19 1    
    38   18   67 1    
    39   18  143 1    
    40   19   20 am   BACKBONE|DICT|INTERRES
    41   19  144 1    
    42   20   21 2    
    43   20   22 1    
    44   22   23 1    
    45   22   24 1    
    46   22  145 1    
    47   23  146 1    
    48   23  147 1    
    49   23  148 1    
    50   24   25 am   BACKBONE|DICT|INTERRES
    51   24  149 1    
    52   25   26 2    
    53   25   27 1    
    54   27   28 1    
    55   27   29 1    
    56   27  150 1    
    57   28  151 1    
    58   28  152 1    
    59   28  153 1    
    60   29   30 am   BACKBONE|DICT|INTERRES
    61   29  154 1    
    62   30   31 2    
    63   30   32 1    
    64   32   33 1    
    65   32   34 1    
    66   32  155 1    
    67   33  156 1    
    68   33  157 1    
    69   33  158 1    
    70   34   35 am   BACKBONE|DICT|INTERRES
    71   34  159 1    
    72   35   36 2    
    73   35   37 1    
    74   37   38 1    
    75   37   39 1    
    76   37  160 1    
    77   38  161 1    
    78   38  162 1    
    79   38  163 1    
    80   39   40 am   BACKBONE|DICT|INTERRES
    81   39  164 1    
    82   40   41 2    
    83   40   42 1    
    84   42   43 1    
    85   42   44 1    
    86   42  165 1    
    87   43  166 1    
    88   43  167 1    
    89   43  168 1    
    90   44   45 am   BACKBONE|DICT|INTERRES
    91   44  169 1    
    92   45   46 2    
    93   45   47 1    
    94   47   48 1    
    95   47   49 1    
    96   47  170 1    
    97   48  171 1    
    98   48  172 1    
    99   48  173 1    
   100   49   50 am   BACKBONE|DICT|INTERRES
   101   49  174 1    
   102   50   51 2    
   103   50   52 1    
   104   52   53 1    
   105   52   54 1    
   106   52  175 1    
   107   53  176 1    
   108   53  177 1    
   109   53  178 1    
   110   54   55 am   BACKBONE|DICT|INTERRES
   111   54  179 1    
   112   55   56 2    
   113   55   57 1    
   114   57   58 1    
   115   57   59 1    
   116   57  180 1    
   117   58  181 1    
   118   58  182 1    
   119   58  183 1    
   120   59   60 am   BACKBONE|DICT|INTERRES
   121   59  184 1    
   122   60   61 2    
   123   60   62 1    
   124   62   63 1    
   125   62   64 1    
   126   62  185 1    
   127   63  186 1    
   128   63  187 1    
   129   63  188 1    
   130   64   65 am   BACKBONE|DICT|INTERRES
   131   64  189 1    
   132   65   66 2    
   133   67   68 2    
   134   67   69 am   BACKBONE|DICT|INTERRES
   135   69   70 1    
   136   69  190 1    
   137   70   71 1    
   138   70   72 1    
   139   70  191 1    
   140   71  192 1    
   141   71  193 1    
   142   71  194 1    
   143   72   73 2    
   144   72   74 am   BACKBONE|DICT|INTERRES
   145   74   75 1    
   146   74  195 1    
   147   75   76 1    
   148   75   77 1    
   149   75  196 1    
   150   76  197 1    
   151   76  198 1    
   152   76  199 1    
   153   77   78 2    
   154   77   79 am   BACKBONE|DICT|INTERRES
   155   79   80 1    
   156   79  200 1    
   157   80   81 1    
   158   80   82 1    
   159   80  201 1    
   160   81  202 1    
   161   81  203 1    
   162   81  204 1    
   163   82   83 2    
   164   82   84 am   BACKBONE|DICT|INTERRES
   165   84   85 1    
   166   84  205 1    
   167   85   86 1    
   168   85   87 1    
   169   85  206 1    
   170   86  207 1    
   171   86  208 1    
   172   86  209 1    
   173   87   88 2    
   174   87   89 am   BACKBONE|DICT|INTERRES
   175   89   90 1    
   176   89  210 1    
   177   90   91 1    
   178   90   92 1    
   179   90  211 1    
   180   91  212 1    
   181   91  213 1    
   182   91  214 1    
   183   92   93 2    
   184   92   94 am   BACKBONE|DICT|INTERRES
   185   94   95 1    
   186   94  215 1    
   187   95   96 1    
   188   95   97 1    
   189   95  216 1    
   190   96  217 1    
   191   96  218 1    
   192   96  219 1    
   193   97   98 2    
   194   97   99 am   BACKBONE|DICT|INTERRES
   195   99  100 1    
   196   99  220 1    
   197  100  101 1    
   198  100  102 1    
   199  100  221 1    
   200  101  222 1    
   201  101  223 1    
   202  101  224 1    
   203  102  103 2    
   204  102  104 am   BACKBONE|DICT|INTERRES
   205  104  105 1    
   206  104  225 1    
   207  105  106 1    
   208  105  107 1    
   209  105  226 1    
   210  106  227 1    
   211  106  228 1    
   212  106  229 1    
   213  107  108 2    
   214  107  109 am   BACKBONE|DICT|INTERRES
   215  109  110 1    
   216  109  230 1    
   217  110  111 1    
   218  110  112 1    
   219  110  231 1    
   220  111  232 1    
   221  111  233 1    
   222  111  234 1    
   223  112  113 2    
   224  112  114 am   BACKBONE|DICT|INTERRES
   225  114  115 1    
   226  114  235 1    
   227  115  116 1    
   228  115  117 1    
   229  115  236 1    
   230  116  237 1    
   231  116  238 1    
   232  116  239 1    
   233  117  118 2    
   234  117  119 am   BACKBONE|DICT|INTERRES
   235  119  120 1    
   236  119  240 1    
   237  120  121 1    
   238  120  124 1    
   239  120  241 1    
   240  121  122 am   BACKBONE|DICT|INTERRES
   241  121  123 2    
   242  122  242 1    
   243  122  243 1    
   244  124  125 1    
   245  124  244 1    
   246  124  245 1    
   247  125  126 1    
   248  126  246 1    
   249  126  247 1    
@<TRIPOS>SUBSTRUCTURE
     1 UNK         1 GROUP             0       ****    0 ROOT    
