@<TRIPOS>MOLECULE
3R540
247   249    1
SMALL
USER_CHARGES


@<TRIPOS>ATOM
      1 CA         10.1275  -11.7381  -49.7019 C.3       0 UNK        -0.1800 
      2 C           8.9728  -12.4433  -49.0039 C.2       0 UNK         0.5000 
      3 O           9.1279  -12.8973  -47.8697 O.2       0 UNK        -0.5000 
      4 N           7.8206  -12.5438  -49.6782 N.am      1 UNK        -0.5000 
      5 CA          6.5856  -13.1251  -49.1454 C.3       1 UNK         0.1400 
      6 C6          5.5685  -13.4063  -50.2793 C.3       23 UNK        -0.0398 
      7 S7          4.2904  -14.6212  -49.8113 S.3       23 UNK        -0.2404 
      8 C8          3.1312  -14.4292  -51.2125 C.3       23 UNK        -0.0205 
      9 C9          2.3358  -15.6786  -51.5981 C.ar      23 UNK        -0.0193 
     10 C10         1.2605  -15.5340  -52.4806 C.ar      23 UNK        -0.1150 
     11 C11         0.5326  -16.6449  -52.9177 C.ar      23 UNK        -0.0193 
     12 C12         0.8765  -17.9185  -52.4530 C.ar      23 UNK        -0.1150 
     13 C13         1.9539  -18.0840  -51.5778 C.ar      23 UNK        -0.0193 
     14 C14         2.6770  -16.9640  -51.1579 C.ar      23 UNK        -0.1150 
     15 C15         2.3906  -19.4710  -51.1280 C.3       23 UNK        -0.0205 
     16 S16         2.1091  -19.7321  -49.3491 S.3       23 UNK        -0.2404 
     17 C17         0.3993  -20.3664  -49.3131 C.3       23 UNK        -0.0398 
     18 CA          0.3272  -21.7663  -48.6529 C.3       11 UNK         0.1400 
     19 N           0.7749  -21.7439  -47.2563 N.am      11 UNK        -0.5000 
     20 C           1.0193  -22.8235  -46.5009 C.2       10 UNK         0.5000 
     21 O           0.7406  -23.9721  -46.8428 O.2       10 UNK        -0.5000 
     22 CA          1.6901  -22.5824  -45.1380 C.3       10 UNK         0.1400 
     23 CB          3.1599  -22.1723  -45.3218 C.3       10 UNK        -0.1800 
     24 N           0.9877  -21.5376  -44.3999 N.am      10 UNK        -0.5000 
     25 C           0.2714  -21.7313  -43.2840 C.2       9 UNK         0.5000 
     26 O           0.2495  -22.7922  -42.6594 O.2       9 UNK        -0.5000 
     27 CA         -0.5964  -20.5523  -42.7872 C.3       9 UNK         0.1400 
     28 CB          0.1386  -19.7722  -41.6868 C.3       9 UNK        -0.1800 
     29 N          -1.0013  -19.6113  -43.8348 N.am      9 UNK        -0.5000 
     30 C          -1.6324  -19.9288  -44.9736 C.2       8 UNK         0.5000 
     31 O          -2.0192  -21.0634  -45.2502 O.2       8 UNK        -0.5000 
     32 CA         -1.7798  -18.8132  -46.0233 C.3       8 UNK         0.1400 
     33 CB         -3.1363  -18.1179  -45.8620 C.3       8 UNK        -0.1800 
     34 N          -0.7057  -17.8145  -45.9984 N.am      8 UNK        -0.5000 
     35 C           0.6113  -18.0581  -46.0888 C.2       7 UNK         0.5000 
     36 O           1.0936  -19.1887  -46.1530 O.2       7 UNK        -0.5000 
     37 CA          1.5473  -16.8416  -46.0581 C.3       7 UNK         0.1400 
     38 CB          1.5915  -16.1438  -47.4232 C.3       7 UNK        -0.1800 
     39 N           1.1355  -15.8895  -45.0288 N.am      7 UNK        -0.5000 
     40 C           1.4958  -15.9780  -43.7415 C.2       6 UNK         0.5000 
     41 O           2.2862  -16.8165  -43.3084 O.2       6 UNK        -0.5000 
     42 CA          0.8537  -14.9761  -42.7639 C.3       6 UNK         0.1400 
     43 CB          1.7174  -13.7138  -42.6323 C.3       6 UNK        -0.1800 
     44 N          -0.5046  -14.5924  -43.1474 N.am      6 UNK        -0.5000 
     45 C          -1.5673  -15.4069  -43.0834 C.2       5 UNK         0.5000 
     46 O          -1.5146  -16.5713  -42.6852 O.2       5 UNK        -0.5000 
     47 CA         -2.9118  -14.8322  -43.5740 C.3       5 UNK         0.1400 
     48 CB         -3.6507  -14.1434  -42.4170 C.3       5 UNK        -0.1800 
     49 N          -2.8025  -13.8949  -44.6966 N.am      5 UNK        -0.5000 
     50 C          -2.2100  -14.1454  -45.8729 C.2       4 UNK         0.5000 
     51 O          -1.6282  -15.2001  -46.1275 O.2       4 UNK        -0.5000 
     52 CA         -2.2361  -13.0334  -46.9408 C.3       4 UNK         0.1400 
     53 CB         -2.7570  -11.6708  -46.4311 C.3       4 UNK        -0.1800 
     54 N          -0.9279  -12.8729  -47.5796 N.am      4 UNK        -0.5000 
     55 C           0.2372  -12.5881  -46.9840 C.2       3 UNK         0.5000 
     56 O           0.3621  -12.4290  -45.7674 O.2       3 UNK        -0.5000 
     57 CA          1.4462  -12.4886  -47.9376 C.3       3 UNK         0.1400 
     58 CB          1.3644  -11.2314  -48.8260 C.3       3 UNK        -0.1800 
     59 N           2.7515  -12.5697  -47.2758 N.am      3 UNK        -0.5000 
     60 C           3.3204  -11.7180  -46.4076 C.2       2 UNK         0.5000 
     61 O           2.8167  -10.6649  -46.0154 O.2       2 UNK        -0.5000 
     62 CA          4.7345  -12.1043  -45.9282 C.3       2 UNK         0.1400 
     63 CB          4.6601  -12.9927  -44.6771 C.3       2 UNK        -0.1800 
     64 N           5.4984  -12.7995  -46.9680 N.am      2 UNK        -0.5000 
     65 C           5.9732  -12.2040  -48.0702 C.2       1 UNK         0.5000 
     66 O           5.9105  -10.9887  -48.2746 O.2       1 UNK        -0.5000 
     67 C          -1.0701  -22.3886  -48.8234 C.2       11 UNK         0.5000 
     68 O          -1.2341  -23.2868  -49.6498 O.2       11 UNK        -0.5000 
     69 N          -2.0432  -21.9316  -48.0242 N.am      12 UNK        -0.5000 
     70 CA         -3.4152  -22.4338  -48.0626 C.3       12 UNK         0.1400 
     71 CB         -4.3893  -21.4077  -47.4673 C.3       12 UNK        -0.1800 
     72 C          -3.5353  -23.7846  -47.3488 C.2       12 UNK         0.5000 
     73 O          -4.3362  -24.6131  -47.7737 O.2       12 UNK        -0.5000 
     74 N          -2.7129  -24.0085  -46.3138 N.am      13 UNK        -0.5000 
     75 CA         -2.6024  -25.2849  -45.6061 C.3       13 UNK         0.1400 
     76 CB         -1.6676  -25.1292  -44.3982 C.3       13 UNK        -0.1800 
     77 C          -2.1401  -26.4282  -46.5300 C.2       13 UNK         0.5000 
     78 O          -2.7470  -27.4995  -46.5188 O.2       13 UNK        -0.5000 
     79 N          -1.1261  -26.1577  -47.3655 N.am      14 UNK        -0.5000 
     80 CA         -0.6347  -27.0660  -48.4059 C.3       14 UNK         0.1400 
     81 CB          0.6599  -26.4958  -49.0043 C.3       14 UNK        -0.1800 
     82 C          -1.6690  -27.3384  -49.5174 C.2       14 UNK         0.5000 
     83 O          -1.6849  -28.4351  -50.0766 O.2       14 UNK        -0.5000 
     84 N          -2.5302  -26.3508  -49.7935 N.am      15 UNK        -0.5000 
     85 CA         -3.6438  -26.4346  -50.7407 C.3       15 UNK         0.1400 
     86 CB         -3.8983  -25.0337  -51.3208 C.3       15 UNK        -0.1800 
     87 C          -4.9332  -27.0125  -50.1164 C.2       15 UNK         0.5000 
     88 O          -5.9658  -27.0230  -50.7874 O.2       15 UNK        -0.5000 
     89 N          -4.8778  -27.4484  -48.8470 N.am      16 UNK        -0.5000 
     90 CA         -5.9783  -28.0013  -48.0458 C.3       16 UNK         0.1400 
     91 CB         -6.3985  -29.3823  -48.5902 C.3       16 UNK        -0.1800 
     92 C          -7.1720  -27.0319  -47.8845 C.2       16 UNK         0.5000 
     93 O          -8.3214  -27.4701  -47.8163 O.2       16 UNK        -0.5000 
     94 N          -6.8676  -25.7265  -47.8487 N.am      17 UNK        -0.5000 
     95 CA         -7.7713  -24.5751  -47.7671 C.3       17 UNK         0.1400 
     96 CB         -8.5606  -24.5874  -46.4421 C.3       17 UNK        -0.1800 
     97 C          -8.6851  -24.3845  -48.9981 C.2       17 UNK         0.5000 
     98 O          -9.6104  -23.5730  -48.9383 O.2       17 UNK        -0.5000 
     99 N          -8.4162  -25.1024  -50.0985 N.am      18 UNK        -0.5000 
    100 CA        -9.1852  -25.0187  -51.3423 C.3       18 UNK         0.1400 
    101 CB        -9.0141  -26.3303  -52.1240 C.3       18 UNK        -0.1800 
    102 C         -8.7827  -23.8166  -52.2182 C.2       18 UNK         0.5000 
    103 O         -9.5599  -23.4159  -53.0858 O.2       18 UNK        -0.5000 
    104 N         -7.5828  -23.2720  -51.9899 N.am      19 UNK        -0.5000 
    105 CA        -6.9732  -22.1715  -52.7282 C.3       19 UNK         0.1400 
    106 CB        -6.5104  -22.6673  -54.1160 C.3       19 UNK        -0.1800 
    107 C         -5.7997  -21.6146  -51.9030 C.2       19 UNK         0.5000 
    108 O         -5.5922  -22.0472  -50.7672 O.2       19 UNK        -0.5000 
    109 N         -5.0446  -20.6840  -52.5042 N.am      20 UNK        -0.5000 
    110 CA        -3.7619  -20.1423  -52.0352 C.3       20 UNK         0.1400 
    111 CB        -2.6860  -21.2436  -52.0103 C.3       20 UNK        -0.1800 
    112 C         -3.8354  -19.3290  -50.7244 C.2       20 UNK         0.5000 
    113 O         -2.8369  -19.2060  -50.0108 O.2       20 UNK        -0.5000 
    114 N         -5.0001  -18.7120  -50.4722 N.am      21 UNK        -0.5000 
    115 CA        -5.2587  -17.7769  -49.3670 C.3       21 UNK         0.1400 
    116 CB        -6.7641  -17.4762  -49.3173 C.3       21 UNK        -0.1800 
    117 C         -4.4400  -16.4680  -49.4439 C.2       21 UNK         0.5000 
    118 O         -4.3753  -15.7260  -48.4640 O.2       21 UNK        -0.5000 
    119 N         -3.8199  -16.2234  -50.6026 N.am      22 UNK        -0.5000 
    120 CA        -2.7557  -15.2405  -50.8314 C.3       22 UNK         0.1400 
    121 C         -1.4371  -15.5136  -50.0527 C.2       22 UNK         0.5000 
    122 N         -1.1732  -16.7300  -49.5868 N.am      22 UNK        -0.7600 
    123 O         -0.6502  -14.5903  -49.8638 O.2       22 UNK        -0.5000 
    124 C124       -2.4798  -15.0678  -52.3489 C.3       23 UNK        -0.0398 
    125 S125       -2.2422  -16.6541  -53.2370 S.3       23 UNK        -0.2404 
    126 C126       -0.5769  -16.4763  -53.9467 C.3       23 UNK        -0.0205 
    127 H127       10.4432  -10.8712  -49.1215 H         1 UNK         0.0600 
    128 H128       10.9774  -12.4138  -49.7976 H         1 UNK         0.0600 
    129 H129        9.8509  -11.3965  -50.6997 H         1 UNK         0.0600 
    130 H130        7.7484  -12.1213  -50.5927 H         1 UNK         0.3000 
    131 H131        6.8543  -14.0772  -48.6817 H         1 UNK         0.0600 
    132 H132        5.0937  -12.4849  -50.6235 H         1 UNK         0.0800 
    133 H133        6.0879  -13.8186  -51.1458 H         1 UNK         0.0800 
    134 H134        2.4393  -13.6196  -50.9733 H         1 UNK         0.0800 
    135 H135        3.6877  -14.1115  -52.0956 H         1 UNK         0.0800 
    136 H136        1.0021  -14.5501  -52.8458 H         1 UNK         0.1150 
    137 H137        0.3219  -18.7803  -52.7964 H         1 UNK         0.1150 
    138 H138        3.5184  -17.1142  -50.4980 H         1 UNK         0.1150 
    139 H139        1.8979  -20.2517  -51.7092 H         1 UNK         0.0800 
    140 H140        3.4578  -19.5797  -51.3263 H         1 UNK         0.0800 
    141 H141        0.0093  -20.3977  -50.3303 H         1 UNK         0.0800 
    142 H142       -0.2229  -19.6489  -48.7778 H         1 UNK         0.0800 
    143 H143        1.0194  -22.4171  -49.1920 H         1 UNK         0.0600 
    144 H144        1.0274  -20.8259  -46.8964 H         1 UNK         0.3000 
    145 H145        1.6692  -23.5262  -44.5893 H         1 UNK         0.0600 
    146 H146        3.6591  -22.0646  -44.3587 H         1 UNK         0.0600 
    147 H147        3.7075  -22.9250  -45.8903 H         1 UNK         0.0600 
    148 H148        3.2538  -21.2243  -45.8535 H         1 UNK         0.0600 
    149 H149        0.9410  -20.6295  -44.8515 H         1 UNK         0.3000 
    150 H150       -1.5075  -20.9768  -42.3614 H         1 UNK         0.0600 
    151 H151        0.4359  -20.4310  -40.8699 H         1 UNK         0.0600 
    152 H152       -0.4971  -18.9947  -41.2623 H         1 UNK         0.0600 
    153 H153        1.0411  -19.2937  -42.0702 H         1 UNK         0.0600 
    154 H154       -0.7500  -18.6423  -43.6894 H         1 UNK         0.3000 
    155 H155       -1.7591  -19.2766  -47.0099 H         1 UNK         0.0600 
    156 H156       -3.2711  -17.3352  -46.6072 H         1 UNK         0.0600 
    157 H157       -3.2333  -17.6686  -44.8754 H         1 UNK         0.0600 
    158 H158       -3.9583  -18.8242  -45.9784 H         1 UNK         0.0600 
    159 H159       -1.0134  -16.8423  -45.9788 H         1 UNK         0.3000 
    160 H160        2.5543  -17.2045  -45.8412 H         1 UNK         0.0600 
    161 H161        2.3757  -15.3895  -47.4438 H         1 UNK         0.0600 
    162 H162        0.6470  -15.6537  -47.6567 H         1 UNK         0.0600 
    163 H163        1.8084  -16.8514  -48.2241 H         1 UNK         0.0600 
    164 H164        0.4318  -15.2101  -45.2904 H         1 UNK         0.3000 
    165 H165        0.8067  -15.4571  -41.7844 H         1 UNK         0.0600 
    166 H166        1.7823  -13.1718  -43.5762 H         1 UNK         0.0600 
    167 H167        1.3117  -13.0340  -41.8830 H         1 UNK         0.0600 
    168 H168        2.7331  -13.9664  -42.3254 H         1 UNK         0.0600 
    169 H169       -0.6256  -13.6648  -43.5301 H         1 UNK         0.3000 
    170 H170       -3.5263  -15.6671  -43.9098 H         1 UNK         0.0600 
    171 H171       -3.7713  -14.8219  -41.5712 H         1 UNK         0.0600 
    172 H172       -3.1099  -13.2661  -42.0596 H         1 UNK         0.0600 
    173 H173       -4.6483  -13.8240  -42.7191 H         1 UNK         0.0600 
    174 H174       -3.2340  -12.9918  -44.5661 H         1 UNK         0.3000 
    175 H175       -2.9156  -13.3810  -47.7201 H         1 UNK         0.0600 
    176 H176       -3.7889  -11.7436  -46.0858 H         1 UNK         0.0600 
    177 H177       -2.7428  -10.9278  -47.2286 H         1 UNK         0.0600 
    178 H178       -2.1534  -11.2823  -45.6099 H         1 UNK         0.0600 
    179 H179       -0.8923  -13.1528  -48.5555 H         1 UNK         0.3000 
    180 H180        1.4031  -13.3578  -48.5950 H         1 UNK         0.0600 
    181 H181        0.4665  -11.2462  -49.4447 H         1 UNK         0.0600 
    182 H182        2.2192  -11.1699  -49.4999 H         1 UNK         0.0600 
    183 H183        1.3361  -10.3163  -48.2339 H         1 UNK         0.0600 
    184 H184        3.2898  -13.3885  -47.5165 H         1 UNK         0.3000 
    185 H185        5.2649  -11.1867  -45.6642 H         1 UNK         0.0600 
    186 H186        5.6552  -13.2656  -44.3255 H         1 UNK         0.0600 
    187 H187        4.1638  -12.4660  -43.8616 H         1 UNK         0.0600 
    188 H188        4.1041  -13.9126  -44.8642 H         1 UNK         0.0600 
    189 H189        5.6081  -13.7977  -46.8607 H         1 UNK         0.3000 
    190 H190       -1.8201  -21.2901  -47.2754 H         1 UNK         0.3000 
    191 H191       -3.6926  -22.5814  -49.1056 H         1 UNK         0.0600 
    192 H192       -4.2226  -20.4187  -47.8891 H         1 UNK         0.0600 
    193 H193       -5.4195  -21.6856  -47.6921 H         1 UNK         0.0600 
    194 H194       -4.3034  -21.3348  -46.3837 H         1 UNK         0.0600 
    195 H195       -2.1101  -23.2554  -46.0092 H         1 UNK         0.3000 
    196 H196       -3.5963  -25.5419  -45.2336 H         1 UNK         0.0600 
    197 H197       -1.6044  -26.0591  -43.8320 H         1 UNK         0.0600 
    198 H198       -2.0284  -24.3578  -43.7175 H         1 UNK         0.0600 
    199 H199       -0.6551  -24.8602  -44.6986 H         1 UNK         0.0600 
    200 H200       -0.6436  -25.2668  -47.2812 H         1 UNK         0.3000 
    201 H201       -0.4002  -28.0216  -47.9327 H         1 UNK         0.0600 
    202 H202        1.4301  -26.3834  -48.2411 H         1 UNK         0.0600 
    203 H203        0.4950  -25.5179  -49.4587 H         1 UNK         0.0600 
    204 H204        1.0597  -27.1552  -49.7756 H         1 UNK         0.0600 
    205 H205       -2.4342  -25.4773  -49.2932 H         1 UNK         0.3000 
    206 H206       -3.3631  -27.0928  -51.5652 H         1 UNK         0.0600 
    207 H207       -2.9935  -24.6151  -51.7618 H         1 UNK         0.0600 
    208 H208       -4.6585  -25.0594  -52.1024 H         1 UNK         0.0600 
    209 H209       -4.2445  -24.3449  -50.5519 H         1 UNK         0.0600 
    210 H210       -3.9973  -27.3552  -48.3562 H         1 UNK         0.3000 
    211 H211       -5.5757  -28.1505  -47.0431 H         1 UNK         0.0600 
    212 H212       -6.8672  -29.3046  -49.5717 H         1 UNK         0.0600 
    213 H213       -7.1133  -29.8659  -47.9235 H         1 UNK         0.0600 
    214 H214       -5.5399  -30.0478  -48.6800 H         1 UNK         0.0600 
    215 H215       -5.8807  -25.4737  -47.9059 H         1 UNK         0.3000 
    216 H216       -7.1217  -23.6988  -47.7493 H         1 UNK         0.0600 
    217 H217       -7.8938  -24.7023  -45.5876 H         1 UNK         0.0600 
    218 H218       -9.2898  -25.3972  -46.4115 H         1 UNK         0.0600 
    219 H219       -9.1060  -23.6535  -46.3016 H         1 UNK         0.0600 
    220 H220       -7.6389  -25.7529  -50.0881 H         1 UNK         0.3000 
    221 H221      -10.2439  -24.9105  -51.0969 H         1 UNK         0.0600 
    222 H222       -7.9851  -26.4694  -52.4568 H         1 UNK         0.0600 
    223 H223       -9.2903  -27.1926  -51.5166 H         1 UNK         0.0600 
    224 H224       -9.6479  -26.3403  -53.0116 H         1 UNK         0.0600 
    225 H225       -7.0254  -23.6051  -51.2134 H         1 UNK         0.3000 
    226 H226       -7.7084  -21.3734  -52.8473 H         1 UNK         0.0600 
    227 H227       -7.3359  -23.0927  -54.6864 H         1 UNK         0.0600 
    228 H228       -6.1016  -21.8556  -54.7180 H         1 UNK         0.0600 
    229 H229       -5.7392  -23.4337  -54.0279 H         1 UNK         0.0600 
    230 H230       -5.3216  -20.3793  -53.4270 H         1 UNK         0.3000 
    231 H231       -3.4548  -19.4243  -52.7961 H         1 UNK         0.0600 
    232 H232       -1.7019  -20.8290  -51.7969 H         1 UNK         0.0600 
    233 H233       -2.6180  -21.7496  -52.9731 H         1 UNK         0.0600 
    234 H234       -2.9017  -21.9970  -51.2552 H         1 UNK         0.0600 
    235 H235       -5.7634  -18.8689  -51.1137 H         1 UNK         0.3000 
    236 H236       -4.9788  -18.2705  -48.4355 H         1 UNK         0.0600 
    237 H237       -7.0036  -16.8127  -48.4852 H         1 UNK         0.0600 
    238 H238       -7.1077  -16.9926  -50.2325 H         1 UNK         0.0600 
    239 H239       -7.3441  -18.3890  -49.1796 H         1 UNK         0.0600 
    240 H240       -3.9459  -16.8890  -51.3498 H         1 UNK         0.3000 
    241 H241       -3.1254  -14.2843  -50.4566 H         1 UNK         0.0600 
    242 H242       -1.8031  -17.5064  -49.7549 H         1 UNK         0.3800 
    243 H243       -0.3007  -16.8811  -49.1139 H         1 UNK         0.3800 
    244 H244       -3.3316  -14.5660  -52.8093 H         1 UNK         0.0800 
    245 H245       -1.6292  -14.4057  -52.5200 H         1 UNK         0.0800 
    246 H246       -0.4517  -17.2314  -54.7240 H         1 UNK         0.0800 
    247 H247       -0.4978  -15.5125  -54.4520 H         1 UNK         0.0800 
@<TRIPOS>BOND
     1    1    2 1    
     2    1  127 1    
     3    1  128 1    
     4    1  129 1    
     5    2    3 2    
     6    2    4 am   BACKBONE|DICT|INTERRES
     7    4    5 1    
     8    4  130 1    
     9    5    6 1    
    10    5   65 1    
    11    5  131 1    
    12    6    7 1    
    13    6  132 1    
    14    6  133 1    
    15    7    8 1    
    16    8    9 1    
    17    8  134 1    
    18    8  135 1    
    19    9   10 ar   
    20    9   14 ar   
    21   10   11 ar   
    22   10  136 1    
    23   11   12 ar   
    24   11  126 1    
    25   12   13 ar   
    26   12  137 1    
    27   13   14 ar   
    28   13   15 1    
    29   14  138 1    
    30   15   16 1    
    31   15  139 1    
    32   15  140 1    
    33   16   17 1    
    34   17   18 1    
    35   17  141 1    
    36   17  142 1    
    37   18   19 1    
    38   18   67 1    
    39   18  143 1    
    40   19   20 am   BACKBONE|DICT|INTERRES
    41   19  144 1    
    42   20   21 2    
    43   20   22 1    
    44   22   23 1    
    45   22   24 1    
    46   22  145 1    
    47   23  146 1    
    48   23  147 1    
    49   23  148 1    
    50   24   25 am   BACKBONE|DICT|INTERRES
    51   24  149 1    
    52   25   26 2    
    53   25   27 1    
    54   27   28 1    
    55   27   29 1    
    56   27  150 1    
    57   28  151 1    
    58   28  152 1    
    59   28  153 1    
    60   29   30 am   BACKBONE|DICT|INTERRES
    61   29  154 1    
    62   30   31 2    
    63   30   32 1    
    64   32   33 1    
    65   32   34 1    
    66   32  155 1    
    67   33  156 1    
    68   33  157 1    
    69   33  158 1    
    70   34   35 am   BACKBONE|DICT|INTERRES
    71   34  159 1    
    72   35   36 2    
    73   35   37 1    
    74   37   38 1    
    75   37   39 1    
    76   37  160 1    
    77   38  161 1    
    78   38  162 1    
    79   38  163 1    
    80   39   40 am   BACKBONE|DICT|INTERRES
    81   39  164 1    
    82   40   41 2    
    83   40   42 1    
    84   42   43 1    
    85   42   44 1    
    86   42  165 1    
    87   43  166 1    
    88   43  167 1    
    89   43  168 1    
    90   44   45 am   BACKBONE|DICT|INTERRES
    91   44  169 1    
    92   45   46 2    
    93   45   47 1    
    94   47   48 1    
    95   47   49 1    
    96   47  170 1    
    97   48  171 1    
    98   48  172 1    
    99   48  173 1    
   100   49   50 am   BACKBONE|DICT|INTERRES
   101   49  174 1    
   102   50   51 2    
   103   50   52 1    
   104   52   53 1    
   105   52   54 1    
   106   52  175 1    
   107   53  176 1    
   108   53  177 1    
   109   53  178 1    
   110   54   55 am   BACKBONE|DICT|INTERRES
   111   54  179 1    
   112   55   56 2    
   113   55   57 1    
   114   57   58 1    
   115   57   59 1    
   116   57  180 1    
   117   58  181 1    
   118   58  182 1    
   119   58  183 1    
   120   59   60 am   BACKBONE|DICT|INTERRES
   121   59  184 1    
   122   60   61 2    
   123   60   62 1    
   124   62   63 1    
   125   62   64 1    
   126   62  185 1    
   127   63  186 1    
   128   63  187 1    
   129   63  188 1    
   130   64   65 am   BACKBONE|DICT|INTERRES
   131   64  189 1    
   132   65   66 2    
   133   67   68 2    
   134   67   69 am   BACKBONE|DICT|INTERRES
   135   69   70 1    
   136   69  190 1    
   137   70   71 1    
   138   70   72 1    
   139   70  191 1    
   140   71  192 1    
   141   71  193 1    
   142   71  194 1    
   143   72   73 2    
   144   72   74 am   BACKBONE|DICT|INTERRES
   145   74   75 1    
   146   74  195 1    
   147   75   76 1    
   148   75   77 1    
   149   75  196 1    
   150   76  197 1    
   151   76  198 1    
   152   76  199 1    
   153   77   78 2    
   154   77   79 am   BACKBONE|DICT|INTERRES
   155   79   80 1    
   156   79  200 1    
   157   80   81 1    
   158   80   82 1    
   159   80  201 1    
   160   81  202 1    
   161   81  203 1    
   162   81  204 1    
   163   82   83 2    
   164   82   84 am   BACKBONE|DICT|INTERRES
   165   84   85 1    
   166   84  205 1    
   167   85   86 1    
   168   85   87 1    
   169   85  206 1    
   170   86  207 1    
   171   86  208 1    
   172   86  209 1    
   173   87   88 2    
   174   87   89 am   BACKBONE|DICT|INTERRES
   175   89   90 1    
   176   89  210 1    
   177   90   91 1    
   178   90   92 1    
   179   90  211 1    
   180   91  212 1    
   181   91  213 1    
   182   91  214 1    
   183   92   93 2    
   184   92   94 am   BACKBONE|DICT|INTERRES
   185   94   95 1    
   186   94  215 1    
   187   95   96 1    
   188   95   97 1    
   189   95  216 1    
   190   96  217 1    
   191   96  218 1    
   192   96  219 1    
   193   97   98 2    
   194   97   99 am   BACKBONE|DICT|INTERRES
   195   99  100 1    
   196   99  220 1    
   197  100  101 1    
   198  100  102 1    
   199  100  221 1    
   200  101  222 1    
   201  101  223 1    
   202  101  224 1    
   203  102  103 2    
   204  102  104 am   BACKBONE|DICT|INTERRES
   205  104  105 1    
   206  104  225 1    
   207  105  106 1    
   208  105  107 1    
   209  105  226 1    
   210  106  227 1    
   211  106  228 1    
   212  106  229 1    
   213  107  108 2    
   214  107  109 am   BACKBONE|DICT|INTERRES
   215  109  110 1    
   216  109  230 1    
   217  110  111 1    
   218  110  112 1    
   219  110  231 1    
   220  111  232 1    
   221  111  233 1    
   222  111  234 1    
   223  112  113 2    
   224  112  114 am   BACKBONE|DICT|INTERRES
   225  114  115 1    
   226  114  235 1    
   227  115  116 1    
   228  115  117 1    
   229  115  236 1    
   230  116  237 1    
   231  116  238 1    
   232  116  239 1    
   233  117  118 2    
   234  117  119 am   BACKBONE|DICT|INTERRES
   235  119  120 1    
   236  119  240 1    
   237  120  121 1    
   238  120  124 1    
   239  120  241 1    
   240  121  122 am   BACKBONE|DICT|INTERRES
   241  121  123 2    
   242  122  242 1    
   243  122  243 1    
   244  124  125 1    
   245  124  244 1    
   246  124  245 1    
   247  125  126 1    
   248  126  246 1    
   249  126  247 1    
@<TRIPOS>SUBSTRUCTURE
     1 UNK         1 GROUP             0       ****    0 ROOT    
