@<TRIPOS>MOLECULE
3R540
247   249    1
SMALL
USER_CHARGES


@<TRIPOS>ATOM
      1 CA         -1.8573   -8.9146  -47.4176 C.3       0 UNK        -0.1800 
      2 C          -1.2442   -9.9885  -46.5322 C.2       0 UNK         0.5000 
      3 O          -0.0306   -9.9957  -46.3295 O.2       0 UNK        -0.5000 
      4 N          -2.0762  -10.8838  -45.9848 N.am      1 UNK        -0.5000 
      5 CA         -1.6884  -12.0401  -45.1599 C.3       1 UNK         0.1400 
      6 C6         -2.8931  -12.9667  -44.8758 C.3       23 UNK        -0.0398 
      7 S7         -3.6045  -13.6646  -46.4044 S.3       23 UNK        -0.2404 
      8 C8         -2.6752  -15.2222  -46.5013 C.3       23 UNK        -0.0205 
      9 C9         -3.1962  -16.1203  -47.6093 C.ar      23 UNK        -0.0193 
     10 C10        -2.7118  -15.9910  -48.9133 C.ar      23 UNK        -0.1150 
     11 C11        -3.1856  -16.8248  -49.9309 C.ar      23 UNK        -0.0193 
     12 C12        -4.1524  -17.7917  -49.6365 C.ar      23 UNK        -0.1150 
     13 C13        -4.6416  -17.9308  -48.3341 C.ar      23 UNK        -0.0193 
     14 C14        -4.1593  -17.0918  -47.3258 C.ar      23 UNK        -0.1150 
     15 C15        -5.6899  -18.9861  -48.0087 C.3       23 UNK        -0.0205 
     16 S16        -5.0217  -20.6794  -48.0624 S.3       23 UNK        -0.2404 
     17 C17        -3.5866  -20.5487  -46.9439 C.3       23 UNK        -0.0398 
     18 CA         -2.9022  -21.9167  -46.7016 C.3       11 UNK         0.1400 
     19 N          -1.4425  -21.7904  -46.6162 N.am      11 UNK        -0.5000 
     20 C          -0.5784  -22.8102  -46.7141 C.2       10 UNK         0.5000 
     21 O          -0.9165  -23.9788  -46.8864 O.2       10 UNK        -0.5000 
     22 CA          0.9157  -22.4824  -46.5503 C.3       10 UNK         0.1400 
     23 CB          1.4987  -21.9186  -47.8545 C.3       10 UNK        -0.1800 
     24 N           1.1720  -21.5628  -45.4413 N.am      10 UNK        -0.5000 
     25 C           0.9016  -21.8405  -44.1574 C.2       9 UNK         0.5000 
     26 O           0.4482  -22.9192  -43.7760 O.2       9 UNK        -0.5000 
     27 CA          1.1197  -20.7120  -43.1344 C.3       9 UNK         0.1400 
     28 CB          2.6028  -20.5952  -42.7537 C.3       9 UNK        -0.1800 
     29 N           0.6281  -19.4193  -43.6104 N.am      9 UNK        -0.5000 
     30 C          -0.6533  -19.1484  -43.8976 C.2       8 UNK         0.5000 
     31 O          -1.5752  -19.9496  -43.7445 O.2       8 UNK        -0.5000 
     32 CA         -0.9447  -17.7692  -44.5163 C.3       8 UNK         0.1400 
     33 CB         -0.9507  -16.6701  -43.4414 C.3       8 UNK        -0.1800 
     34 N           0.0034  -17.4207  -45.5764 N.am      8 UNK        -0.5000 
     35 C           0.1606  -18.1213  -46.7098 C.2       7 UNK         0.5000 
     36 O          -0.5145  -19.1053  -47.0043 O.2       7 UNK        -0.5000 
     37 CA          1.3109  -17.6949  -47.6352 C.3       7 UNK         0.1400 
     38 CB          0.8876  -16.5326  -48.5440 C.3       7 UNK        -0.1800 
     39 N           2.5040  -17.3296  -46.8717 N.am      7 UNK        -0.5000 
     40 C           3.2670  -18.2112  -46.2081 C.2       6 UNK         0.5000 
     41 O           3.0709  -19.4260  -46.2176 O.2       6 UNK        -0.5000 
     42 CA          4.4123  -17.6358  -45.3543 C.3       6 UNK         0.1400 
     43 CB          5.6629  -17.3989  -46.2135 C.3       6 UNK        -0.1800 
     44 N           4.0392  -16.3893  -44.6848 N.am      6 UNK        -0.5000 
     45 C           3.1079  -16.2930  -43.7249 C.2       5 UNK         0.5000 
     46 O           2.5151  -17.2624  -43.2541 O.2       5 UNK        -0.5000 
     47 CA          2.7424  -14.8745  -43.2488 C.3       5 UNK         0.1400 
     48 CB          3.5927  -14.4711  -42.0360 C.3       5 UNK        -0.1800 
     49 N           2.8887  -13.8633  -44.2969 N.am      5 UNK        -0.5000 
     50 C           2.1729  -13.8163  -45.4270 C.2       4 UNK         0.5000 
     51 O           1.3011  -14.6411  -45.7099 O.2       4 UNK        -0.5000 
     52 CA          2.5107  -12.6637  -46.3947 C.3       4 UNK         0.1400 
     53 CB          1.6602  -12.6901  -47.6772 C.3       4 UNK        -0.1800 
     54 N           2.3646  -11.3572  -45.7539 N.am      4 UNK        -0.5000 
     55 C           3.2518  -10.7812  -44.9308 C.2       3 UNK         0.5000 
     56 O           4.3181  -11.3057  -44.6059 O.2       3 UNK        -0.5000 
     57 CA          2.8620   -9.4159  -44.3439 C.3       3 UNK         0.1400 
     58 CB          2.9887   -8.3082  -45.4019 C.3       3 UNK        -0.1800 
     59 N           1.4901   -9.4558  -43.8426 N.am      3 UNK        -0.5000 
     60 C           1.1488   -9.7002  -42.5697 C.2       2 UNK         0.5000 
     61 O           1.9616   -9.8198  -41.6522 O.2       2 UNK        -0.5000 
     62 CA         -0.3568   -9.8510  -42.2687 C.3       2 UNK         0.1400 
     63 CB         -0.9694   -8.4950  -41.8869 C.3       2 UNK        -0.1800 
     64 N          -1.1054  -10.4149  -43.3933 N.am      2 UNK        -0.5000 
     65 C          -0.9699  -11.6710  -43.8425 C.2       1 UNK         0.5000 
     66 O          -0.2899  -12.5231  -43.2713 O.2       1 UNK        -0.5000 
     67 C          -3.5186  -22.6670  -45.5002 C.2       11 UNK         0.5000 
     68 O          -4.5728  -23.2869  -45.6444 O.2       11 UNK        -0.5000 
     69 N          -2.8539  -22.6162  -44.3380 N.am      12 UNK        -0.5000 
     70 CA         -3.1967  -23.4236  -43.1692 C.3       12 UNK         0.1400 
     71 CB         -2.5776  -22.7963  -41.9107 C.3       12 UNK        -0.1800 
     72 C          -2.7481  -24.8882  -43.3368 C.2       12 UNK         0.5000 
     73 O          -3.4833  -25.7953  -42.9451 O.2       12 UNK        -0.5000 
     74 N          -1.5529  -25.0919  -43.9082 N.am      13 UNK        -0.5000 
     75 CA         -0.9432  -26.4033  -44.1260 C.3       13 UNK         0.1400 
     76 CB          0.5543  -26.2255  -44.4210 C.3       13 UNK        -0.1800 
     77 C          -1.6194  -27.2236  -45.2403 C.2       13 UNK         0.5000 
     78 O          -1.7999  -28.4303  -45.0683 O.2       13 UNK        -0.5000 
     79 N          -1.9673  -26.5724  -46.3561 N.am      14 UNK        -0.5000 
     80 CA         -2.5744  -27.1880  -47.5327 C.3       14 UNK         0.1400 
     81 CB         -1.5119  -27.3217  -48.6352 C.3       14 UNK        -0.1800 
     82 C          -3.7449  -26.3300  -48.0252 C.2       14 UNK         0.5000 
     83 O          -3.6611  -25.1012  -47.9905 O.2       14 UNK        -0.5000 
     84 N          -4.8012  -26.9938  -48.5141 N.am      15 UNK        -0.5000 
     85 CA         -6.0097  -26.3748  -49.0624 C.3       15 UNK         0.1400 
     86 CB         -6.9872  -27.4744  -49.5044 C.3       15 UNK        -0.1800 
     87 C          -5.6906  -25.4260  -50.2315 C.2       15 UNK         0.5000 
     88 O          -5.0258  -25.8374  -51.1861 O.2       15 UNK        -0.5000 
     89 N          -6.1238  -24.1639  -50.0995 N.am      16 UNK        -0.5000 
     90 CA         -5.8772  -23.0459  -51.0201 C.3       16 UNK         0.1400 
     91 CB         -6.6601  -23.2553  -52.3322 C.3       16 UNK        -0.1800 
     92 C          -4.3756  -22.7667  -51.2620 C.2       16 UNK         0.5000 
     93 O          -4.0060  -22.2926  -52.3379 O.2       16 UNK        -0.5000 
     94 N          -3.5365  -23.1063  -50.2710 N.am      17 UNK        -0.5000 
     95 CA         -2.0730  -23.0399  -50.2798 C.3       17 UNK         0.1400 
     96 CB         -1.5903  -21.5755  -50.3672 C.3       17 UNK        -0.1800 
     97 C          -1.4238  -23.9518  -51.3408 C.2       17 UNK         0.5000 
     98 O          -0.3059  -23.6730  -51.7753 O.2       17 UNK        -0.5000 
     99 N          -2.1453  -25.0012  -51.7708 N.am      18 UNK        -0.5000 
    100 CA        -1.8361  -25.9764  -52.8286 C.3       18 UNK         0.1400 
    101 CB        -0.5483  -26.7604  -52.5132 C.3       18 UNK        -0.1800 
    102 C         -1.7887  -25.3869  -54.2556 C.2       18 UNK         0.5000 
    103 O         -2.1915  -26.0605  -55.2036 O.2       18 UNK        -0.5000 
    104 N         -1.3285  -24.1388  -54.3849 N.am      19 UNK        -0.5000 
    105 CA        -1.1738  -23.3726  -55.6203 C.3       19 UNK         0.1400 
    106 CB        -0.0437  -22.3513  -55.4040 C.3       19 UNK        -0.1800 
    107 C         -2.4725  -22.6904  -56.1047 C.2       19 UNK         0.5000 
    108 O         -2.3953  -21.7887  -56.9399 O.2       19 UNK        -0.5000 
    109 N         -3.6331  -23.1125  -55.5805 N.am      20 UNK        -0.5000 
    110 CA        -4.9832  -22.6563  -55.9315 C.3       20 UNK         0.1400 
    111 CB        -5.3487  -23.0964  -57.3647 C.3       20 UNK        -0.1800 
    112 C         -5.1674  -21.1438  -55.6960 C.2       20 UNK         0.5000 
    113 O         -5.4523  -20.3936  -56.6313 O.2       20 UNK        -0.5000 
    114 N         -4.9701  -20.7413  -54.4346 N.am      21 UNK        -0.5000 
    115 CA        -4.9743  -19.3732  -53.9166 C.3       21 UNK         0.1400 
    116 CB        -6.3157  -18.6543  -54.1731 C.3       21 UNK        -0.1800 
    117 C         -3.7383  -18.5891  -54.3914 C.2       21 UNK         0.5000 
    118 O         -3.8580  -17.4598  -54.8699 O.2       21 UNK        -0.5000 
    119 N         -2.5661  -19.2092  -54.2005 N.am      22 UNK        -0.5000 
    120 CA        -1.2317  -18.6146  -54.3960 C.3       22 UNK         0.1400 
    121 C         -0.8707  -18.3058  -55.8820 C.2       22 UNK         0.5000 
    122 N         -1.3978  -19.0369  -56.8559 N.am      22 UNK        -0.7600 
    123 O         -0.0852  -17.4050  -56.1661 O.2       22 UNK        -0.5000 
    124 C124       -0.9570  -17.4097  -53.4476 C.3       23 UNK        -0.0398 
    125 S125       -1.2710  -17.7838  -51.6854 S.3       23 UNK        -0.2404 
    126 C126       -2.6688  -16.6677  -51.3510 C.3       23 UNK        -0.0205 
    127 H127       -1.6423   -7.9265  -47.0110 H         1 UNK         0.0600 
    128 H128       -1.4341   -8.9715  -48.4203 H         1 UNK         0.0600 
    129 H129       -2.9391   -9.0234  -47.4973 H         1 UNK         0.0600 
    130 H130       -3.0625  -10.8231  -46.1954 H         1 UNK         0.3000 
    131 H131       -0.9625  -12.6140  -45.7381 H         1 UNK         0.0600 
    132 H132       -2.6113  -13.7856  -44.2116 H         1 UNK         0.0800 
    133 H133       -3.6785  -12.4177  -44.3534 H         1 UNK         0.0800 
    134 H134       -2.7649  -15.7381  -45.5469 H         1 UNK         0.0800 
    135 H135       -1.6140  -15.0135  -46.6482 H         1 UNK         0.0800 
    136 H136       -1.9671  -15.2396  -49.1356 H         1 UNK         0.1150 
    137 H137       -4.5191  -18.4422  -50.4179 H         1 UNK         0.1150 
    138 H138       -4.5335  -17.1944  -46.3169 H         1 UNK         0.1150 
    139 H139       -6.1228  -18.8088  -47.0230 H         1 UNK         0.0800 
    140 H140       -6.5122  -18.9079  -48.7210 H         1 UNK         0.0800 
    141 H141       -3.8743  -20.0623  -46.0098 H         1 UNK         0.0800 
    142 H142       -2.8913  -19.8668  -47.4318 H         1 UNK         0.0800 
    143 H143       -3.0900  -22.5436  -47.5722 H         1 UNK         0.0600 
    144 H144       -1.0740  -20.8461  -46.5275 H         1 UNK         0.3000 
    145 H145        1.4361  -23.4163  -46.3287 H         1 UNK         0.0600 
    146 H146        2.5718  -21.7492  -47.7660 H         1 UNK         0.0600 
    147 H147        1.3459  -22.6135  -48.6813 H         1 UNK         0.0600 
    148 H148        1.0326  -20.9737  -48.1318 H         1 UNK         0.0600 
    149 H149        1.5904  -20.6684  -45.6763 H         1 UNK         0.3000 
    150 H150        0.5578  -20.9686  -42.2340 H         1 UNK         0.0600 
    151 H151        2.9841  -21.5437  -42.3734 H         1 UNK         0.0600 
    152 H152        2.7513  -19.8482  -41.9737 H         1 UNK         0.0600 
    153 H153        3.2180  -20.3121  -43.6079 H         1 UNK         0.0600 
    154 H154        1.3180  -18.6796  -43.7106 H         1 UNK         0.3000 
    155 H155       -1.9370  -17.8184  -44.9681 H         1 UNK         0.0600 
    156 H156       -0.0360  -16.6752  -42.8497 H         1 UNK         0.0600 
    157 H157       -1.7829  -16.8108  -42.7510 H         1 UNK         0.0600 
    158 H158       -1.0506  -15.6773  -43.8792 H         1 UNK         0.0600 
    159 H159        0.5840  -16.6027  -45.4295 H         1 UNK         0.3000 
    160 H160        1.5627  -18.5439  -48.2742 H         1 UNK         0.0600 
    161 H161        1.7089  -16.2045  -49.1810 H         1 UNK         0.0600 
    162 H162        0.5348  -15.6740  -47.9742 H         1 UNK         0.0600 
    163 H163        0.0731  -16.8407  -49.1987 H         1 UNK         0.0600 
    164 H164        2.6900  -16.3434  -46.7659 H         1 UNK         0.3000 
    165 H165        4.6589  -18.3728  -44.5871 H         1 UNK         0.0600 
    166 H166        6.5015  -17.0612  -45.6042 H         1 UNK         0.0600 
    167 H167        5.9737  -18.3187  -46.7109 H         1 UNK         0.0600 
    168 H168        5.4865  -16.6506  -46.9872 H         1 UNK         0.0600 
    169 H169        4.4854  -15.5434  -45.0071 H         1 UNK         0.3000 
    170 H170        1.6941  -14.8864  -42.9436 H         1 UNK         0.0600 
    171 H171        3.4856  -15.1941  -41.2262 H         1 UNK         0.0600 
    172 H172        4.6523  -14.4127  -42.2881 H         1 UNK         0.0600 
    173 H173        3.2858  -13.4999  -41.6468 H         1 UNK         0.0600 
    174 H174        3.5716  -13.1292  -44.1415 H         1 UNK         0.3000 
    175 H175        3.5533  -12.7908  -46.6930 H         1 UNK         0.0600 
    176 H176        0.5946  -12.6124  -47.4631 H         1 UNK         0.0600 
    177 H177        1.9256  -11.8678  -48.3419 H         1 UNK         0.0600 
    178 H178        1.8188  -13.6152  -48.2313 H         1 UNK         0.0600 
    179 H179        1.5015  -10.8581  -45.9604 H         1 UNK         0.3000 
    180 H180        3.5549   -9.1850  -43.5320 H         1 UNK         0.0600 
    181 H181        2.3182   -8.4720  -46.2465 H         1 UNK         0.0600 
    182 H182        4.0052   -8.2584  -45.7940 H         1 UNK         0.0600 
    183 H183        2.7561   -7.3319  -44.9765 H         1 UNK         0.0600 
    184 H184        0.7599   -9.4247  -44.5450 H         1 UNK         0.3000 
    185 H185       -0.4598  -10.5261  -41.4164 H         1 UNK         0.0600 
    186 H186       -0.4476   -8.0575  -41.0347 H         1 UNK         0.0600 
    187 H187       -0.9115   -7.7807  -42.7092 H         1 UNK         0.0600 
    188 H188       -2.0173   -8.6004  -41.6056 H         1 UNK         0.0600 
    189 H189       -1.6906   -9.7805  -43.9168 H         1 UNK         0.3000 
    190 H190       -2.0356  -22.0234  -44.2665 H         1 UNK         0.3000 
    191 H191       -4.2817  -23.4168  -43.0448 H         1 UNK         0.0600 
    192 H192       -1.4891  -22.7765  -41.9587 H         1 UNK         0.0600 
    193 H193       -2.8558  -23.3589  -41.0187 H         1 UNK         0.0600 
    194 H194       -2.9232  -21.7718  -41.7712 H         1 UNK         0.0600 
    195 H195       -0.9878  -24.2860  -44.1546 H         1 UNK         0.3000 
    196 H196       -1.0336  -26.9719  -43.1981 H         1 UNK         0.0600 
    197 H197        0.7194  -25.6400  -45.3258 H         1 UNK         0.0600 
    198 H198        1.0430  -27.1905  -44.5604 H         1 UNK         0.0600 
    199 H199        1.0609  -25.7199  -43.5988 H         1 UNK         0.0600 
    200 H200       -1.7853  -25.5727  -46.4355 H         1 UNK         0.3000 
    201 H201       -2.9572  -28.1811  -47.2884 H         1 UNK         0.0600 
    202 H202       -1.9358  -27.7755  -49.5317 H         1 UNK         0.0600 
    203 H203       -0.6834  -27.9512  -48.3107 H         1 UNK         0.0600 
    204 H204       -1.1036  -26.3502  -48.9184 H         1 UNK         0.0600 
    205 H205       -4.7704  -28.0023  -48.5430 H         1 UNK         0.3000 
    206 H206       -6.4782  -25.8037  -48.2582 H         1 UNK         0.0600 
    207 H207       -7.2668  -28.1150  -48.6678 H         1 UNK         0.0600 
    208 H208       -7.9060  -27.0421  -49.9029 H         1 UNK         0.0600 
    209 H209       -6.5573  -28.1059  -50.2830 H         1 UNK         0.0600 
    210 H210       -6.6298  -23.9214  -49.2587 H         1 UNK         0.3000 
    211 H211       -6.2768  -22.1545  -50.5352 H         1 UNK         0.0600 
    212 H212       -6.2347  -24.0599  -52.9328 H         1 UNK         0.0600 
    213 H213       -6.6585  -22.3501  -52.9385 H         1 UNK         0.0600 
    214 H214       -7.7030  -23.5023  -52.1338 H         1 UNK         0.0600 
    215 H215       -3.9315  -23.5491  -49.4482 H         1 UNK         0.3000 
    216 H216       -1.7486  -23.4425  -49.3226 H         1 UNK         0.0600 
    217 H217       -1.8121  -21.1302  -51.3373 H         1 UNK         0.0600 
    218 H218       -0.5127  -21.5070  -50.2176 H         1 UNK         0.0600 
    219 H219       -2.0593  -20.9566  -49.6025 H         1 UNK         0.0600 
    220 H220       -3.0757  -25.1087  -51.3797 H         1 UNK         0.3000 
    221 H221       -2.6638  -26.6874  -52.8158 H         1 UNK         0.0600 
    222 H222        0.3365  -26.1243  -52.5443 H         1 UNK         0.0600 
    223 H223       -0.5954  -27.2206  -51.5270 H         1 UNK         0.0600 
    224 H224       -0.3958  -27.5613  -53.2376 H         1 UNK         0.0600 
    225 H225       -0.9878  -23.6956  -53.5368 H         1 UNK         0.3000 
    226 H226       -0.8637  -24.0535  -56.4153 H         1 UNK         0.0600 
    227 H227        0.8904  -22.8500  -55.1449 H         1 UNK         0.0600 
    228 H228        0.1461  -21.7631  -56.3027 H         1 UNK         0.0600 
    229 H229       -0.2846  -21.6596  -54.5974 H         1 UNK         0.0600 
    230 H230       -3.5819  -23.8293  -54.8715 H         1 UNK         0.3000 
    231 H231       -5.6694  -23.1632  -55.2521 H         1 UNK         0.0600 
    232 H232       -5.2502  -24.1756  -57.4816 H         1 UNK         0.0600 
    233 H233       -4.7146  -22.6197  -58.1128 H         1 UNK         0.0600 
    234 H234       -6.3817  -22.8373  -57.5995 H         1 UNK         0.0600 
    235 H235       -4.6748  -21.4419  -53.7552 H         1 UNK         0.3000 
    236 H236       -4.8690  -19.4678  -52.8345 H         1 UNK         0.0600 
    237 H237       -6.3500  -17.7025  -53.6419 H         1 UNK         0.0600 
    238 H238       -6.4720  -18.4390  -55.2302 H         1 UNK         0.0600 
    239 H239       -7.1568  -19.2523  -53.8227 H         1 UNK         0.0600 
    240 H240       -2.5794  -20.1399  -53.8106 H         1 UNK         0.3000 
    241 H241       -0.5267  -19.3927  -54.1057 H         1 UNK         0.0600 
    242 H242       -1.9891  -19.8389  -56.6669 H         1 UNK         0.3800 
    243 H243       -1.1523  -18.8265  -57.8097 H         1 UNK         0.3800 
    244 H244        0.0868  -17.1020  -53.5268 H         1 UNK         0.0800 
    245 H245       -1.5446  -16.5431  -53.7538 H         1 UNK         0.0800 
    246 H246       -2.3550  -15.6369  -51.5228 H         1 UNK         0.0800 
    247 H247       -3.4761  -16.8634  -52.0567 H         1 UNK         0.0800 
@<TRIPOS>BOND
     1    1    2 1    
     2    1  127 1    
     3    1  128 1    
     4    1  129 1    
     5    2    3 2    
     6    2    4 am   BACKBONE|DICT|INTERRES
     7    4    5 1    
     8    4  130 1    
     9    5    6 1    
    10    5   65 1    
    11    5  131 1    
    12    6    7 1    
    13    6  132 1    
    14    6  133 1    
    15    7    8 1    
    16    8    9 1    
    17    8  134 1    
    18    8  135 1    
    19    9   10 ar   
    20    9   14 ar   
    21   10   11 ar   
    22   10  136 1    
    23   11   12 ar   
    24   11  126 1    
    25   12   13 ar   
    26   12  137 1    
    27   13   14 ar   
    28   13   15 1    
    29   14  138 1    
    30   15   16 1    
    31   15  139 1    
    32   15  140 1    
    33   16   17 1    
    34   17   18 1    
    35   17  141 1    
    36   17  142 1    
    37   18   19 1    
    38   18   67 1    
    39   18  143 1    
    40   19   20 am   BACKBONE|DICT|INTERRES
    41   19  144 1    
    42   20   21 2    
    43   20   22 1    
    44   22   23 1    
    45   22   24 1    
    46   22  145 1    
    47   23  146 1    
    48   23  147 1    
    49   23  148 1    
    50   24   25 am   BACKBONE|DICT|INTERRES
    51   24  149 1    
    52   25   26 2    
    53   25   27 1    
    54   27   28 1    
    55   27   29 1    
    56   27  150 1    
    57   28  151 1    
    58   28  152 1    
    59   28  153 1    
    60   29   30 am   BACKBONE|DICT|INTERRES
    61   29  154 1    
    62   30   31 2    
    63   30   32 1    
    64   32   33 1    
    65   32   34 1    
    66   32  155 1    
    67   33  156 1    
    68   33  157 1    
    69   33  158 1    
    70   34   35 am   BACKBONE|DICT|INTERRES
    71   34  159 1    
    72   35   36 2    
    73   35   37 1    
    74   37   38 1    
    75   37   39 1    
    76   37  160 1    
    77   38  161 1    
    78   38  162 1    
    79   38  163 1    
    80   39   40 am   BACKBONE|DICT|INTERRES
    81   39  164 1    
    82   40   41 2    
    83   40   42 1    
    84   42   43 1    
    85   42   44 1    
    86   42  165 1    
    87   43  166 1    
    88   43  167 1    
    89   43  168 1    
    90   44   45 am   BACKBONE|DICT|INTERRES
    91   44  169 1    
    92   45   46 2    
    93   45   47 1    
    94   47   48 1    
    95   47   49 1    
    96   47  170 1    
    97   48  171 1    
    98   48  172 1    
    99   48  173 1    
   100   49   50 am   BACKBONE|DICT|INTERRES
   101   49  174 1    
   102   50   51 2    
   103   50   52 1    
   104   52   53 1    
   105   52   54 1    
   106   52  175 1    
   107   53  176 1    
   108   53  177 1    
   109   53  178 1    
   110   54   55 am   BACKBONE|DICT|INTERRES
   111   54  179 1    
   112   55   56 2    
   113   55   57 1    
   114   57   58 1    
   115   57   59 1    
   116   57  180 1    
   117   58  181 1    
   118   58  182 1    
   119   58  183 1    
   120   59   60 am   BACKBONE|DICT|INTERRES
   121   59  184 1    
   122   60   61 2    
   123   60   62 1    
   124   62   63 1    
   125   62   64 1    
   126   62  185 1    
   127   63  186 1    
   128   63  187 1    
   129   63  188 1    
   130   64   65 am   BACKBONE|DICT|INTERRES
   131   64  189 1    
   132   65   66 2    
   133   67   68 2    
   134   67   69 am   BACKBONE|DICT|INTERRES
   135   69   70 1    
   136   69  190 1    
   137   70   71 1    
   138   70   72 1    
   139   70  191 1    
   140   71  192 1    
   141   71  193 1    
   142   71  194 1    
   143   72   73 2    
   144   72   74 am   BACKBONE|DICT|INTERRES
   145   74   75 1    
   146   74  195 1    
   147   75   76 1    
   148   75   77 1    
   149   75  196 1    
   150   76  197 1    
   151   76  198 1    
   152   76  199 1    
   153   77   78 2    
   154   77   79 am   BACKBONE|DICT|INTERRES
   155   79   80 1    
   156   79  200 1    
   157   80   81 1    
   158   80   82 1    
   159   80  201 1    
   160   81  202 1    
   161   81  203 1    
   162   81  204 1    
   163   82   83 2    
   164   82   84 am   BACKBONE|DICT|INTERRES
   165   84   85 1    
   166   84  205 1    
   167   85   86 1    
   168   85   87 1    
   169   85  206 1    
   170   86  207 1    
   171   86  208 1    
   172   86  209 1    
   173   87   88 2    
   174   87   89 am   BACKBONE|DICT|INTERRES
   175   89   90 1    
   176   89  210 1    
   177   90   91 1    
   178   90   92 1    
   179   90  211 1    
   180   91  212 1    
   181   91  213 1    
   182   91  214 1    
   183   92   93 2    
   184   92   94 am   BACKBONE|DICT|INTERRES
   185   94   95 1    
   186   94  215 1    
   187   95   96 1    
   188   95   97 1    
   189   95  216 1    
   190   96  217 1    
   191   96  218 1    
   192   96  219 1    
   193   97   98 2    
   194   97   99 am   BACKBONE|DICT|INTERRES
   195   99  100 1    
   196   99  220 1    
   197  100  101 1    
   198  100  102 1    
   199  100  221 1    
   200  101  222 1    
   201  101  223 1    
   202  101  224 1    
   203  102  103 2    
   204  102  104 am   BACKBONE|DICT|INTERRES
   205  104  105 1    
   206  104  225 1    
   207  105  106 1    
   208  105  107 1    
   209  105  226 1    
   210  106  227 1    
   211  106  228 1    
   212  106  229 1    
   213  107  108 2    
   214  107  109 am   BACKBONE|DICT|INTERRES
   215  109  110 1    
   216  109  230 1    
   217  110  111 1    
   218  110  112 1    
   219  110  231 1    
   220  111  232 1    
   221  111  233 1    
   222  111  234 1    
   223  112  113 2    
   224  112  114 am   BACKBONE|DICT|INTERRES
   225  114  115 1    
   226  114  235 1    
   227  115  116 1    
   228  115  117 1    
   229  115  236 1    
   230  116  237 1    
   231  116  238 1    
   232  116  239 1    
   233  117  118 2    
   234  117  119 am   BACKBONE|DICT|INTERRES
   235  119  120 1    
   236  119  240 1    
   237  120  121 1    
   238  120  124 1    
   239  120  241 1    
   240  121  122 am   BACKBONE|DICT|INTERRES
   241  121  123 2    
   242  122  242 1    
   243  122  243 1    
   244  124  125 1    
   245  124  244 1    
   246  124  245 1    
   247  125  126 1    
   248  126  246 1    
   249  126  247 1    
@<TRIPOS>SUBSTRUCTURE
     1 UNK         1 GROUP             0       ****    0 ROOT    
