@<TRIPOS>MOLECULE
3R540
247   249    1
SMALL
USER_CHARGES


@<TRIPOS>ATOM
      1 CA         -3.9169  -15.7628  -43.6267 C.3       0 UNK        -0.1800 
      2 C          -2.4382  -15.6084  -43.9488 C.2       0 UNK         0.5000 
      3 O          -1.6743  -16.5547  -43.7714 O.2       0 UNK        -0.5000 
      4 N          -2.0289  -14.4145  -44.3987 N.am      1 UNK        -0.5000 
      5 CA         -0.6808  -14.0181  -44.8466 C.3       1 UNK         0.1400 
      6 C6         -0.1283  -14.8602  -46.0253 C.3       23 UNK        -0.0398 
      7 S7         -1.2090  -14.7722  -47.4915 S.3       23 UNK        -0.2404 
      8 C8         -1.7670  -16.4963  -47.6768 C.3       23 UNK        -0.0205 
      9 C9         -1.0952  -17.1767  -48.8602 C.ar      23 UNK        -0.0193 
     10 C10        -1.4556  -16.8145  -50.1604 C.ar      23 UNK        -0.1150 
     11 C11        -0.8754  -17.4471  -51.2609 C.ar      23 UNK        -0.0193 
     12 C12         0.0539  -18.4702  -51.0537 C.ar      23 UNK        -0.1150 
     13 C13         0.4281  -18.8491  -49.7600 C.ar      23 UNK        -0.0193 
     14 C14        -0.1387  -18.1781  -48.6667 C.ar      23 UNK        -0.1150 
     15 C15         1.4576  -19.9713  -49.5940 C.3       23 UNK        -0.0205 
     16 S16         1.3019  -20.9775  -48.0747 S.3       23 UNK        -0.2404 
     17 C17        -0.4619  -21.4339  -48.1289 C.3       23 UNK        -0.0398 
     18 CA         -0.8111  -22.7341  -47.3722 C.3       11 UNK         0.1400 
     19 N          -0.3490  -22.7204  -45.9810 N.am      11 UNK        -0.5000 
     20 C          -0.4664  -23.7427  -45.1208 C.2       10 UNK         0.5000 
     21 O          -0.9342  -24.8371  -45.4304 O.2       10 UNK        -0.5000 
     22 CA         -0.0473  -23.4991  -43.6587 C.3       10 UNK         0.1400 
     23 CB          1.3504  -24.0812  -43.4030 C.3       10 UNK        -0.1800 
     24 N          -0.0563  -22.0919  -43.2549 N.am      10 UNK        -0.5000 
     25 C          -1.1077  -21.2581  -43.2867 C.2       9 UNK         0.5000 
     26 O          -2.2321  -21.5931  -43.6620 O.2       9 UNK        -0.5000 
     27 CA         -0.8388  -19.7966  -42.8731 C.3       9 UNK         0.1400 
     28 CB         -1.3131  -19.5409  -41.4351 C.3       9 UNK        -0.1800 
     29 N           0.5791  -19.4344  -42.9877 N.am      9 UNK        -0.5000 
     30 C           1.2055  -19.2462  -44.1563 C.2       8 UNK         0.5000 
     31 O           0.6342  -19.2799  -45.2469 O.2       8 UNK        -0.5000 
     32 CA          2.7362  -19.0947  -44.0938 C.3       8 UNK         0.1400 
     33 CB          3.4047  -20.4770  -44.1689 C.3       8 UNK        -0.1800 
     34 N           3.2447  -18.2693  -45.1877 N.am      8 UNK        -0.5000 
     35 C           3.1352  -16.9384  -45.2249 C.2       7 UNK         0.5000 
     36 O           2.6546  -16.2703  -44.3060 O.2       7 UNK        -0.5000 
     37 CA          3.6556  -16.2312  -46.4859 C.3       7 UNK         0.1400 
     38 CB          2.8202  -16.6081  -47.7262 C.3       7 UNK        -0.1800 
     39 N           3.5989  -14.7956  -46.2330 N.am      7 UNK        -0.5000 
     40 C           4.0954  -13.8098  -46.9856 C.2       6 UNK         0.5000 
     41 O           4.7018  -13.9870  -48.0425 O.2       6 UNK        -0.5000 
     42 CA          3.8845  -12.3784  -46.4597 C.3       6 UNK         0.1400 
     43 CB          2.5999  -11.7670  -47.0411 C.3       6 UNK        -0.1800 
     44 N           3.8141  -12.3187  -44.9993 N.am      6 UNK        -0.5000 
     45 C           4.8774  -12.3189  -44.1832 C.2       5 UNK         0.5000 
     46 O           6.0395  -12.4128  -44.5822 O.2       5 UNK        -0.5000 
     47 CA          4.5837  -12.1801  -42.6723 C.3       5 UNK         0.1400 
     48 CB          5.7823  -11.6383  -41.8667 C.3       5 UNK        -0.1800 
     49 N           3.3709  -11.4003  -42.4025 N.am      5 UNK        -0.5000 
     50 C           3.1227  -10.1190  -42.7173 C.2       4 UNK         0.5000 
     51 O           3.9631   -9.3482  -43.1819 O.2       4 UNK        -0.5000 
     52 CA          1.6757   -9.6232  -42.5215 C.3       4 UNK         0.1400 
     53 CB          1.0093   -9.3847  -43.8870 C.3       4 UNK        -0.1800 
     54 N           0.8581  -10.5804  -41.7735 N.am      4 UNK        -0.5000 
     55 C           0.6729  -10.5616  -40.4467 C.2       3 UNK         0.5000 
     56 O           1.1161   -9.6852  -39.7039 O.2       3 UNK        -0.5000 
     57 CA         -0.1264  -11.7357  -39.8459 C.3       3 UNK         0.1400 
     58 CB         -1.6230  -11.3942  -39.7862 C.3       3 UNK        -0.1800 
     59 N           0.0488  -12.9871  -40.5880 N.am      3 UNK        -0.5000 
     60 C           1.1933  -13.6816  -40.6579 C.2       2 UNK         0.5000 
     61 O           2.2233  -13.3625  -40.0651 O.2       2 UNK        -0.5000 
     62 CA          1.2080  -14.9097  -41.5844 C.3       2 UNK         0.1400 
     63 CB          0.8886  -16.1882  -40.7972 C.3       2 UNK        -0.1800 
     64 N           0.2856  -14.8044  -42.7158 N.am      2 UNK        -0.5000 
     65 C           0.3644  -13.9177  -43.7149 C.2       1 UNK         0.5000 
     66 O           1.2100  -13.0218  -43.7608 O.2       1 UNK        -0.5000 
     67 C          -2.3314  -22.9757  -47.4853 C.2       11 UNK         0.5000 
     68 O          -2.7695  -23.5883  -48.4588 O.2       11 UNK        -0.5000 
     69 N          -3.1101  -22.4928  -46.5056 N.am      12 UNK        -0.5000 
     70 CA         -4.5561  -22.7000  -46.4416 C.3       12 UNK         0.1400 
     71 CB         -5.1863  -21.6553  -45.5092 C.3       12 UNK        -0.1800 
     72 C          -4.9038  -24.1273  -45.9871 C.2       12 UNK         0.5000 
     73 O          -5.8196  -24.7326  -46.5429 O.2       12 UNK        -0.5000 
     74 N          -4.1403  -24.6535  -45.0182 N.am      13 UNK        -0.5000 
     75 CA         -4.2727  -26.0169  -44.4972 C.3       13 UNK         0.1400 
     76 CB         -3.4375  -26.1572  -43.2152 C.3       13 UNK        -0.1800 
     77 C          -3.8719  -27.0843  -45.5327 C.2       13 UNK         0.5000 
     78 O          -4.5362  -28.1156  -45.6374 O.2       13 UNK        -0.5000 
     79 N          -2.8160  -26.7951  -46.3046 N.am      14 UNK        -0.5000 
     80 CA         -2.3356  -27.6078  -47.4236 C.3       14 UNK         0.1400 
     81 CB         -0.9011  -27.1692  -47.7610 C.3       14 UNK        -0.1800 
     82 C          -3.2254  -27.5139  -48.6805 C.2       14 UNK         0.5000 
     83 O          -3.0408  -28.3078  -49.6033 O.2       14 UNK        -0.5000 
     84 N          -4.1410  -26.5325  -48.7082 N.am      15 UNK        -0.5000 
     85 CA         -5.0324  -26.1599  -49.8132 C.3       15 UNK         0.1400 
     86 CB         -5.9974  -27.3088  -50.1708 C.3       15 UNK        -0.1800 
     87 C          -4.2872  -25.5981  -51.0441 C.2       15 UNK         0.5000 
     88 O          -4.8522  -25.5478  -52.1368 O.2       15 UNK        -0.5000 
     89 N          -3.0479  -25.1357  -50.8389 N.am      16 UNK        -0.5000 
     90 CA         -2.2157  -24.4769  -51.8407 C.3       16 UNK         0.1400 
     91 CB         -0.7594  -24.4461  -51.3523 C.3       16 UNK        -0.1800 
     92 C          -2.7179  -23.0569  -52.1409 C.2       16 UNK         0.5000 
     93 O          -2.7495  -22.6610  -53.3050 O.2       16 UNK        -0.5000 
     94 N          -3.1322  -22.3301  -51.0932 N.am      17 UNK        -0.5000 
     95 CA         -3.7338  -20.9979  -51.2077 C.3       17 UNK         0.1400 
     96 CB         -3.6038  -20.2552  -49.8688 C.3       17 UNK        -0.1800 
     97 C          -5.2059  -21.0493  -51.6616 C.2       17 UNK         0.5000 
     98 O          -5.7228  -20.0493  -52.1587 O.2       17 UNK        -0.5000 
     99 N          -5.8567  -22.2074  -51.4782 N.am      18 UNK        -0.5000 
    100 CA        -7.2271  -22.4682  -51.9205 C.3       18 UNK         0.1400 
    101 CB        -7.8017  -23.6475  -51.1207 C.3       18 UNK        -0.1800 
    102 C         -7.3167  -22.7411  -53.4346 C.2       18 UNK         0.5000 
    103 O         -8.3689  -22.5007  -54.0284 O.2       18 UNK        -0.5000 
    104 N         -6.2220  -23.2315  -54.0337 N.am      19 UNK        -0.5000 
    105 CA        -6.0764  -23.4221  -55.4750 C.3       19 UNK         0.1400 
    106 CB        -4.8322  -24.2828  -55.7430 C.3       19 UNK        -0.1800 
    107 C         -5.9618  -22.0705  -56.2021 C.2       19 UNK         0.5000 
    108 O         -5.3828  -21.1289  -55.6563 O.2       19 UNK        -0.5000 
    109 N         -6.4790  -22.0101  -57.4364 N.am      20 UNK        -0.5000 
    110 CA        -6.5469  -20.8000  -58.2656 C.3       20 UNK         0.1400 
    111 CB        -7.3418  -21.1140  -59.5424 C.3       20 UNK        -0.1800 
    112 C         -5.1779  -20.1854  -58.6221 C.2       20 UNK         0.5000 
    113 O         -5.0976  -18.9776  -58.8496 O.2       20 UNK        -0.5000 
    114 N         -4.1285  -21.0180  -58.6495 N.am      21 UNK        -0.5000 
    115 CA        -2.7411  -20.6009  -58.8580 C.3       21 UNK         0.1400 
    116 CB        -1.9001  -21.8387  -59.2073 C.3       21 UNK        -0.1800 
    117 C         -2.1349  -19.8668  -57.6436 C.2       21 UNK         0.5000 
    118 O         -1.2075  -19.0785  -57.8273 O.2       21 UNK        -0.5000 
    119 N         -2.6687  -20.1374  -56.4436 N.am      22 UNK        -0.5000 
    120 CA        -2.2238  -19.6425  -55.1345 C.3       22 UNK         0.1400 
    121 C         -0.7548  -20.0433  -54.8092 C.2       22 UNK         0.5000 
    122 N         -0.5424  -21.2361  -54.2744 N.am      22 UNK        -0.7600 
    123 O          0.1911  -19.2925  -55.0334 O.2       22 UNK        -0.5000 
    124 C124       -2.5166  -18.1304  -54.9370 C.3       23 UNK        -0.0398 
    125 S125       -2.8335  -17.7327  -53.1845 S.3       23 UNK        -0.2404 
    126 C126       -1.2433  -17.0159  -52.6713 C.3       23 UNK        -0.0205 
    127 H127       -4.3506  -16.5549  -44.2370 H         1 UNK         0.0600 
    128 H128       -4.4721  -14.8439  -43.8161 H         1 UNK         0.0600 
    129 H129       -4.0459  -16.0297  -42.5778 H         1 UNK         0.0600 
    130 H130       -2.7215  -13.6844  -44.4894 H         1 UNK         0.3000 
    131 H131       -0.7999  -12.9973  -45.2140 H         1 UNK         0.0600 
    132 H132        0.8458  -14.4808  -46.3321 H         1 UNK         0.0800 
    133 H133        0.0376  -15.8964  -45.7264 H         1 UNK         0.0800 
    134 H134       -1.6056  -17.0619  -46.7577 H         1 UNK         0.0800 
    135 H135       -2.8458  -16.4948  -47.8382 H         1 UNK         0.0800 
    136 H136       -2.1875  -16.0342  -50.3158 H         1 UNK         0.1150 
    137 H137        0.4934  -18.9682  -51.9071 H         1 UNK         0.1150 
    138 H138        0.1507  -18.4437  -47.6603 H         1 UNK         0.1150 
    139 H139        1.4015  -20.6497  -50.4469 H         1 UNK         0.0800 
    140 H140        2.4551  -19.5317  -49.6179 H         1 UNK         0.0800 
    141 H141       -0.7523  -21.5263  -49.1772 H         1 UNK         0.0800 
    142 H142       -1.0322  -20.5993  -47.7179 H         1 UNK         0.0800 
    143 H143       -0.3103  -23.5660  -47.8714 H         1 UNK         0.0600 
    144 H144        0.0530  -21.8516  -45.6563 H         1 UNK         0.3000 
    145 H145       -0.7622  -24.0266  -43.0244 H         1 UNK         0.0600 
    146 H146        1.6286  -23.9966  -42.3524 H         1 UNK         0.0600 
    147 H147        1.3859  -25.1404  -43.6620 H         1 UNK         0.0600 
    148 H148        2.1123  -23.5730  -43.9957 H         1 UNK         0.0600 
    149 H149        0.8220  -21.7193  -42.9292 H         1 UNK         0.3000 
    150 H150       -1.4197  -19.1606  -43.5434 H         1 UNK         0.0600 
    151 H151       -0.7477  -20.1291  -40.7114 H         1 UNK         0.0600 
    152 H152       -2.3663  -19.8005  -41.3201 H         1 UNK         0.0600 
    153 H153       -1.2106  -18.4885  -41.1705 H         1 UNK         0.0600 
    154 H154        1.1071  -19.3965  -42.1280 H         1 UNK         0.3000 
    155 H155        3.0075  -18.6271  -43.1446 H         1 UNK         0.0600 
    156 H156        3.1459  -20.9998  -45.0912 H         1 UNK         0.0600 
    157 H157        3.0970  -21.1093  -43.3355 H         1 UNK         0.0600 
    158 H158        4.4907  -20.3930  -44.1248 H         1 UNK         0.0600 
    159 H159        3.6042  -18.7610  -45.9924 H         1 UNK         0.3000 
    160 H160        4.6968  -16.5212  -46.6382 H         1 UNK         0.0600 
    161 H161        1.7815  -16.2979  -47.6222 H         1 UNK         0.0600 
    162 H162        2.8229  -17.6854  -47.8923 H         1 UNK         0.0600 
    163 H163        3.2131  -16.1488  -48.6326 H         1 UNK         0.0600 
    164 H164        3.1613  -14.5689  -45.3474 H         1 UNK         0.3000 
    165 H165        4.7288  -11.7738  -46.7981 H         1 UNK         0.0600 
    166 H166        2.5001  -10.7202  -46.7536 H         1 UNK         0.0600 
    167 H167        2.6057  -11.8054  -48.1311 H         1 UNK         0.0600 
    168 H168        1.7087  -12.2920  -46.6975 H         1 UNK         0.0600 
    169 H169        2.8887  -12.2932  -44.5830 H         1 UNK         0.3000 
    170 H170        4.3769  -13.1896  -42.3139 H         1 UNK         0.0600 
    171 H171        6.6408  -12.3059  -41.9472 H         1 UNK         0.0600 
    172 H172        6.0990  -10.6565  -42.2192 H         1 UNK         0.0600 
    173 H173        5.5378  -11.5527  -40.8079 H         1 UNK         0.0600 
    174 H174        2.5982  -11.9333  -42.0301 H         1 UNK         0.3000 
    175 H175        1.7195   -8.6705  -41.9899 H         1 UNK         0.0600 
    176 H176        1.5666   -8.6528  -44.4731 H         1 UNK         0.0600 
    177 H177        0.9543  -10.3016  -44.4752 H         1 UNK         0.0600 
    178 H178       -0.0040   -9.0006  -43.7690 H         1 UNK         0.0600 
    179 H179        0.4776  -11.3510  -42.3059 H         1 UNK         0.3000 
    180 H180        0.2308  -11.8925  -38.8259 H         1 UNK         0.0600 
    181 H181       -2.0430  -11.2459  -40.7819 H         1 UNK         0.0600 
    182 H182       -1.7918  -10.4780  -39.2188 H         1 UNK         0.0600 
    183 H183       -2.1894  -12.1867  -39.2968 H         1 UNK         0.0600 
    184 H184       -0.7475  -13.3270  -41.1072 H         1 UNK         0.3000 
    185 H185        2.2192  -14.9990  -41.9858 H         1 UNK         0.0600 
    186 H186        1.5675  -16.3094  -39.9522 H         1 UNK         0.0600 
    187 H187       -0.1292  -16.1762  -40.4054 H         1 UNK         0.0600 
    188 H188        0.9958  -17.0695  -41.4284 H         1 UNK         0.0600 
    189 H189       -0.4114  -15.5378  -42.8122 H         1 UNK         0.3000 
    190 H190       -2.6837  -22.0225  -45.7151 H         1 UNK         0.3000 
    191 H191       -4.9758  -22.5552  -47.4396 H         1 UNK         0.0600 
    192 H192       -4.9658  -20.6424  -45.8467 H         1 UNK         0.0600 
    193 H193       -6.2716  -21.7610  -45.4838 H         1 UNK         0.0600 
    194 H194       -4.8236  -21.7538  -44.4855 H         1 UNK         0.0600 
    195 H195       -3.3941  -24.0914  -44.6360 H         1 UNK         0.3000 
    196 H196       -5.3214  -26.1794  -44.2395 H         1 UNK         0.0600 
    197 H197       -3.5597  -27.1493  -42.7788 H         1 UNK         0.0600 
    198 H198       -3.7444  -25.4313  -42.4621 H         1 UNK         0.0600 
    199 H199       -2.3738  -26.0138  -43.4065 H         1 UNK         0.0600 
    200 H200       -2.2730  -25.9620  -46.0890 H         1 UNK         0.3000 
    201 H201       -2.3135  -28.6536  -47.1108 H         1 UNK         0.0600 
    202 H202       -0.4821  -27.7757  -48.5649 H         1 UNK         0.0600 
    203 H203       -0.2432  -27.2751  -46.8982 H         1 UNK         0.0600 
    204 H204       -0.8655  -26.1273  -48.0823 H         1 UNK         0.0600 
    205 H205       -4.2065  -25.9425  -47.8900 H         1 UNK         0.3000 
    206 H206       -5.6370  -25.3354  -49.4333 H         1 UNK         0.0600 
    207 H207       -6.5109  -27.6813  -49.2844 H         1 UNK         0.0600 
    208 H208       -6.7634  -26.9746  -50.8710 H         1 UNK         0.0600 
    209 H209       -5.4783  -28.1467  -50.6363 H         1 UNK         0.0600 
    210 H210       -2.7079  -25.1155  -49.8856 H         1 UNK         0.3000 
    211 H211       -2.2586  -25.0558  -52.7659 H         1 UNK         0.0600 
    212 H212       -0.6542  -23.8847  -50.4236 H         1 UNK         0.0600 
    213 H213       -0.1094  -23.9792  -52.0934 H         1 UNK         0.0600 
    214 H214       -0.3822  -25.4539  -51.1776 H         1 UNK         0.0600 
    215 H215       -3.0750  -22.7394  -50.1655 H         1 UNK         0.3000 
    216 H216       -3.1812  -20.4302  -51.9583 H         1 UNK         0.0600 
    217 H217       -4.0917  -19.2805  -49.9141 H         1 UNK         0.0600 
    218 H218       -2.5595  -20.0691  -49.6243 H         1 UNK         0.0600 
    219 H219       -4.0560  -20.8120  -49.0481 H         1 UNK         0.0600 
    220 H220       -5.3534  -22.9783  -51.0685 H         1 UNK         0.3000 
    221 H221       -7.8353  -21.5870  -51.7051 H         1 UNK         0.0600 
    222 H222       -7.2793  -24.5774  -51.3422 H         1 UNK         0.0600 
    223 H223       -7.7375  -23.4697  -50.0469 H         1 UNK         0.0600 
    224 H224       -8.8540  -23.8021  -51.3619 H         1 UNK         0.0600 
    225 H225       -5.3953  -23.3898  -53.4761 H         1 UNK         0.3000 
    226 H226       -6.9566  -23.9535  -55.8428 H         1 UNK         0.0600 
    227 H227       -4.7363  -24.5119  -56.8049 H         1 UNK         0.0600 
    228 H228       -3.9171  -23.7769  -55.4338 H         1 UNK         0.0600 
    229 H229       -4.8858  -25.2318  -55.2087 H         1 UNK         0.0600 
    230 H230       -6.9178  -22.8349  -57.8204 H         1 UNK         0.3000 
    231 H231       -7.0979  -20.0466  -57.6987 H         1 UNK         0.0600 
    232 H232       -6.8566  -21.8886  -60.1376 H         1 UNK         0.0600 
    233 H233       -7.4375  -20.2282  -60.1719 H         1 UNK         0.0600 
    234 H234       -8.3510  -21.4525  -59.3068 H         1 UNK         0.0600 
    235 H235       -4.2890  -21.9966  -58.4630 H         1 UNK         0.3000 
    236 H236       -2.7102  -19.9163  -59.7083 H         1 UNK         0.0600 
    237 H237       -2.2749  -22.3307  -60.1050 H         1 UNK         0.0600 
    238 H238       -0.8618  -21.5641  -59.3981 H         1 UNK         0.0600 
    239 H239       -1.9025  -22.5687  -58.3967 H         1 UNK         0.0600 
    240 H240       -3.4729  -20.7524  -56.4045 H         1 UNK         0.3000 
    241 H241       -2.8592  -20.1839  -54.4322 H         1 UNK         0.0600 
    242 H242        0.3992  -21.5257  -54.0665 H         1 UNK         0.3800 
    243 H243       -1.3266  -21.8448  -54.0475 H         1 UNK         0.3800 
    244 H244       -1.7282  -17.5005  -55.3520 H         1 UNK         0.0800 
    245 H245       -3.4228  -17.8589  -55.4802 H         1 UNK         0.0800 
    246 H246       -0.4504  -17.3036  -53.3620 H         1 UNK         0.0800 
    247 H247       -1.3085  -15.9281  -52.7227 H         1 UNK         0.0800 
@<TRIPOS>BOND
     1    1    2 1    
     2    1  127 1    
     3    1  128 1    
     4    1  129 1    
     5    2    3 2    
     6    2    4 am   BACKBONE|DICT|INTERRES
     7    4    5 1    
     8    4  130 1    
     9    5    6 1    
    10    5   65 1    
    11    5  131 1    
    12    6    7 1    
    13    6  132 1    
    14    6  133 1    
    15    7    8 1    
    16    8    9 1    
    17    8  134 1    
    18    8  135 1    
    19    9   10 ar   
    20    9   14 ar   
    21   10   11 ar   
    22   10  136 1    
    23   11   12 ar   
    24   11  126 1    
    25   12   13 ar   
    26   12  137 1    
    27   13   14 ar   
    28   13   15 1    
    29   14  138 1    
    30   15   16 1    
    31   15  139 1    
    32   15  140 1    
    33   16   17 1    
    34   17   18 1    
    35   17  141 1    
    36   17  142 1    
    37   18   19 1    
    38   18   67 1    
    39   18  143 1    
    40   19   20 am   BACKBONE|DICT|INTERRES
    41   19  144 1    
    42   20   21 2    
    43   20   22 1    
    44   22   23 1    
    45   22   24 1    
    46   22  145 1    
    47   23  146 1    
    48   23  147 1    
    49   23  148 1    
    50   24   25 am   BACKBONE|DICT|INTERRES
    51   24  149 1    
    52   25   26 2    
    53   25   27 1    
    54   27   28 1    
    55   27   29 1    
    56   27  150 1    
    57   28  151 1    
    58   28  152 1    
    59   28  153 1    
    60   29   30 am   BACKBONE|DICT|INTERRES
    61   29  154 1    
    62   30   31 2    
    63   30   32 1    
    64   32   33 1    
    65   32   34 1    
    66   32  155 1    
    67   33  156 1    
    68   33  157 1    
    69   33  158 1    
    70   34   35 am   BACKBONE|DICT|INTERRES
    71   34  159 1    
    72   35   36 2    
    73   35   37 1    
    74   37   38 1    
    75   37   39 1    
    76   37  160 1    
    77   38  161 1    
    78   38  162 1    
    79   38  163 1    
    80   39   40 am   BACKBONE|DICT|INTERRES
    81   39  164 1    
    82   40   41 2    
    83   40   42 1    
    84   42   43 1    
    85   42   44 1    
    86   42  165 1    
    87   43  166 1    
    88   43  167 1    
    89   43  168 1    
    90   44   45 am   BACKBONE|DICT|INTERRES
    91   44  169 1    
    92   45   46 2    
    93   45   47 1    
    94   47   48 1    
    95   47   49 1    
    96   47  170 1    
    97   48  171 1    
    98   48  172 1    
    99   48  173 1    
   100   49   50 am   BACKBONE|DICT|INTERRES
   101   49  174 1    
   102   50   51 2    
   103   50   52 1    
   104   52   53 1    
   105   52   54 1    
   106   52  175 1    
   107   53  176 1    
   108   53  177 1    
   109   53  178 1    
   110   54   55 am   BACKBONE|DICT|INTERRES
   111   54  179 1    
   112   55   56 2    
   113   55   57 1    
   114   57   58 1    
   115   57   59 1    
   116   57  180 1    
   117   58  181 1    
   118   58  182 1    
   119   58  183 1    
   120   59   60 am   BACKBONE|DICT|INTERRES
   121   59  184 1    
   122   60   61 2    
   123   60   62 1    
   124   62   63 1    
   125   62   64 1    
   126   62  185 1    
   127   63  186 1    
   128   63  187 1    
   129   63  188 1    
   130   64   65 am   BACKBONE|DICT|INTERRES
   131   64  189 1    
   132   65   66 2    
   133   67   68 2    
   134   67   69 am   BACKBONE|DICT|INTERRES
   135   69   70 1    
   136   69  190 1    
   137   70   71 1    
   138   70   72 1    
   139   70  191 1    
   140   71  192 1    
   141   71  193 1    
   142   71  194 1    
   143   72   73 2    
   144   72   74 am   BACKBONE|DICT|INTERRES
   145   74   75 1    
   146   74  195 1    
   147   75   76 1    
   148   75   77 1    
   149   75  196 1    
   150   76  197 1    
   151   76  198 1    
   152   76  199 1    
   153   77   78 2    
   154   77   79 am   BACKBONE|DICT|INTERRES
   155   79   80 1    
   156   79  200 1    
   157   80   81 1    
   158   80   82 1    
   159   80  201 1    
   160   81  202 1    
   161   81  203 1    
   162   81  204 1    
   163   82   83 2    
   164   82   84 am   BACKBONE|DICT|INTERRES
   165   84   85 1    
   166   84  205 1    
   167   85   86 1    
   168   85   87 1    
   169   85  206 1    
   170   86  207 1    
   171   86  208 1    
   172   86  209 1    
   173   87   88 2    
   174   87   89 am   BACKBONE|DICT|INTERRES
   175   89   90 1    
   176   89  210 1    
   177   90   91 1    
   178   90   92 1    
   179   90  211 1    
   180   91  212 1    
   181   91  213 1    
   182   91  214 1    
   183   92   93 2    
   184   92   94 am   BACKBONE|DICT|INTERRES
   185   94   95 1    
   186   94  215 1    
   187   95   96 1    
   188   95   97 1    
   189   95  216 1    
   190   96  217 1    
   191   96  218 1    
   192   96  219 1    
   193   97   98 2    
   194   97   99 am   BACKBONE|DICT|INTERRES
   195   99  100 1    
   196   99  220 1    
   197  100  101 1    
   198  100  102 1    
   199  100  221 1    
   200  101  222 1    
   201  101  223 1    
   202  101  224 1    
   203  102  103 2    
   204  102  104 am   BACKBONE|DICT|INTERRES
   205  104  105 1    
   206  104  225 1    
   207  105  106 1    
   208  105  107 1    
   209  105  226 1    
   210  106  227 1    
   211  106  228 1    
   212  106  229 1    
   213  107  108 2    
   214  107  109 am   BACKBONE|DICT|INTERRES
   215  109  110 1    
   216  109  230 1    
   217  110  111 1    
   218  110  112 1    
   219  110  231 1    
   220  111  232 1    
   221  111  233 1    
   222  111  234 1    
   223  112  113 2    
   224  112  114 am   BACKBONE|DICT|INTERRES
   225  114  115 1    
   226  114  235 1    
   227  115  116 1    
   228  115  117 1    
   229  115  236 1    
   230  116  237 1    
   231  116  238 1    
   232  116  239 1    
   233  117  118 2    
   234  117  119 am   BACKBONE|DICT|INTERRES
   235  119  120 1    
   236  119  240 1    
   237  120  121 1    
   238  120  124 1    
   239  120  241 1    
   240  121  122 am   BACKBONE|DICT|INTERRES
   241  121  123 2    
   242  122  242 1    
   243  122  243 1    
   244  124  125 1    
   245  124  244 1    
   246  124  245 1    
   247  125  126 1    
   248  126  246 1    
   249  126  247 1    
@<TRIPOS>SUBSTRUCTURE
     1 UNK         1 GROUP             0       ****    0 ROOT    
