@<TRIPOS>MOLECULE
3R540
247   249    1
SMALL
USER_CHARGES


@<TRIPOS>ATOM
      1 CA          1.7329  -11.0326  -49.5082 C.3       0 UNK        -0.1800 
      2 C           1.8427  -12.5315  -49.7481 C.2       0 UNK         0.5000 
      3 O           2.3702  -12.9510  -50.7779 O.2       0 UNK        -0.5000 
      4 N           1.3545  -13.3389  -48.7979 N.am      1 UNK        -0.5000 
      5 CA          1.3369  -14.8077  -48.8661 C.3       1 UNK         0.1400 
      6 C6          0.2110  -15.4161  -47.9924 C.3       23 UNK        -0.0398 
      7 S7         -1.4545  -14.7981  -48.3993 S.3       23 UNK        -0.2404 
      8 C8         -2.1146  -16.1865  -49.3718 C.3       23 UNK        -0.0205 
      9 C9         -3.6128  -16.0405  -49.5774 C.ar      23 UNK        -0.0193 
     10 C10        -4.1087  -15.2356  -50.6053 C.ar      23 UNK        -0.1150 
     11 C11        -5.4860  -15.0975  -50.7943 C.ar      23 UNK        -0.0193 
     12 C12        -6.3659  -15.7719  -49.9446 C.ar      23 UNK        -0.1150 
     13 C13        -5.8894  -16.5836  -48.9099 C.ar      23 UNK        -0.0193 
     14 C14        -4.5047  -16.7114  -48.7364 C.ar      23 UNK        -0.1150 
     15 C15        -6.9155  -17.2855  -48.0168 C.3       23 UNK        -0.0205 
     16 S16        -6.2759  -18.0264  -46.4724 S.3       23 UNK        -0.2404 
     17 C17        -5.6895  -19.6616  -47.0403 C.3       23 UNK        -0.0398 
     18 CA         -4.2828  -20.0333  -46.5062 C.3       11 UNK         0.1400 
     19 N          -4.1727  -19.8848  -45.0465 N.am      11 UNK        -0.5000 
     20 C          -3.0450  -20.0482  -44.3419 C.2       10 UNK         0.5000 
     21 O          -1.9712  -20.3780  -44.8460 O.2       10 UNK        -0.5000 
     22 CA         -3.1382  -19.8487  -42.8210 C.3       10 UNK         0.1400 
     23 CB         -2.6443  -21.0979  -42.0737 C.3       10 UNK        -0.1800 
     24 N          -2.3498  -18.6918  -42.4082 N.am      10 UNK        -0.5000 
     25 C          -2.7254  -17.4185  -42.5952 C.2       9 UNK         0.5000 
     26 O          -3.8059  -17.1057  -43.0992 O.2       9 UNK        -0.5000 
     27 CA         -1.7436  -16.3102  -42.1493 C.3       9 UNK         0.1400 
     28 CB         -2.4510  -14.9854  -41.7958 C.3       9 UNK        -0.1800 
     29 N          -0.8279  -16.7093  -41.0748 N.am      9 UNK        -0.5000 
     30 C          -1.1547  -17.1289  -39.8435 C.2       8 UNK         0.5000 
     31 O          -2.3121  -17.1755  -39.4224 O.2       8 UNK        -0.5000 
     32 CA          0.0119  -17.5823  -38.9359 C.3       8 UNK         0.1400 
     33 CB         -0.4470  -18.5556  -37.8302 C.3       8 UNK        -0.1800 
     34 N           1.1580  -18.1528  -39.6568 N.am      8 UNK        -0.5000 
     35 C           1.1637  -19.1885  -40.5086 C.2       7 UNK         0.5000 
     36 O           0.1417  -19.7736  -40.8692 O.2       7 UNK        -0.5000 
     37 CA          2.5437  -19.6295  -41.0514 C.3       7 UNK         0.1400 
     38 CB          2.4266  -20.7506  -42.0995 C.3       7 UNK        -0.1800 
     39 N           3.3056  -18.5188  -41.6291 N.am      7 UNK        -0.5000 
     40 C           3.9349  -17.5542  -40.9433 C.2       6 UNK         0.5000 
     41 O           3.9970  -17.5257  -39.7134 O.2       6 UNK        -0.5000 
     42 CA          4.5321  -16.3911  -41.7587 C.3       6 UNK         0.1400 
     43 CB          5.9544  -16.7254  -42.2320 C.3       6 UNK        -0.1800 
     44 N           3.7112  -16.0154  -42.9115 N.am      6 UNK        -0.5000 
     45 C           2.4457  -15.5725  -42.8509 C.2       5 UNK         0.5000 
     46 O           1.8173  -15.4063  -41.8052 O.2       5 UNK        -0.5000 
     47 CA          1.7504  -15.3353  -44.2005 C.3       5 UNK         0.1400 
     48 CB          2.2087  -14.0076  -44.8295 C.3       5 UNK        -0.1800 
     49 N           1.9940  -16.4678  -45.0991 N.am      5 UNK        -0.5000 
     50 C           1.3892  -17.6605  -44.9622 C.2       4 UNK         0.5000 
     51 O           0.4704  -17.8608  -44.1702 O.2       4 UNK        -0.5000 
     52 CA          1.9199  -18.8414  -45.7984 C.3       4 UNK         0.1400 
     53 CB          0.9939  -19.1922  -46.9704 C.3       4 UNK        -0.1800 
     54 N           3.2767  -18.6258  -46.2959 N.am      4 UNK        -0.5000 
     55 C           4.3760  -18.7960  -45.5487 C.2       3 UNK         0.5000 
     56 O           4.3494  -19.1770  -44.3792 O.2       3 UNK        -0.5000 
     57 CA          5.7244  -18.4237  -46.1949 C.3       3 UNK         0.1400 
     58 CB          6.3183  -19.6302  -46.9362 C.3       3 UNK        -0.1800 
     59 N           5.6313  -17.2874  -47.1152 N.am      3 UNK        -0.5000 
     60 C           5.2229  -16.0591  -46.7702 C.2       2 UNK         0.5000 
     61 O           4.9029  -15.7568  -45.6200 O.2       2 UNK        -0.5000 
     62 CA          5.1048  -15.0001  -47.8850 C.3       2 UNK         0.1400 
     63 CB          5.8200  -15.3892  -49.1982 C.3       2 UNK        -0.1800 
     64 N           3.7084  -14.6368  -48.1567 N.am      2 UNK        -0.5000 
     65 C           2.7081  -15.4505  -48.5344 C.2       1 UNK         0.5000 
     66 O           2.8308  -16.6731  -48.6227 O.2       1 UNK        -0.5000 
     67 C          -3.8987  -21.4510  -46.9815 C.2       11 UNK         0.5000 
     68 O          -3.3154  -21.6016  -48.0538 O.2       11 UNK        -0.5000 
     69 N          -4.1869  -22.4603  -46.1464 N.am      12 UNK        -0.5000 
     70 CA         -3.8612  -23.8684  -46.3708 C.3       12 UNK         0.1400 
     71 CB         -4.4942  -24.7128  -45.2557 C.3       12 UNK        -0.1800 
     72 C          -2.3515  -24.1627  -46.4771 C.2       12 UNK         0.5000 
     73 O          -1.9816  -25.1593  -47.0993 O.2       12 UNK        -0.5000 
     74 N          -1.5029  -23.2914  -45.9100 N.am      13 UNK        -0.5000 
     75 CA         -0.0460  -23.3875  -46.0160 C.3       13 UNK         0.1400 
     76 CB          0.6092  -22.4554  -44.9872 C.3       13 UNK        -0.1800 
     77 C           0.4723  -23.0951  -47.4382 C.2       13 UNK         0.5000 
     78 O           1.5478  -23.5768  -47.7949 O.2       13 UNK        -0.5000 
     79 N          -0.3092  -22.3659  -48.2503 N.am      14 UNK        -0.5000 
     80 CA         -0.0345  -22.0962  -49.6625 C.3       14 UNK         0.1400 
     81 CB         -0.6843  -20.7572  -50.0583 C.3       14 UNK        -0.1800 
     82 C          -0.5025  -23.2707  -50.5473 C.2       14 UNK         0.5000 
     83 O          -1.2914  -23.0701  -51.4730 O.2       14 UNK        -0.5000 
     84 N          -0.0212  -24.4807  -50.2262 N.am      15 UNK        -0.5000 
     85 CA         -0.2835  -25.7589  -50.8971 C.3       15 UNK         0.1400 
     86 CB          0.3890  -25.7748  -52.2862 C.3       15 UNK        -0.1800 
     87 C          -1.7871  -26.0947  -50.9622 C.2       15 UNK         0.5000 
     88 O          -2.3332  -26.2674  -52.0513 O.2       15 UNK        -0.5000 
     89 N          -2.4500  -26.1139  -49.7955 N.am      16 UNK        -0.5000 
     90 CA         -3.9023  -26.2807  -49.6257 C.3       16 UNK         0.1400 
     91 CB         -4.3597  -27.6850  -50.0737 C.3       16 UNK        -0.1800 
     92 C          -4.7070  -25.1400  -50.2897 C.2       16 UNK         0.5000 
     93 O          -5.8142  -25.3619  -50.7805 O.2       16 UNK        -0.5000 
     94 N          -4.0998  -23.9446  -50.3065 N.am      17 UNK        -0.5000 
     95 CA         -4.5268  -22.7046  -50.9589 C.3       17 UNK         0.1400 
     96 CB         -5.8965  -22.2282  -50.4350 C.3       17 UNK        -0.1800 
     97 C          -4.4618  -22.7379  -52.5005 C.2       17 UNK         0.5000 
     98 O          -4.8854  -21.7686  -53.1309 O.2       17 UNK        -0.5000 
     99 N          -3.9011  -23.8000  -53.0992 N.am      18 UNK        -0.5000 
    100 CA        -3.7547  -23.9360  -54.5497 C.3       18 UNK         0.1400 
    101 CB        -3.4554  -25.3975  -54.9127 C.3       18 UNK        -0.1800 
    102 C         -2.6774  -23.0064  -55.1358 C.2       18 UNK         0.5000 
    103 O         -2.8239  -22.5730  -56.2791 O.2       18 UNK        -0.5000 
    104 N         -1.6316  -22.6968  -54.3534 N.am      19 UNK        -0.5000 
    105 CA        -0.5872  -21.7457  -54.7435 C.3       19 UNK         0.1400 
    106 CB         0.6976  -22.0154  -53.9456 C.3       19 UNK        -0.1800 
    107 C         -1.0492  -20.2882  -54.5656 C.2       19 UNK         0.5000 
    108 O         -0.6028  -19.4169  -55.3124 O.2       19 UNK        -0.5000 
    109 N         -1.9483  -20.0536  -53.5983 N.am      20 UNK        -0.5000 
    110 CA        -2.6225  -18.7714  -53.3944 C.3       20 UNK         0.1400 
    111 CB        -3.2598  -18.7383  -51.9956 C.3       20 UNK        -0.1800 
    112 C         -3.6839  -18.5021  -54.4758 C.2       20 UNK         0.5000 
    113 O         -3.8265  -17.3625  -54.9156 O.2       20 UNK        -0.5000 
    114 N         -4.4183  -19.5555  -54.8633 N.am      21 UNK        -0.5000 
    115 CA        -5.5430  -19.6163  -55.8056 C.3       21 UNK         0.1400 
    116 CB        -5.1766  -19.0551  -57.1925 C.3       21 UNK        -0.1800 
    117 C         -6.8333  -18.9847  -55.2498 C.2       21 UNK         0.5000 
    118 O         -7.8996  -19.5902  -55.3625 O.2       21 UNK        -0.5000 
    119 N         -6.7121  -17.8098  -54.6238 N.am      22 UNK        -0.5000 
    120 CA        -7.7601  -17.1414  -53.8371 C.3       22 UNK         0.1400 
    121 C         -7.9667  -17.7219  -52.4064 C.2       22 UNK         0.5000 
    122 N         -7.1786  -18.6901  -51.9538 N.am      22 UNK        -0.7600 
    123 O         -8.8822  -17.3052  -51.7021 O.2       22 UNK        -0.5000 
    124 C124       -7.5964  -15.5960  -53.8389 C.3       23 UNK        -0.0398 
    125 S125       -5.8973  -14.9872  -53.5321 S.3       23 UNK        -0.2404 
    126 C126       -6.0145  -14.1949  -51.8978 C.3       23 UNK        -0.0205 
    127 H127        1.1457  -10.5684  -50.3004 H         1 UNK         0.0600 
    128 H128        1.2544  -10.8082  -48.5547 H         1 UNK         0.0600 
    129 H129        2.7239  -10.5788  -49.5064 H         1 UNK         0.0600 
    130 H130        0.9101  -12.9332  -47.9866 H         1 UNK         0.3000 
    131 H131        1.1219  -15.0896  -49.8992 H         1 UNK         0.0600 
    132 H132        0.3810  -15.2097  -46.9378 H         1 UNK         0.0800 
    133 H133        0.2016  -16.4994  -48.0840 H         1 UNK         0.0800 
    134 H134       -1.9033  -17.1302  -48.8661 H         1 UNK         0.0800 
    135 H135       -1.6061  -16.2308  -50.3362 H         1 UNK         0.0800 
    136 H136       -3.4223  -14.7126  -51.2564 H         1 UNK         0.1150 
    137 H137       -7.4318  -15.6622  -50.0878 H         1 UNK         0.1150 
    138 H138       -4.1047  -17.3220  -47.9428 H         1 UNK         0.1150 
    139 H139       -7.6739  -16.5551  -47.7311 H         1 UNK         0.0800 
    140 H140       -7.4363  -18.0470  -48.5988 H         1 UNK         0.0800 
    141 H141       -6.4287  -20.4012  -46.7271 H         1 UNK         0.0800 
    142 H142       -5.6853  -19.6801  -48.1320 H         1 UNK         0.0800 
    143 H143       -3.5576  -19.3480  -46.9489 H         1 UNK         0.0600 
    144 H144       -5.0066  -19.5686  -44.5720 H         1 UNK         0.3000 
    145 H145       -4.1805  -19.6819  -42.5413 H         1 UNK         0.0600 
    146 H146       -2.7160  -20.9651  -40.9940 H         1 UNK         0.0600 
    147 H147       -3.2407  -21.9723  -42.3370 H         1 UNK         0.0600 
    148 H148       -1.6045  -21.3267  -42.3120 H         1 UNK         0.0600 
    149 H149       -1.4349  -18.8851  -42.0150 H         1 UNK         0.3000 
    150 H150       -1.1211  -16.1148  -43.0193 H         1 UNK         0.0600 
    151 H151       -3.0121  -14.6004  -42.6480 H         1 UNK         0.0600 
    152 H152       -1.7303  -14.2183  -41.5122 H         1 UNK         0.0600 
    153 H153       -3.1533  -15.1089  -40.9712 H         1 UNK         0.0600 
    154 H154        0.1569  -16.6752  -41.3125 H         1 UNK         0.3000 
    155 H155        0.3803  -16.6784  -38.4491 H         1 UNK         0.0600 
    156 H156        0.3851  -18.8434  -37.1877 H         1 UNK         0.0600 
    157 H157       -0.8775  -19.4656  -38.2496 H         1 UNK         0.0600 
    158 H158       -1.2034  -18.0986  -37.1911 H         1 UNK         0.0600 
    159 H159        2.0591  -17.7300  -39.4548 H         1 UNK         0.3000 
    160 H160        3.1064  -20.0279  -40.2049 H         1 UNK         0.0600 
    161 H161        1.8260  -20.4360  -42.9525 H         1 UNK         0.0600 
    162 H162        1.9516  -21.6360  -41.6754 H         1 UNK         0.0600 
    163 H163        3.4059  -21.0540  -42.4697 H         1 UNK         0.0600 
    164 H164        3.3562  -18.4920  -42.6407 H         1 UNK         0.3000 
    165 H165        4.5882  -15.5221  -41.1001 H         1 UNK         0.0600 
    166 H166        5.9661  -17.5882  -42.8978 H         1 UNK         0.0600 
    167 H167        6.4006  -15.8857  -42.7653 H         1 UNK         0.0600 
    168 H168        6.6026  -16.9558  -41.3857 H         1 UNK         0.0600 
    169 H169        4.1529  -16.0824  -43.8234 H         1 UNK         0.3000 
    170 H170        0.6777  -15.2525  -44.0262 H         1 UNK         0.0600 
    171 H171        1.9283  -13.1696  -44.1903 H         1 UNK         0.0600 
    172 H172        3.2881  -13.9561  -44.9597 H         1 UNK         0.0600 
    173 H173        1.7480  -13.8338  -45.7991 H         1 UNK         0.0600 
    174 H174        2.7976  -16.3981  -45.7086 H         1 UNK         0.3000 
    175 H175        1.9327  -19.7057  -45.1342 H         1 UNK         0.0600 
    176 H176        1.0641  -18.4705  -47.7795 H         1 UNK         0.0600 
    177 H177        1.2612  -20.1627  -47.3858 H         1 UNK         0.0600 
    178 H178       -0.0491  -19.2487  -46.6550 H         1 UNK         0.0600 
    179 H179        3.3657  -18.2514  -47.2341 H         1 UNK         0.3000 
    180 H180        6.4086  -18.1450  -45.3908 H         1 UNK         0.0600 
    181 H181        6.4191  -20.4872  -46.2688 H         1 UNK         0.0600 
    182 H182        5.6899  -19.9378  -47.7731 H         1 UNK         0.0600 
    183 H183        7.3112  -19.4048  -47.3257 H         1 UNK         0.0600 
    184 H184        5.8498  -17.4674  -48.0842 H         1 UNK         0.3000 
    185 H185        5.5904  -14.1024  -47.4998 H         1 UNK         0.0600 
    186 H186        6.8723  -15.6165  -49.0225 H         1 UNK         0.0600 
    187 H187        5.3652  -16.2565  -49.6782 H         1 UNK         0.0600 
    188 H188        5.7868  -14.5671  -49.9133 H         1 UNK         0.0600 
    189 H189        3.4954  -13.6524  -48.0849 H         1 UNK         0.3000 
    190 H190       -4.6511  -22.2398  -45.2777 H         1 UNK         0.3000 
    191 H191       -4.3172  -24.1572  -47.3186 H         1 UNK         0.0600 
    192 H192       -4.2977  -25.7749  -45.4095 H         1 UNK         0.0600 
    193 H193       -5.5766  -24.5855  -45.2294 H         1 UNK         0.0600 
    194 H194       -4.0992  -24.4443  -44.2751 H         1 UNK         0.0600 
    195 H195       -1.8673  -22.4647  -45.4510 H         1 UNK         0.3000 
    196 H196        0.2436  -24.4113  -45.7700 H         1 UNK         0.0600 
    197 H197        1.6965  -22.5360  -45.0190 H         1 UNK         0.0600 
    198 H198        0.2934  -22.6995  -43.9727 H         1 UNK         0.0600 
    199 H199        0.3530  -21.4144  -45.1732 H         1 UNK         0.0600 
    200 H200       -1.2110  -22.0535  -47.9094 H         1 UNK         0.3000 
    201 H201        1.0427  -21.9915  -49.8064 H         1 UNK         0.0600 
    202 H202       -0.3455  -19.9448  -49.4170 H         1 UNK         0.0600 
    203 H203       -1.7707  -20.7989  -49.9945 H         1 UNK         0.0600 
    204 H204       -0.4276  -20.4849  -51.0821 H         1 UNK         0.0600 
    205 H205        0.6080  -24.5224  -49.4322 H         1 UNK         0.3000 
    206 H206        0.1845  -26.5357  -50.2908 H         1 UNK         0.0600 
    207 H207        1.4542  -25.5567  -52.2120 H         1 UNK         0.0600 
    208 H208        0.2895  -26.7540  -52.7559 H         1 UNK         0.0600 
    209 H209       -0.0562  -25.0436  -52.9615 H         1 UNK         0.0600 
    210 H210       -1.9431  -25.9154  -48.9372 H         1 UNK         0.3000 
    211 H211       -4.0965  -26.2081  -48.5555 H         1 UNK         0.0600 
    212 H212       -4.2820  -27.8153  -51.1533 H         1 UNK         0.0600 
    213 H213       -5.4006  -27.8609  -49.8001 H         1 UNK         0.0600 
    214 H214       -3.7644  -28.4639  -49.5974 H         1 UNK         0.0600 
    215 H215       -3.1737  -23.8985  -49.9065 H         1 UNK         0.3000 
    216 H216       -3.7935  -21.9557  -50.6605 H         1 UNK         0.0600 
    217 H217       -5.9197  -22.2150  -49.3456 H         1 UNK         0.0600 
    218 H218       -6.7094  -22.8657  -50.7826 H         1 UNK         0.0600 
    219 H219       -6.1108  -21.2150  -50.7750 H         1 UNK         0.0600 
    220 H220       -3.5180  -24.5481  -52.5325 H         1 UNK         0.3000 
    221 H221       -4.7090  -23.6681  -55.0084 H         1 UNK         0.0600 
    222 H222       -2.4605  -25.6988  -54.5838 H         1 UNK         0.0600 
    223 H223       -4.1802  -26.0764  -54.4629 H         1 UNK         0.0600 
    224 H224       -3.4966  -25.5439  -55.9926 H         1 UNK         0.0600 
    225 H225       -1.5897  -23.0610  -53.4051 H         1 UNK         0.3000 
    226 H226       -0.3556  -21.8949  -55.8004 H         1 UNK         0.0600 
    227 H227        1.0143  -23.0538  -54.0415 H         1 UNK         0.0600 
    228 H228        1.5148  -21.3919  -54.3099 H         1 UNK         0.0600 
    229 H229        0.5735  -21.7958  -52.8867 H         1 UNK         0.0600 
    230 H230       -2.2560  -20.8320  -53.0350 H         1 UNK         0.3000 
    231 H231       -1.8816  -17.9709  -53.4483 H         1 UNK         0.0600 
    232 H232       -3.9233  -19.5856  -51.8258 H         1 UNK         0.0600 
    233 H233       -2.4994  -18.7450  -51.2157 H         1 UNK         0.0600 
    234 H234       -3.8527  -17.8332  -51.8604 H         1 UNK         0.0600 
    235 H235       -4.2786  -20.4219  -54.3512 H         1 UNK         0.3000 
    236 H236       -5.7475  -20.6807  -55.9329 H         1 UNK         0.0600 
    237 H237       -4.2740  -19.5270  -57.5811 H         1 UNK         0.0600 
    238 H238       -5.9774  -19.2440  -57.9082 H         1 UNK         0.0600 
    239 H239       -5.0114  -17.9778  -57.1707 H         1 UNK         0.0600 
    240 H240       -5.7941  -17.3763  -54.5971 H         1 UNK         0.3000 
    241 H241       -8.7080  -17.3409  -54.3404 H         1 UNK         0.0600 
    242 H242       -6.4465  -19.0672  -52.5315 H         1 UNK         0.3800 
    243 H243       -7.3415  -19.0612  -51.0334 H         1 UNK         0.3800 
    244 H244       -8.3007  -15.1233  -53.1529 H         1 UNK         0.0800 
    245 H245       -7.8783  -15.2248  -54.8249 H         1 UNK         0.0800 
    246 H246       -7.0389  -13.8833  -51.6904 H         1 UNK         0.0800 
    247 H247       -5.4237  -13.2779  -51.9168 H         1 UNK         0.0800 
@<TRIPOS>BOND
     1    1    2 1    
     2    1  127 1    
     3    1  128 1    
     4    1  129 1    
     5    2    3 2    
     6    2    4 am   BACKBONE|DICT|INTERRES
     7    4    5 1    
     8    4  130 1    
     9    5    6 1    
    10    5   65 1    
    11    5  131 1    
    12    6    7 1    
    13    6  132 1    
    14    6  133 1    
    15    7    8 1    
    16    8    9 1    
    17    8  134 1    
    18    8  135 1    
    19    9   10 ar   
    20    9   14 ar   
    21   10   11 ar   
    22   10  136 1    
    23   11   12 ar   
    24   11  126 1    
    25   12   13 ar   
    26   12  137 1    
    27   13   14 ar   
    28   13   15 1    
    29   14  138 1    
    30   15   16 1    
    31   15  139 1    
    32   15  140 1    
    33   16   17 1    
    34   17   18 1    
    35   17  141 1    
    36   17  142 1    
    37   18   19 1    
    38   18   67 1    
    39   18  143 1    
    40   19   20 am   BACKBONE|DICT|INTERRES
    41   19  144 1    
    42   20   21 2    
    43   20   22 1    
    44   22   23 1    
    45   22   24 1    
    46   22  145 1    
    47   23  146 1    
    48   23  147 1    
    49   23  148 1    
    50   24   25 am   BACKBONE|DICT|INTERRES
    51   24  149 1    
    52   25   26 2    
    53   25   27 1    
    54   27   28 1    
    55   27   29 1    
    56   27  150 1    
    57   28  151 1    
    58   28  152 1    
    59   28  153 1    
    60   29   30 am   BACKBONE|DICT|INTERRES
    61   29  154 1    
    62   30   31 2    
    63   30   32 1    
    64   32   33 1    
    65   32   34 1    
    66   32  155 1    
    67   33  156 1    
    68   33  157 1    
    69   33  158 1    
    70   34   35 am   BACKBONE|DICT|INTERRES
    71   34  159 1    
    72   35   36 2    
    73   35   37 1    
    74   37   38 1    
    75   37   39 1    
    76   37  160 1    
    77   38  161 1    
    78   38  162 1    
    79   38  163 1    
    80   39   40 am   BACKBONE|DICT|INTERRES
    81   39  164 1    
    82   40   41 2    
    83   40   42 1    
    84   42   43 1    
    85   42   44 1    
    86   42  165 1    
    87   43  166 1    
    88   43  167 1    
    89   43  168 1    
    90   44   45 am   BACKBONE|DICT|INTERRES
    91   44  169 1    
    92   45   46 2    
    93   45   47 1    
    94   47   48 1    
    95   47   49 1    
    96   47  170 1    
    97   48  171 1    
    98   48  172 1    
    99   48  173 1    
   100   49   50 am   BACKBONE|DICT|INTERRES
   101   49  174 1    
   102   50   51 2    
   103   50   52 1    
   104   52   53 1    
   105   52   54 1    
   106   52  175 1    
   107   53  176 1    
   108   53  177 1    
   109   53  178 1    
   110   54   55 am   BACKBONE|DICT|INTERRES
   111   54  179 1    
   112   55   56 2    
   113   55   57 1    
   114   57   58 1    
   115   57   59 1    
   116   57  180 1    
   117   58  181 1    
   118   58  182 1    
   119   58  183 1    
   120   59   60 am   BACKBONE|DICT|INTERRES
   121   59  184 1    
   122   60   61 2    
   123   60   62 1    
   124   62   63 1    
   125   62   64 1    
   126   62  185 1    
   127   63  186 1    
   128   63  187 1    
   129   63  188 1    
   130   64   65 am   BACKBONE|DICT|INTERRES
   131   64  189 1    
   132   65   66 2    
   133   67   68 2    
   134   67   69 am   BACKBONE|DICT|INTERRES
   135   69   70 1    
   136   69  190 1    
   137   70   71 1    
   138   70   72 1    
   139   70  191 1    
   140   71  192 1    
   141   71  193 1    
   142   71  194 1    
   143   72   73 2    
   144   72   74 am   BACKBONE|DICT|INTERRES
   145   74   75 1    
   146   74  195 1    
   147   75   76 1    
   148   75   77 1    
   149   75  196 1    
   150   76  197 1    
   151   76  198 1    
   152   76  199 1    
   153   77   78 2    
   154   77   79 am   BACKBONE|DICT|INTERRES
   155   79   80 1    
   156   79  200 1    
   157   80   81 1    
   158   80   82 1    
   159   80  201 1    
   160   81  202 1    
   161   81  203 1    
   162   81  204 1    
   163   82   83 2    
   164   82   84 am   BACKBONE|DICT|INTERRES
   165   84   85 1    
   166   84  205 1    
   167   85   86 1    
   168   85   87 1    
   169   85  206 1    
   170   86  207 1    
   171   86  208 1    
   172   86  209 1    
   173   87   88 2    
   174   87   89 am   BACKBONE|DICT|INTERRES
   175   89   90 1    
   176   89  210 1    
   177   90   91 1    
   178   90   92 1    
   179   90  211 1    
   180   91  212 1    
   181   91  213 1    
   182   91  214 1    
   183   92   93 2    
   184   92   94 am   BACKBONE|DICT|INTERRES
   185   94   95 1    
   186   94  215 1    
   187   95   96 1    
   188   95   97 1    
   189   95  216 1    
   190   96  217 1    
   191   96  218 1    
   192   96  219 1    
   193   97   98 2    
   194   97   99 am   BACKBONE|DICT|INTERRES
   195   99  100 1    
   196   99  220 1    
   197  100  101 1    
   198  100  102 1    
   199  100  221 1    
   200  101  222 1    
   201  101  223 1    
   202  101  224 1    
   203  102  103 2    
   204  102  104 am   BACKBONE|DICT|INTERRES
   205  104  105 1    
   206  104  225 1    
   207  105  106 1    
   208  105  107 1    
   209  105  226 1    
   210  106  227 1    
   211  106  228 1    
   212  106  229 1    
   213  107  108 2    
   214  107  109 am   BACKBONE|DICT|INTERRES
   215  109  110 1    
   216  109  230 1    
   217  110  111 1    
   218  110  112 1    
   219  110  231 1    
   220  111  232 1    
   221  111  233 1    
   222  111  234 1    
   223  112  113 2    
   224  112  114 am   BACKBONE|DICT|INTERRES
   225  114  115 1    
   226  114  235 1    
   227  115  116 1    
   228  115  117 1    
   229  115  236 1    
   230  116  237 1    
   231  116  238 1    
   232  116  239 1    
   233  117  118 2    
   234  117  119 am   BACKBONE|DICT|INTERRES
   235  119  120 1    
   236  119  240 1    
   237  120  121 1    
   238  120  124 1    
   239  120  241 1    
   240  121  122 am   BACKBONE|DICT|INTERRES
   241  121  123 2    
   242  122  242 1    
   243  122  243 1    
   244  124  125 1    
   245  124  244 1    
   246  124  245 1    
   247  125  126 1    
   248  126  246 1    
   249  126  247 1    
@<TRIPOS>SUBSTRUCTURE
     1 UNK         1 GROUP             0       ****    0 ROOT    
