@<TRIPOS>MOLECULE
3R540
247   249    1
SMALL
USER_CHARGES


@<TRIPOS>ATOM
      1 CA          0.5657  -10.6612  -51.8447 C.3       0 UNK        -0.1800 
      2 C           0.5904  -10.7029  -50.3235 C.2       0 UNK         0.5000 
      3 O           0.0482   -9.8068  -49.6772 O.2       0 UNK        -0.5000 
      4 N           1.2249  -11.7358  -49.7552 N.am      1 UNK        -0.5000 
      5 CA          1.3567  -11.9794  -48.3133 C.3       1 UNK         0.1400 
      6 C6          2.4016  -13.0802  -47.9616 C.3       23 UNK        -0.0398 
      7 S7          2.8022  -14.2858  -49.2801 S.3       23 UNK        -0.2404 
      8 C8          1.6487  -15.6598  -48.9468 C.3       23 UNK        -0.0205 
      9 C9          0.3167  -15.5932  -49.6904 C.ar      23 UNK        -0.0193 
     10 C10         0.1604  -14.9109  -50.9028 C.ar      23 UNK        -0.1150 
     11 C11        -1.0648  -14.9144  -51.5762 C.ar      23 UNK        -0.0193 
     12 C12        -2.1383  -15.6305  -51.0381 C.ar      23 UNK        -0.1150 
     13 C13        -2.0000  -16.3152  -49.8272 C.ar      23 UNK        -0.0193 
     14 C14        -0.7754  -16.2788  -49.1575 C.ar      23 UNK        -0.1150 
     15 C15        -3.1809  -17.0595  -49.2214 C.3       23 UNK        -0.0205 
     16 S16        -3.1445  -18.8370  -49.6130 S.3       23 UNK        -0.2404 
     17 C17        -2.0185  -19.4674  -48.3294 C.3       23 UNK        -0.0398 
     18 CA         -1.7469  -20.9890  -48.4230 C.3       11 UNK         0.1400 
     19 N          -0.4594  -21.3125  -47.8012 N.am      11 UNK        -0.5000 
     20 C           0.1946  -22.4742  -47.9242 C.2       10 UNK         0.5000 
     21 O          -0.1908  -23.4057  -48.6246 O.2       10 UNK        -0.5000 
     22 CA          1.4784  -22.6328  -47.0912 C.3       10 UNK         0.1400 
     23 CB          2.6995  -22.1209  -47.8706 C.3       10 UNK        -0.1800 
     24 N           1.3802  -21.9329  -45.8089 N.am      10 UNK        -0.5000 
     25 C           0.6632  -22.3783  -44.7656 C.2       9 UNK         0.5000 
     26 O           0.0773  -23.4600  -44.7539 O.2       9 UNK        -0.5000 
     27 CA          0.5465  -21.4482  -43.5427 C.3       9 UNK         0.1400 
     28 CB          1.6719  -21.7365  -42.5388 C.3       9 UNK        -0.1800 
     29 N           0.5596  -20.0273  -43.8968 N.am      9 UNK        -0.5000 
     30 C          -0.3953  -19.4190  -44.6185 C.2       8 UNK         0.5000 
     31 O          -1.4016  -19.9958  -45.0271 O.2       8 UNK        -0.5000 
     32 CA         -0.1754  -17.9400  -44.9951 C.3       8 UNK         0.1400 
     33 CB         -0.8439  -17.0375  -43.9520 C.3       8 UNK        -0.1800 
     34 N           1.2360  -17.5695  -45.1099 N.am      8 UNK        -0.5000 
     35 C           2.1273  -18.1525  -45.9263 C.2       7 UNK         0.5000 
     36 O           1.8112  -18.9788  -46.7827 O.2       7 UNK        -0.5000 
     37 CA          3.6213  -17.8213  -45.7084 C.3       7 UNK         0.1400 
     38 CB          4.1593  -16.9253  -46.8318 C.3       7 UNK        -0.1800 
     39 N           3.9161  -17.1866  -44.4204 N.am      7 UNK        -0.5000 
     40 C           3.6895  -17.7196  -43.2108 C.2       6 UNK         0.5000 
     41 O           3.2657  -18.8629  -43.0406 O.2       6 UNK        -0.5000 
     42 CA          3.9063  -16.8012  -41.9909 C.3       6 UNK         0.1400 
     43 CB          5.2673  -17.0906  -41.3403 C.3       6 UNK        -0.1800 
     44 N           3.8094  -15.3632  -42.2788 N.am      6 UNK        -0.5000 
     45 C           2.7395  -14.7338  -42.7856 C.2       5 UNK         0.5000 
     46 O           1.7077  -15.3087  -43.1390 O.2       5 UNK        -0.5000 
     47 CA          2.8709  -13.2165  -42.9679 C.3       5 UNK         0.1400 
     48 CB          3.7664  -12.8838  -44.1737 C.3       5 UNK        -0.1800 
     49 N           1.5502  -12.6245  -43.1706 N.am      5 UNK        -0.5000 
     50 C           1.1602  -11.4394  -42.6877 C.2       4 UNK         0.5000 
     51 O           1.8936  -10.7110  -42.0165 O.2       4 UNK        -0.5000 
     52 CA         -0.2723  -10.9632  -42.9993 C.3       4 UNK         0.1400 
     53 CB         -0.2423   -9.6595  -43.8154 C.3       4 UNK        -0.1800 
     54 N          -1.0835  -11.9464  -43.7227 N.am      4 UNK        -0.5000 
     55 C          -1.8938  -12.8428  -43.1408 C.2       3 UNK         0.5000 
     56 O          -1.9354  -13.0160  -41.9220 O.2       3 UNK        -0.5000 
     57 CA         -2.8451  -13.6550  -44.0472 C.3       3 UNK         0.1400 
     58 CB         -4.2971  -13.5591  -43.5471 C.3       3 UNK        -0.1800 
     59 N          -2.8096  -13.1956  -45.4362 N.am      3 UNK        -0.5000 
     60 C          -2.3313  -13.8883  -46.4766 C.2       2 UNK         0.5000 
     61 O          -1.8997  -15.0376  -46.3955 O.2       2 UNK        -0.5000 
     62 CA         -2.3068  -13.1696  -47.8446 C.3       2 UNK         0.1400 
     63 CB         -3.1611  -11.8833  -47.8968 C.3       2 UNK        -0.1800 
     64 N          -0.9419  -12.8756  -48.2925 N.am      2 UNK        -0.5000 
     65 C           0.0085  -12.2248  -47.6044 C.2       1 UNK         0.5000 
     66 O          -0.1427  -11.8009  -46.4581 O.2       1 UNK        -0.5000 
     67 C          -2.8944  -21.8270  -47.8145 C.2       11 UNK         0.5000 
     68 O          -3.7591  -22.3168  -48.5396 O.2       11 UNK        -0.5000 
     69 N          -2.8588  -22.0002  -46.4871 N.am      12 UNK        -0.5000 
     70 CA         -3.8194  -22.7804  -45.7084 C.3       12 UNK         0.1400 
     71 CB         -3.7539  -22.3067  -44.2480 C.3       12 UNK        -0.1800 
     72 C          -3.6037  -24.3057  -45.7854 C.2       12 UNK         0.5000 
     73 O          -4.4602  -25.0502  -45.3036 O.2       12 UNK        -0.5000 
     74 N          -2.4789  -24.7580  -46.3577 N.am      13 UNK        -0.5000 
     75 CA         -2.1021  -26.1696  -46.4454 C.3       13 UNK         0.1400 
     76 CB         -0.6752  -26.2942  -46.9993 C.3       13 UNK        -0.1800 
     77 C          -3.0889  -27.0111  -47.2774 C.2       13 UNK         0.5000 
     78 O          -3.7242  -26.4983  -48.2048 O.2       13 UNK        -0.5000 
     79 N          -3.1937  -28.2958  -46.9067 N.am      14 UNK        -0.5000 
     80 CA         -4.0865  -29.3085  -47.4814 C.3       14 UNK         0.1400 
     81 CB         -3.6435  -29.6631  -48.9168 C.3       14 UNK        -0.1800 
     82 C          -5.5758  -28.9134  -47.3768 C.2       14 UNK         0.5000 
     83 O          -6.3317  -29.0967  -48.3300 O.2       14 UNK        -0.5000 
     84 N          -5.9554  -28.3401  -46.2231 N.am      15 UNK        -0.5000 
     85 CA         -7.2754  -27.7730  -45.9126 C.3       15 UNK         0.1400 
     86 CB         -8.3471  -28.8806  -45.8320 C.3       15 UNK        -0.1800 
     87 C          -7.6553  -26.6245  -46.8727 C.2       15 UNK         0.5000 
     88 O          -8.7800  -26.5697  -47.3729 O.2       15 UNK        -0.5000 
     89 N          -6.6768  -25.7435  -47.1227 N.am      16 UNK        -0.5000 
     90 CA         -6.7046  -24.5971  -48.0337 C.3       16 UNK         0.1400 
     91 CB         -7.7133  -23.5326  -47.5566 C.3       16 UNK        -0.1800 
     92 C          -6.8752  -24.9697  -49.5214 C.2       16 UNK         0.5000 
     93 O          -7.2920  -24.1249  -50.3141 O.2       16 UNK        -0.5000 
     94 N          -6.5155  -26.2045  -49.9021 N.am      17 UNK        -0.5000 
     95 CA         -6.4348  -26.6260  -51.3039 C.3       17 UNK         0.1400 
     96 CB         -6.4593  -28.1575  -51.3962 C.3       17 UNK        -0.1800 
     97 C          -5.1880  -26.0551  -52.0071 C.2       17 UNK         0.5000 
     98 O          -5.1988  -25.9029  -53.2283 O.2       17 UNK        -0.5000 
     99 N          -4.1538  -25.7103  -51.2271 N.am      18 UNK        -0.5000 
    100 CA        -2.9172  -25.0713  -51.6804 C.3       18 UNK         0.1400 
    101 CB        -1.7767  -25.5332  -50.7603 C.3       18 UNK        -0.1800 
    102 C         -3.0189  -23.5286  -51.7333 C.2       18 UNK         0.5000 
    103 O         -1.9920  -22.8528  -51.6498 O.2       18 UNK        -0.5000 
    104 N         -4.2436  -22.9946  -51.8576 N.am      19 UNK        -0.5000 
    105 CA        -4.5570  -21.5656  -51.9009 C.3       19 UNK         0.1400 
    106 CB        -6.0788  -21.3840  -52.0080 C.3       19 UNK        -0.1800 
    107 C         -3.8452  -20.7997  -53.0336 C.2       19 UNK         0.5000 
    108 O         -3.5441  -21.3783  -54.0806 O.2       19 UNK        -0.5000 
    109 N         -3.6254  -19.5002  -52.7897 N.am      20 UNK        -0.5000 
    110 CA        -2.8484  -18.5580  -53.5972 C.3       20 UNK         0.1400 
    111 CB        -3.4716  -18.3484  -54.9930 C.3       20 UNK        -0.1800 
    112 C         -1.3631  -18.9619  -53.6384 C.2       20 UNK         0.5000 
    113 O         -0.8162  -19.2333  -54.7091 O.2       20 UNK        -0.5000 
    114 N         -0.7307  -18.9821  -52.4541 N.am      21 UNK        -0.5000 
    115 CA         0.6881  -19.3127  -52.2533 C.3       21 UNK         0.1400 
    116 CB         0.9877  -19.3671  -50.7478 C.3       21 UNK        -0.1800 
    117 C          1.6712  -18.3670  -52.9788 C.2       21 UNK         0.5000 
    118 O          2.8174  -18.7474  -53.2193 O.2       21 UNK        -0.5000 
    119 N          1.1884  -17.1767  -53.3516 N.am      22 UNK        -0.5000 
    120 CA         1.7983  -16.2513  -54.3162 C.3       22 UNK         0.1400 
    121 C          1.9490  -16.8042  -55.7674 C.2       22 UNK         0.5000 
    122 N          1.2473  -17.8579  -56.1688 N.am      22 UNK        -0.7600 
    123 O          2.7316  -16.2653  -56.5454 O.2       22 UNK        -0.5000 
    124 C124        1.0673  -14.8802  -54.3226 C.3       23 UNK        -0.0398 
    125 S125       -0.7625  -15.0122  -54.3568 S.3       23 UNK        -0.2404 
    126 C126       -1.2471  -14.1042  -52.8538 C.3       23 UNK        -0.0205 
    127 H127        1.0174   -9.7356  -52.2015 H         1 UNK         0.0600 
    128 H128       -0.4626  -10.6999  -52.2041 H         1 UNK         0.0600 
    129 H129        1.1137  -11.4959  -52.2827 H         1 UNK         0.0600 
    130 H130        1.6768  -12.4270  -50.3369 H         1 UNK         0.3000 
    131 H131        1.7317  -11.0460  -47.8870 H         1 UNK         0.0600 
    132 H132        2.1361  -13.6217  -47.0520 H         1 UNK         0.0800 
    133 H133        3.3438  -12.5870  -47.7187 H         1 UNK         0.0800 
    134 H134        1.4725  -15.7336  -47.8727 H         1 UNK         0.0800 
    135 H135        2.1399  -16.5879  -49.2403 H         1 UNK         0.0800 
    136 H136        0.9926  -14.3706  -51.3232 H         1 UNK         0.1150 
    137 H137       -3.0904  -15.6336  -51.5501 H         1 UNK         0.1150 
    138 H138       -0.6696  -16.7826  -48.2082 H         1 UNK         0.1150 
    139 H139       -3.2015  -16.9154  -48.1398 H         1 UNK         0.0800 
    140 H140       -4.1150  -16.6397  -49.5975 H         1 UNK         0.0800 
    141 H141       -2.4016  -19.1866  -47.3471 H         1 UNK         0.0800 
    142 H142       -1.0753  -18.9371  -48.4484 H         1 UNK         0.0800 
    143 H143       -1.6674  -21.2609  -49.4775 H         1 UNK         0.0600 
    144 H144       -0.0553  -20.6064  -47.2022 H         1 UNK         0.3000 
    145 H145        1.6246  -23.6976  -46.8972 H         1 UNK         0.0600 
    146 H146        3.6144  -22.2278  -47.2878 H         1 UNK         0.0600 
    147 H147        2.8334  -22.6867  -48.7934 H         1 UNK         0.0600 
    148 H148        2.5968  -21.0715  -48.1469 H         1 UNK         0.0600 
    149 H149        1.7991  -21.0136  -45.7612 H         1 UNK         0.3000 
    150 H150       -0.4069  -21.6615  -43.0550 H         1 UNK         0.0600 
    151 H151        1.6462  -22.7768  -42.2122 H         1 UNK         0.0600 
    152 H152        1.5776  -21.1133  -41.6494 H         1 UNK         0.0600 
    153 H153        2.6552  -21.5534  -42.9737 H         1 UNK         0.0600 
    154 H154        1.3757  -19.4979  -43.6078 H         1 UNK         0.3000 
    155 H155       -0.6470  -17.7614  -45.9629 H         1 UNK         0.0600 
    156 H156       -0.4497  -17.2158  -42.9506 H         1 UNK         0.0600 
    157 H157       -1.9212  -17.2048  -43.9217 H         1 UNK         0.0600 
    158 H158       -0.6793  -15.9876  -44.1889 H         1 UNK         0.0600 
    159 H159        1.5646  -16.8804  -44.4413 H         1 UNK         0.3000 
    160 H160        4.1617  -18.7694  -45.7409 H         1 UNK         0.0600 
    161 H161        3.7053  -15.9347  -46.8063 H         1 UNK         0.0600 
    162 H162        3.9610  -17.3608  -47.8118 H         1 UNK         0.0600 
    163 H163        5.2389  -16.7984  -46.7502 H         1 UNK         0.0600 
    164 H164        4.2614  -16.2394  -44.4564 H         1 UNK         0.3000 
    165 H165        3.1242  -17.0421  -41.2681 H         1 UNK         0.0600 
    166 H166        5.3922  -16.5254  -40.4166 H         1 UNK         0.0600 
    167 H167        5.3634  -18.1475  -41.0872 H         1 UNK         0.0600 
    168 H168        6.0932  -16.8361  -42.0057 H         1 UNK         0.0600 
    169 H169        4.6197  -14.8122  -42.0338 H         1 UNK         0.3000 
    170 H170        3.3248  -12.8155  -42.0592 H         1 UNK         0.0600 
    171 H171        4.7809  -13.2561  -44.0276 H         1 UNK         0.0600 
    172 H172        3.3831  -13.3288  -45.0911 H         1 UNK         0.0600 
    173 H173        3.8373  -11.8069  -44.3282 H         1 UNK         0.0600 
    174 H174        0.8799  -13.2101  -43.6507 H         1 UNK         0.3000 
    175 H175       -0.7474  -10.7390  -42.0420 H         1 UNK         0.0600 
    176 H176        0.2782   -9.7889  -44.7646 H         1 UNK         0.0600 
    177 H177       -1.2502   -9.3044  -44.0308 H         1 UNK         0.0600 
    178 H178        0.2694   -8.8664  -43.2689 H         1 UNK         0.0600 
    179 H179       -1.0162  -11.9131  -44.7369 H         1 UNK         0.3000 
    180 H180       -2.5408  -14.6987  -43.9791 H         1 UNK         0.0600 
    181 H181       -4.9682  -14.1453  -44.1752 H         1 UNK         0.0600 
    182 H182       -4.6546  -12.5288  -43.5446 H         1 UNK         0.0600 
    183 H183       -4.3912  -13.9433  -42.5306 H         1 UNK         0.0600 
    184 H184       -3.1209  -12.2483  -45.5974 H         1 UNK         0.3000 
    185 H185       -2.7297  -13.8704  -48.5643 H         1 UNK         0.0600 
    186 H186       -3.1879  -11.4805  -48.9094 H         1 UNK         0.0600 
    187 H187       -4.1934  -12.0814  -47.6052 H         1 UNK         0.0600 
    188 H188       -2.7707  -11.0997  -47.2462 H         1 UNK         0.0600 
    189 H189       -0.7001  -13.2274  -49.2079 H         1 UNK         0.3000 
    190 H190       -2.1531  -21.4993  -45.9543 H         1 UNK         0.3000 
    191 H191       -4.8224  -22.5747  -46.0877 H         1 UNK         0.0600 
    192 H192       -4.4883  -22.8265  -43.6314 H         1 UNK         0.0600 
    193 H193       -3.9620  -21.2394  -44.1696 H         1 UNK         0.0600 
    194 H194       -2.7702  -22.4883  -43.8131 H         1 UNK         0.0600 
    195 H195       -1.8343  -24.0896  -46.7540 H         1 UNK         0.3000 
    196 H196       -2.1006  -26.5585  -45.4251 H         1 UNK         0.0600 
    197 H197       -0.6077  -25.9496  -48.0298 H         1 UNK         0.0600 
    198 H198        0.0322  -25.7163  -46.4049 H         1 UNK         0.0600 
    199 H199       -0.3391  -27.3315  -46.9832 H         1 UNK         0.0600 
    200 H200       -2.6259  -28.6156  -46.1341 H         1 UNK         0.3000 
    201 H201       -3.9730  -30.2070  -46.8732 H         1 UNK         0.0600 
    202 H202       -3.6973  -28.8029  -49.5837 H         1 UNK         0.0600 
    203 H203       -4.2681  -30.4501  -49.3409 H         1 UNK         0.0600 
    204 H204       -2.6158  -30.0258  -48.9293 H         1 UNK         0.0600 
    205 H205       -5.2504  -28.2128  -45.5106 H         1 UNK         0.3000 
    206 H206       -7.1925  -27.3244  -44.9215 H         1 UNK         0.0600 
    207 H207       -8.0512  -29.6652  -45.1357 H         1 UNK         0.0600 
    208 H208       -9.2978  -28.4777  -45.4811 H         1 UNK         0.0600 
    209 H209       -8.5282  -29.3440  -46.8023 H         1 UNK         0.0600 
    210 H210       -5.7951  -25.8714  -46.6370 H         1 UNK         0.3000 
    211 H211       -5.7121  -24.1514  -47.9688 H         1 UNK         0.0600 
    212 H212       -7.6142  -22.6134  -48.1352 H         1 UNK         0.0600 
    213 H213       -7.5473  -23.2738  -46.5109 H         1 UNK         0.0600 
    214 H214       -8.7431  -23.8748  -47.6604 H         1 UNK         0.0600 
    215 H215       -6.1931  -26.8616  -49.2032 H         1 UNK         0.3000 
    216 H216       -7.3135  -26.2490  -51.8316 H         1 UNK         0.0600 
    217 H217       -5.5849  -28.6045  -50.9258 H         1 UNK         0.0600 
    218 H218       -6.4725  -28.4844  -52.4366 H         1 UNK         0.0600 
    219 H219       -7.3473  -28.5679  -50.9151 H         1 UNK         0.0600 
    220 H220       -4.2254  -25.8683  -50.2275 H         1 UNK         0.3000 
    221 H221       -2.6882  -25.4116  -52.6921 H         1 UNK         0.0600 
    222 H222       -1.7231  -26.6205  -50.7025 H         1 UNK         0.0600 
    223 H223       -1.9188  -25.1483  -49.7508 H         1 UNK         0.0600 
    224 H224       -0.8089  -25.1761  -51.1142 H         1 UNK         0.0600 
    225 H225       -5.0283  -23.6245  -51.9290 H         1 UNK         0.3000 
    226 H226       -4.2294  -21.1459  -50.9501 H         1 UNK         0.0600 
    227 H227       -6.4873  -21.9088  -52.8723 H         1 UNK         0.0600 
    228 H228       -6.5808  -21.7559  -51.1158 H         1 UNK         0.0600 
    229 H229       -6.3469  -20.3312  -52.1053 H         1 UNK         0.0600 
    230 H230       -3.9161  -19.1432  -51.8887 H         1 UNK         0.3000 
    231 H231       -2.8942  -17.5986  -53.0811 H         1 UNK         0.0600 
    232 H232       -3.4223  -19.2475  -55.6073 H         1 UNK         0.0600 
    233 H233       -2.9469  -17.5590  -55.5328 H         1 UNK         0.0600 
    234 H234       -4.5172  -18.0506  -54.9167 H         1 UNK         0.0600 
    235 H235       -1.2563  -18.7538  -51.6225 H         1 UNK         0.3000 
    236 H236        0.8499  -20.3111  -52.6646 H         1 UNK         0.0600 
    237 H237        0.4085  -20.1520  -50.2647 H         1 UNK         0.0600 
    238 H238        2.0400  -19.5850  -50.5609 H         1 UNK         0.0600 
    239 H239        0.7564  -18.4237  -50.2560 H         1 UNK         0.0600 
    240 H240        0.2391  -16.9516  -53.0928 H         1 UNK         0.3000 
    241 H241        2.8178  -16.0726  -53.9694 H         1 UNK         0.0600 
    242 H242        1.3669  -18.1978  -57.1094 H         1 UNK         0.3800 
    243 H243        0.5708  -18.3111  -55.5593 H         1 UNK         0.3800 
    244 H244        1.3815  -14.2692  -55.1708 H         1 UNK         0.0800 
    245 H245        1.3766  -14.3066  -53.4521 H         1 UNK         0.0800 
    246 H246       -2.2936  -13.8122  -52.9533 H         1 UNK         0.0800 
    247 H247       -0.6864  -13.1716  -52.7929 H         1 UNK         0.0800 
@<TRIPOS>BOND
     1    1    2 1    
     2    1  127 1    
     3    1  128 1    
     4    1  129 1    
     5    2    3 2    
     6    2    4 am   BACKBONE|DICT|INTERRES
     7    4    5 1    
     8    4  130 1    
     9    5    6 1    
    10    5   65 1    
    11    5  131 1    
    12    6    7 1    
    13    6  132 1    
    14    6  133 1    
    15    7    8 1    
    16    8    9 1    
    17    8  134 1    
    18    8  135 1    
    19    9   10 ar   
    20    9   14 ar   
    21   10   11 ar   
    22   10  136 1    
    23   11   12 ar   
    24   11  126 1    
    25   12   13 ar   
    26   12  137 1    
    27   13   14 ar   
    28   13   15 1    
    29   14  138 1    
    30   15   16 1    
    31   15  139 1    
    32   15  140 1    
    33   16   17 1    
    34   17   18 1    
    35   17  141 1    
    36   17  142 1    
    37   18   19 1    
    38   18   67 1    
    39   18  143 1    
    40   19   20 am   BACKBONE|DICT|INTERRES
    41   19  144 1    
    42   20   21 2    
    43   20   22 1    
    44   22   23 1    
    45   22   24 1    
    46   22  145 1    
    47   23  146 1    
    48   23  147 1    
    49   23  148 1    
    50   24   25 am   BACKBONE|DICT|INTERRES
    51   24  149 1    
    52   25   26 2    
    53   25   27 1    
    54   27   28 1    
    55   27   29 1    
    56   27  150 1    
    57   28  151 1    
    58   28  152 1    
    59   28  153 1    
    60   29   30 am   BACKBONE|DICT|INTERRES
    61   29  154 1    
    62   30   31 2    
    63   30   32 1    
    64   32   33 1    
    65   32   34 1    
    66   32  155 1    
    67   33  156 1    
    68   33  157 1    
    69   33  158 1    
    70   34   35 am   BACKBONE|DICT|INTERRES
    71   34  159 1    
    72   35   36 2    
    73   35   37 1    
    74   37   38 1    
    75   37   39 1    
    76   37  160 1    
    77   38  161 1    
    78   38  162 1    
    79   38  163 1    
    80   39   40 am   BACKBONE|DICT|INTERRES
    81   39  164 1    
    82   40   41 2    
    83   40   42 1    
    84   42   43 1    
    85   42   44 1    
    86   42  165 1    
    87   43  166 1    
    88   43  167 1    
    89   43  168 1    
    90   44   45 am   BACKBONE|DICT|INTERRES
    91   44  169 1    
    92   45   46 2    
    93   45   47 1    
    94   47   48 1    
    95   47   49 1    
    96   47  170 1    
    97   48  171 1    
    98   48  172 1    
    99   48  173 1    
   100   49   50 am   BACKBONE|DICT|INTERRES
   101   49  174 1    
   102   50   51 2    
   103   50   52 1    
   104   52   53 1    
   105   52   54 1    
   106   52  175 1    
   107   53  176 1    
   108   53  177 1    
   109   53  178 1    
   110   54   55 am   BACKBONE|DICT|INTERRES
   111   54  179 1    
   112   55   56 2    
   113   55   57 1    
   114   57   58 1    
   115   57   59 1    
   116   57  180 1    
   117   58  181 1    
   118   58  182 1    
   119   58  183 1    
   120   59   60 am   BACKBONE|DICT|INTERRES
   121   59  184 1    
   122   60   61 2    
   123   60   62 1    
   124   62   63 1    
   125   62   64 1    
   126   62  185 1    
   127   63  186 1    
   128   63  187 1    
   129   63  188 1    
   130   64   65 am   BACKBONE|DICT|INTERRES
   131   64  189 1    
   132   65   66 2    
   133   67   68 2    
   134   67   69 am   BACKBONE|DICT|INTERRES
   135   69   70 1    
   136   69  190 1    
   137   70   71 1    
   138   70   72 1    
   139   70  191 1    
   140   71  192 1    
   141   71  193 1    
   142   71  194 1    
   143   72   73 2    
   144   72   74 am   BACKBONE|DICT|INTERRES
   145   74   75 1    
   146   74  195 1    
   147   75   76 1    
   148   75   77 1    
   149   75  196 1    
   150   76  197 1    
   151   76  198 1    
   152   76  199 1    
   153   77   78 2    
   154   77   79 am   BACKBONE|DICT|INTERRES
   155   79   80 1    
   156   79  200 1    
   157   80   81 1    
   158   80   82 1    
   159   80  201 1    
   160   81  202 1    
   161   81  203 1    
   162   81  204 1    
   163   82   83 2    
   164   82   84 am   BACKBONE|DICT|INTERRES
   165   84   85 1    
   166   84  205 1    
   167   85   86 1    
   168   85   87 1    
   169   85  206 1    
   170   86  207 1    
   171   86  208 1    
   172   86  209 1    
   173   87   88 2    
   174   87   89 am   BACKBONE|DICT|INTERRES
   175   89   90 1    
   176   89  210 1    
   177   90   91 1    
   178   90   92 1    
   179   90  211 1    
   180   91  212 1    
   181   91  213 1    
   182   91  214 1    
   183   92   93 2    
   184   92   94 am   BACKBONE|DICT|INTERRES
   185   94   95 1    
   186   94  215 1    
   187   95   96 1    
   188   95   97 1    
   189   95  216 1    
   190   96  217 1    
   191   96  218 1    
   192   96  219 1    
   193   97   98 2    
   194   97   99 am   BACKBONE|DICT|INTERRES
   195   99  100 1    
   196   99  220 1    
   197  100  101 1    
   198  100  102 1    
   199  100  221 1    
   200  101  222 1    
   201  101  223 1    
   202  101  224 1    
   203  102  103 2    
   204  102  104 am   BACKBONE|DICT|INTERRES
   205  104  105 1    
   206  104  225 1    
   207  105  106 1    
   208  105  107 1    
   209  105  226 1    
   210  106  227 1    
   211  106  228 1    
   212  106  229 1    
   213  107  108 2    
   214  107  109 am   BACKBONE|DICT|INTERRES
   215  109  110 1    
   216  109  230 1    
   217  110  111 1    
   218  110  112 1    
   219  110  231 1    
   220  111  232 1    
   221  111  233 1    
   222  111  234 1    
   223  112  113 2    
   224  112  114 am   BACKBONE|DICT|INTERRES
   225  114  115 1    
   226  114  235 1    
   227  115  116 1    
   228  115  117 1    
   229  115  236 1    
   230  116  237 1    
   231  116  238 1    
   232  116  239 1    
   233  117  118 2    
   234  117  119 am   BACKBONE|DICT|INTERRES
   235  119  120 1    
   236  119  240 1    
   237  120  121 1    
   238  120  124 1    
   239  120  241 1    
   240  121  122 am   BACKBONE|DICT|INTERRES
   241  121  123 2    
   242  122  242 1    
   243  122  243 1    
   244  124  125 1    
   245  124  244 1    
   246  124  245 1    
   247  125  126 1    
   248  126  246 1    
   249  126  247 1    
@<TRIPOS>SUBSTRUCTURE
     1 UNK         1 GROUP             0       ****    0 ROOT    
