@<TRIPOS>MOLECULE
3R540
247   249    1
SMALL
USER_CHARGES


@<TRIPOS>ATOM
      1 CA         -2.0586  -11.3626  -48.8020 C.3       0 UNK        -0.1800 
      2 C          -0.8481  -11.7558  -47.9680 C.2       0 UNK         0.5000 
      3 O          -0.4074  -10.9767  -47.1224 O.2       0 UNK        -0.5000 
      4 N          -0.3179  -12.9682  -48.1887 N.am      1 UNK        -0.5000 
      5 CA          0.8642  -13.5114  -47.5006 C.3       1 UNK         0.1400 
      6 C6          1.3687  -14.8229  -48.1600 C.3       23 UNK        -0.0398 
      7 S7          3.1899  -14.9243  -48.1822 S.3       23 UNK        -0.2404 
      8 C8          3.5142  -15.5141  -49.8727 C.3       23 UNK        -0.0205 
      9 C9          3.0895  -16.9631  -50.0652 C.ar      23 UNK        -0.0193 
     10 C10         1.9686  -17.2780  -50.8383 C.ar      23 UNK        -0.1150 
     11 C11         1.6075  -18.6112  -51.0523 C.ar      23 UNK        -0.0193 
     12 C12         2.3734  -19.6321  -50.4834 C.ar      23 UNK        -0.1150 
     13 C13         3.4835  -19.3319  -49.6860 C.ar      23 UNK        -0.0193 
     14 C14         3.8375  -17.9938  -49.4889 C.ar      23 UNK        -0.1150 
     15 C15         4.3361  -20.4333  -49.0611 C.3       23 UNK        -0.0205 
     16 S16         3.3840  -21.8195  -48.3518 S.3       23 UNK        -0.2404 
     17 C17         2.4477  -21.0051  -47.0129 C.3       23 UNK        -0.0398 
     18 CA          1.0032  -21.5521  -46.8949 C.3       11 UNK         0.1400 
     19 N           0.4553  -21.3614  -45.5490 N.am      11 UNK        -0.5000 
     20 C          -0.6462  -21.9639  -45.0775 C.2       10 UNK         0.5000 
     21 O          -1.2891  -22.8051  -45.7060 O.2       10 UNK        -0.5000 
     22 CA         -1.1243  -21.5408  -43.6750 C.3       10 UNK         0.1400 
     23 CB         -0.4102  -22.3507  -42.5823 C.3       10 UNK        -0.1800 
     24 N          -0.9364  -20.1117  -43.4250 N.am      10 UNK        -0.5000 
     25 C          -1.6029  -19.1371  -44.0599 C.2       9 UNK         0.5000 
     26 O          -2.5036  -19.3394  -44.8728 O.2       9 UNK        -0.5000 
     27 CA         -1.1629  -17.6931  -43.7611 C.3       9 UNK         0.1400 
     28 CB         -1.8092  -17.1956  -42.4563 C.3       9 UNK        -0.1800 
     29 N           0.2944  -17.5551  -43.6878 N.am      9 UNK        -0.5000 
     30 C           1.1342  -17.7813  -44.7098 C.2       8 UNK         0.5000 
     31 O           0.7608  -18.0591  -45.8477 O.2       8 UNK        -0.5000 
     32 CA          2.6418  -17.7703  -44.3975 C.3       8 UNK         0.1400 
     33 CB          3.2322  -16.3599  -44.5017 C.3       8 UNK        -0.1800 
     34 N           2.9292  -18.3212  -43.0753 N.am      8 UNK        -0.5000 
     35 C           2.8240  -19.6190  -42.7603 C.2       7 UNK         0.5000 
     36 O           2.5232  -20.4943  -43.5710 O.2       7 UNK        -0.5000 
     37 CA          3.0412  -19.9860  -41.2807 C.3       7 UNK         0.1400 
     38 CB          4.5374  -20.1543  -40.9780 C.3       7 UNK        -0.1800 
     39 N           2.4715  -18.9857  -40.3753 N.am      7 UNK        -0.5000 
     40 C           1.1588  -18.7410  -40.2515 C.2       6 UNK         0.5000 
     41 O           0.2915  -19.3927  -40.8319 O.2       6 UNK        -0.5000 
     42 CA          0.7531  -17.5356  -39.3795 C.3       6 UNK         0.1400 
     43 CB          0.5391  -17.9717  -37.9229 C.3       6 UNK        -0.1800 
     44 N           1.7336  -16.4455  -39.4228 N.am      6 UNK        -0.5000 
     45 C           2.0154  -15.7233  -40.5152 C.2       5 UNK         0.5000 
     46 O           1.4368  -15.8638  -41.5950 O.2       5 UNK        -0.5000 
     47 CA          3.1987  -14.7537  -40.4011 C.3       5 UNK         0.1400 
     48 CB          4.5211  -15.5498  -40.4579 C.3       5 UNK        -0.1800 
     49 N           3.1454  -13.7791  -41.4895 N.am      5 UNK        -0.5000 
     50 C           3.9314  -12.7004  -41.6032 C.2       4 UNK         0.5000 
     51 O           4.7592  -12.3638  -40.7552 O.2       4 UNK        -0.5000 
     52 CA          3.7746  -11.8504  -42.8753 C.3       4 UNK         0.1400 
     53 CB          4.4881  -12.5135  -44.0644 C.3       4 UNK        -0.1800 
     54 N           2.3747  -11.5979  -43.2145 N.am      4 UNK        -0.5000 
     55 C           1.6070  -10.6894  -42.5918 C.2       3 UNK         0.5000 
     56 O           2.0060   -9.9905  -41.6590 O.2       3 UNK        -0.5000 
     57 CA          0.1593  -10.5020  -43.0928 C.3       3 UNK         0.1400 
     58 CB          0.0645   -9.2737  -44.0106 C.3       3 UNK        -0.1800 
     59 N          -0.3638  -11.6635  -43.8084 N.am      3 UNK        -0.5000 
     60 C          -0.6609  -12.8373  -43.2349 C.2       2 UNK         0.5000 
     61 O          -0.6200  -13.0288  -42.0196 O.2       2 UNK        -0.5000 
     62 CA         -1.0486  -14.0008  -44.1691 C.3       2 UNK         0.1400 
     63 CB         -2.5705  -14.2144  -44.1502 C.3       2 UNK        -0.1800 
     64 N          -0.6150  -13.8537  -45.5607 N.am      2 UNK        -0.5000 
     65 C           0.6492  -13.6965  -45.9810 C.2       1 UNK         0.5000 
     66 O           1.6115  -13.6426  -45.2173 O.2       1 UNK        -0.5000 
     67 C           0.0753  -20.9783  -47.9886 C.2       11 UNK         0.5000 
     68 O          -0.0596  -21.5873  -49.0488 O.2       11 UNK        -0.5000 
     69 N          -0.5765  -19.8416  -47.7107 N.am      12 UNK        -0.5000 
     70 CA         -1.5300  -19.1645  -48.5897 C.3       12 UNK         0.1400 
     71 CB         -1.6812  -17.7040  -48.1304 C.3       12 UNK        -0.1800 
     72 C          -2.8821  -19.9018  -48.7049 C.2       12 UNK         0.5000 
     73 O          -3.9201  -19.3568  -48.3257 O.2       12 UNK        -0.5000 
     74 N          -2.8465  -21.1315  -49.2355 N.am      13 UNK        -0.5000 
     75 CA         -4.0162  -21.9674  -49.5079 C.3       13 UNK         0.1400 
     76 CB         -3.5553  -23.3939  -49.8370 C.3       13 UNK        -0.1800 
     77 C          -4.8992  -21.3780  -50.6251 C.2       13 UNK         0.5000 
     78 O          -6.1248  -21.3637  -50.4877 O.2       13 UNK        -0.5000 
     79 N          -4.2435  -20.8586  -51.6745 N.am      14 UNK        -0.5000 
     80 CA         -4.7305  -19.8966  -52.6684 C.3       14 UNK         0.1400 
     81 CB         -4.8698  -18.5113  -52.0048 C.3       14 UNK        -0.1800 
     82 C          -5.9987  -20.3093  -53.4426 C.2       14 UNK         0.5000 
     83 O          -6.7724  -19.4397  -53.8463 O.2       14 UNK        -0.5000 
     84 N          -6.2080  -21.6232  -53.6126 N.am      15 UNK        -0.5000 
     85 CA         -7.3917  -22.2619  -54.2060 C.3       15 UNK         0.1400 
     86 CB         -7.5861  -21.8420  -55.6775 C.3       15 UNK        -0.1800 
     87 C          -8.6791  -22.1105  -53.3654 C.2       15 UNK         0.5000 
     88 O          -9.7477  -22.5162  -53.8245 O.2       15 UNK        -0.5000 
     89 N          -8.5609  -21.5692  -52.1458 N.am      16 UNK        -0.5000 
     90 CA         -9.6380  -21.4559  -51.1689 C.3       16 UNK         0.1400 
     91 CB         -9.4723  -20.1527  -50.3700 C.3       16 UNK        -0.1800 
     92 C          -9.6237  -22.6830  -50.2478 C.2       16 UNK         0.5000 
     93 O         -10.6469  -23.3552  -50.1138 O.2       16 UNK        -0.5000 
     94 N          -8.4541  -22.9706  -49.6593 N.am      17 UNK        -0.5000 
     95 CA         -8.2218  -24.1660  -48.8481 C.3       17 UNK         0.1400 
     96 CB         -7.1679  -23.8619  -47.7733 C.3       17 UNK        -0.1800 
     97 C          -7.7810  -25.3523  -49.7218 C.2       17 UNK         0.5000 
     98 O          -8.2384  -26.4741  -49.5011 O.2       17 UNK        -0.5000 
     99 N          -6.9160  -25.0774  -50.7053 N.am      18 UNK        -0.5000 
    100 CA        -6.3671  -26.0262  -51.6673 C.3       18 UNK         0.1400 
    101 CB        -5.3660  -26.9812  -50.9882 C.3       18 UNK        -0.1800 
    102 C         -5.6686  -25.2271  -52.7727 C.2       18 UNK         0.5000 
    103 O         -5.1813  -24.1239  -52.5150 O.2       18 UNK        -0.5000 
    104 N         -5.6182  -25.7918  -53.9833 N.am      19 UNK        -0.5000 
    105 CA        -4.9413  -25.1956  -55.1406 C.3       19 UNK         0.1400 
    106 CB        -5.6209  -25.6976  -56.4236 C.3       19 UNK        -0.1800 
    107 C         -3.4277  -25.4894  -55.1728 C.2       19 UNK         0.5000 
    108 O         -2.7155  -24.8933  -55.9811 O.2       19 UNK        -0.5000 
    109 N         -2.9629  -26.3946  -54.2992 N.am      20 UNK        -0.5000 
    110 CA        -1.5859  -26.8883  -54.2095 C.3       20 UNK         0.1400 
    111 CB        -1.5342  -28.0004  -53.1500 C.3       20 UNK        -0.1800 
    112 C         -0.5232  -25.8126  -53.9068 C.2       20 UNK         0.5000 
    113 O          0.6458  -26.0193  -54.2362 O.2       20 UNK        -0.5000 
    114 N         -0.9371  -24.6952  -53.2990 N.am      21 UNK        -0.5000 
    115 CA        -0.0957  -23.5418  -53.0142 C.3       21 UNK         0.1400 
    116 CB         0.2904  -23.5432  -51.5284 C.3       21 UNK        -0.1800 
    117 C         -0.8671  -22.2813  -53.4216 C.2       21 UNK         0.5000 
    118 O         -1.7767  -21.8596  -52.7050 O.2       21 UNK        -0.5000 
    119 N         -0.4979  -21.7261  -54.5814 N.am      22 UNK        -0.5000 
    120 CA        -1.0676  -20.5134  -55.1975 C.3       22 UNK         0.1400 
    121 C         -2.5003  -20.6895  -55.7895 C.2       22 UNK         0.5000 
    122 N         -2.9945  -21.9011  -56.0073 N.am      22 UNK        -0.7600 
    123 O         -3.1770  -19.7081  -56.0831 O.2       22 UNK        -0.5000 
    124 C124       -0.9557  -19.2401  -54.3084 C.3       23 UNK        -0.0398 
    125 S125        0.7241  -18.9236  -53.6629 S.3       23 UNK        -0.2404 
    126 C126        0.3777  -18.9458  -51.8793 C.3       23 UNK        -0.0205 
    127 H127       -2.9129  -11.1676  -48.1538 H         1 UNK         0.0600 
    128 H128       -2.3378  -12.1458  -49.5073 H         1 UNK         0.0600 
    129 H129       -1.8447  -10.4559  -49.3678 H         1 UNK         0.0600 
    130 H130       -0.7317  -13.5612  -48.8939 H         1 UNK         0.3000 
    131 H131        1.6393  -12.7491  -47.6089 H         1 UNK         0.0600 
    132 H132        0.9772  -15.7115  -47.6619 H         1 UNK         0.0800 
    133 H133        1.0160  -14.8856  -49.1899 H         1 UNK         0.0800 
    134 H134        4.5830  -15.4282  -50.0733 H         1 UNK         0.0800 
    135 H135        3.0186  -14.8602  -50.5920 H         1 UNK         0.0800 
    136 H136        1.3821  -16.4878  -51.2855 H         1 UNK         0.1150 
    137 H137        2.0962  -20.6627  -50.6523 H         1 UNK         0.1150 
    138 H138        4.7034  -17.7478  -48.8900 H         1 UNK         0.1150 
    139 H139        5.0022  -20.8278  -49.8292 H         1 UNK         0.0800 
    140 H140        4.9775  -20.0238  -48.2789 H         1 UNK         0.0800 
    141 H141        2.4492  -19.9212  -47.1408 H         1 UNK         0.0800 
    142 H142        2.9983  -21.1984  -46.0919 H         1 UNK         0.0800 
    143 H143        1.0439  -22.6325  -47.0518 H         1 UNK         0.0600 
    144 H144        0.9648  -20.7372  -44.9343 H         1 UNK         0.3000 
    145 H145       -2.1931  -21.7552  -43.6102 H         1 UNK         0.0600 
    146 H146       -0.7851  -22.0920  -41.5918 H         1 UNK         0.0600 
    147 H147       -0.5704  -23.4204  -42.7226 H         1 UNK         0.0600 
    148 H148        0.6658  -22.1770  -42.5872 H         1 UNK         0.0600 
    149 H149       -0.2641  -19.8551  -42.7092 H         1 UNK         0.3000 
    150 H150       -1.5072  -17.0626  -44.5824 H         1 UNK         0.0600 
    151 H151       -2.8843  -17.0686  -42.5868 H         1 UNK         0.0600 
    152 H152       -1.4037  -16.2372  -42.1345 H         1 UNK         0.0600 
    153 H153       -1.6692  -17.8997  -41.6373 H         1 UNK         0.0600 
    154 H154        0.6844  -17.2552  -42.8006 H         1 UNK         0.3000 
    155 H155        3.1387  -18.3947  -45.1432 H         1 UNK         0.0600 
    156 H156        2.7699  -15.6701  -43.7978 H         1 UNK         0.0600 
    157 H157        3.0783  -15.9539  -45.4997 H         1 UNK         0.0600 
    158 H158        4.3060  -16.3623  -44.3149 H         1 UNK         0.0600 
    159 H159        3.1342  -17.6586  -42.3437 H         1 UNK         0.3000 
    160 H160        2.5431  -20.9402  -41.0958 H         1 UNK         0.0600 
    161 H161        5.0871  -19.2234  -41.1230 H         1 UNK         0.0600 
    162 H162        4.9847  -20.9053  -41.6306 H         1 UNK         0.0600 
    163 H163        4.6969  -20.4820  -39.9506 H         1 UNK         0.0600 
    164 H164        3.1206  -18.4198  -39.8499 H         1 UNK         0.3000 
    165 H165       -0.1943  -17.1523  -39.7637 H         1 UNK         0.0600 
    166 H166        0.1787  -17.1437  -37.3123 H         1 UNK         0.0600 
    167 H167       -0.2041  -18.7678  -37.8596 H         1 UNK         0.0600 
    168 H168        1.4599  -18.3456  -37.4735 H         1 UNK         0.0600 
    169 H169        2.2531  -16.2751  -38.5735 H         1 UNK         0.3000 
    170 H170        3.1223  -14.2245  -39.4493 H         1 UNK         0.0600 
    171 H171        4.5560  -16.3221  -39.6888 H         1 UNK         0.0600 
    172 H172        4.6520  -16.0403  -41.4233 H         1 UNK         0.0600 
    173 H173        5.3862  -14.9082  -40.2935 H         1 UNK         0.0600 
    174 H174        2.4514  -13.9788  -42.1994 H         1 UNK         0.3000 
    175 H175        4.2629  -10.8899  -42.6963 H         1 UNK         0.0600 
    176 H176        4.0851  -13.5027  -44.2810 H         1 UNK         0.0600 
    177 H177        4.3960  -11.9103  -44.9678 H         1 UNK         0.0600 
    178 H178        5.5525  -12.6344  -43.8600 H         1 UNK         0.0600 
    179 H179        1.9786  -12.1677  -43.9561 H         1 UNK         0.3000 
    180 H180       -0.4715  -10.3252  -42.2191 H         1 UNK         0.0600 
    181 H181        0.6700   -9.3972  -44.9097 H         1 UNK         0.0600 
    182 H182        0.4129   -8.3749  -43.5000 H         1 UNK         0.0600 
    183 H183       -0.9641   -9.0919  -44.3225 H         1 UNK         0.0600 
    184 H184       -0.4200  -11.5867  -44.8160 H         1 UNK         0.3000 
    185 H185       -0.5535  -14.8879  -43.7769 H         1 UNK         0.0600 
    186 H186       -2.8606  -15.0836  -44.7401 H         1 UNK         0.0600 
    187 H187       -2.9314  -14.3771  -43.1338 H         1 UNK         0.0600 
    188 H188       -3.0998  -13.3484  -44.5497 H         1 UNK         0.0600 
    189 H189       -1.3443  -13.8527  -46.2583 H         1 UNK         0.3000 
    190 H190       -0.3718  -19.3736  -46.8341 H         1 UNK         0.3000 
    191 H191       -1.1051  -19.1432  -49.5912 H         1 UNK         0.0600 
    192 H192       -2.0612  -17.6400  -47.1103 H         1 UNK         0.0600 
    193 H193       -2.3685  -17.1564  -48.7763 H         1 UNK         0.0600 
    194 H194       -0.7240  -17.1867  -48.1647 H         1 UNK         0.0600 
    195 H195       -1.9349  -21.5138  -49.4719 H         1 UNK         0.3000 
    196 H196       -4.6100  -21.9999  -48.5932 H         1 UNK         0.0600 
    197 H197       -3.0248  -23.4391  -50.7884 H         1 UNK         0.0600 
    198 H198       -2.8937  -23.7855  -49.0640 H         1 UNK         0.0600 
    199 H199       -4.4065  -24.0690  -49.9039 H         1 UNK         0.0600 
    200 H200       -3.2562  -21.0865  -51.7633 H         1 UNK         0.3000 
    201 H201       -3.9458  -19.8210  -53.4180 H         1 UNK         0.0600 
    202 H202       -5.6689  -18.5024  -51.2624 H         1 UNK         0.0600 
    203 H203       -5.0935  -17.7386  -52.7412 H         1 UNK         0.0600 
    204 H204       -3.9462  -18.2197  -51.5044 H         1 UNK         0.0600 
    205 H205       -5.5404  -22.2665  -53.1963 H         1 UNK         0.3000 
    206 H206       -7.1870  -23.3300  -54.2159 H         1 UNK         0.0600 
    207 H207       -7.9041  -20.8034  -55.7687 H         1 UNK         0.0600 
    208 H208       -6.6651  -21.9643  -56.2473 H         1 UNK         0.0600 
    209 H209       -8.3475  -22.4558  -56.1600 H         1 UNK         0.0600 
    210 H210       -7.6362  -21.3035  -51.8239 H         1 UNK         0.3000 
    211 H211      -10.6040  -21.4182  -51.6771 H         1 UNK         0.0600 
    212 H212       -9.5259  -19.2835  -51.0257 H         1 UNK         0.0600 
    213 H213       -8.5179  -20.1120  -49.8438 H         1 UNK         0.0600 
    214 H214      -10.2630  -20.0488  -49.6260 H         1 UNK         0.0600 
    215 H215       -7.6585  -22.3630  -49.8314 H         1 UNK         0.3000 
    216 H216       -9.1455  -24.4462  -48.3368 H         1 UNK         0.0600 
    217 H217       -7.0288  -24.7190  -47.1132 H         1 UNK         0.0600 
    218 H218       -7.4681  -23.0177  -47.1525 H         1 UNK         0.0600 
    219 H219       -6.1993  -23.6294  -48.2121 H         1 UNK         0.0600 
    220 H220       -6.5993  -24.1268  -50.8446 H         1 UNK         0.3000 
    221 H221       -7.1874  -26.5979  -52.1058 H         1 UNK         0.0600 
    222 H222       -5.8435  -27.5773  -50.2108 H         1 UNK         0.0600 
    223 H223       -4.5384  -26.4386  -50.5301 H         1 UNK         0.0600 
    224 H224       -4.9403  -27.6807  -51.7083 H         1 UNK         0.0600 
    225 H225       -6.0467  -26.6954  -54.1288 H         1 UNK         0.3000 
    226 H226       -5.0521  -24.1100  -55.1066 H         1 UNK         0.0600 
    227 H227       -6.6787  -25.4339  -56.4370 H         1 UNK         0.0600 
    228 H228       -5.1662  -25.2510  -57.3090 H         1 UNK         0.0600 
    229 H229       -5.5419  -26.7807  -56.5245 H         1 UNK         0.0600 
    230 H230       -3.6278  -26.8216  -53.6732 H         1 UNK         0.3000 
    231 H231       -1.3326  -27.3255  -55.1774 H         1 UNK         0.0600 
    232 H232       -1.8148  -27.6282  -52.1637 H         1 UNK         0.0600 
    233 H233       -0.5301  -28.4191  -53.0693 H         1 UNK         0.0600 
    234 H234       -2.2059  -28.8207  -53.4038 H         1 UNK         0.0600 
    235 H235       -1.9197  -24.5862  -53.0895 H         1 UNK         0.3000 
    236 H236        0.8258  -23.5812  -53.5991 H         1 UNK         0.0600 
    237 H237       -0.5858  -23.5180  -50.8807 H         1 UNK         0.0600 
    238 H238        0.8679  -24.4313  -51.2722 H         1 UNK         0.0600 
    239 H239        0.9058  -22.6759  -51.2897 H         1 UNK         0.0600 
    240 H240        0.2418  -22.1650  -55.1104 H         1 UNK         0.3000 
    241 H241       -0.4434  -20.3317  -56.0728 H         1 UNK         0.0600 
    242 H242       -2.4602  -22.7397  -55.8251 H         1 UNK         0.3800 
    243 H243       -3.9095  -21.9786  -56.4184 H         1 UNK         0.3800 
    244 H244       -1.6607  -19.2982  -53.4792 H         1 UNK         0.0800 
    245 H245       -1.2467  -18.3573  -54.8799 H         1 UNK         0.0800 
    246 H246       -0.4114  -18.2245  -51.6615 H         1 UNK         0.0800 
    247 H247       -0.0087  -19.9275  -51.5996 H         1 UNK         0.0800 
@<TRIPOS>BOND
     1    1    2 1    
     2    1  127 1    
     3    1  128 1    
     4    1  129 1    
     5    2    3 2    
     6    2    4 am   BACKBONE|DICT|INTERRES
     7    4    5 1    
     8    4  130 1    
     9    5    6 1    
    10    5   65 1    
    11    5  131 1    
    12    6    7 1    
    13    6  132 1    
    14    6  133 1    
    15    7    8 1    
    16    8    9 1    
    17    8  134 1    
    18    8  135 1    
    19    9   10 ar   
    20    9   14 ar   
    21   10   11 ar   
    22   10  136 1    
    23   11   12 ar   
    24   11  126 1    
    25   12   13 ar   
    26   12  137 1    
    27   13   14 ar   
    28   13   15 1    
    29   14  138 1    
    30   15   16 1    
    31   15  139 1    
    32   15  140 1    
    33   16   17 1    
    34   17   18 1    
    35   17  141 1    
    36   17  142 1    
    37   18   19 1    
    38   18   67 1    
    39   18  143 1    
    40   19   20 am   BACKBONE|DICT|INTERRES
    41   19  144 1    
    42   20   21 2    
    43   20   22 1    
    44   22   23 1    
    45   22   24 1    
    46   22  145 1    
    47   23  146 1    
    48   23  147 1    
    49   23  148 1    
    50   24   25 am   BACKBONE|DICT|INTERRES
    51   24  149 1    
    52   25   26 2    
    53   25   27 1    
    54   27   28 1    
    55   27   29 1    
    56   27  150 1    
    57   28  151 1    
    58   28  152 1    
    59   28  153 1    
    60   29   30 am   BACKBONE|DICT|INTERRES
    61   29  154 1    
    62   30   31 2    
    63   30   32 1    
    64   32   33 1    
    65   32   34 1    
    66   32  155 1    
    67   33  156 1    
    68   33  157 1    
    69   33  158 1    
    70   34   35 am   BACKBONE|DICT|INTERRES
    71   34  159 1    
    72   35   36 2    
    73   35   37 1    
    74   37   38 1    
    75   37   39 1    
    76   37  160 1    
    77   38  161 1    
    78   38  162 1    
    79   38  163 1    
    80   39   40 am   BACKBONE|DICT|INTERRES
    81   39  164 1    
    82   40   41 2    
    83   40   42 1    
    84   42   43 1    
    85   42   44 1    
    86   42  165 1    
    87   43  166 1    
    88   43  167 1    
    89   43  168 1    
    90   44   45 am   BACKBONE|DICT|INTERRES
    91   44  169 1    
    92   45   46 2    
    93   45   47 1    
    94   47   48 1    
    95   47   49 1    
    96   47  170 1    
    97   48  171 1    
    98   48  172 1    
    99   48  173 1    
   100   49   50 am   BACKBONE|DICT|INTERRES
   101   49  174 1    
   102   50   51 2    
   103   50   52 1    
   104   52   53 1    
   105   52   54 1    
   106   52  175 1    
   107   53  176 1    
   108   53  177 1    
   109   53  178 1    
   110   54   55 am   BACKBONE|DICT|INTERRES
   111   54  179 1    
   112   55   56 2    
   113   55   57 1    
   114   57   58 1    
   115   57   59 1    
   116   57  180 1    
   117   58  181 1    
   118   58  182 1    
   119   58  183 1    
   120   59   60 am   BACKBONE|DICT|INTERRES
   121   59  184 1    
   122   60   61 2    
   123   60   62 1    
   124   62   63 1    
   125   62   64 1    
   126   62  185 1    
   127   63  186 1    
   128   63  187 1    
   129   63  188 1    
   130   64   65 am   BACKBONE|DICT|INTERRES
   131   64  189 1    
   132   65   66 2    
   133   67   68 2    
   134   67   69 am   BACKBONE|DICT|INTERRES
   135   69   70 1    
   136   69  190 1    
   137   70   71 1    
   138   70   72 1    
   139   70  191 1    
   140   71  192 1    
   141   71  193 1    
   142   71  194 1    
   143   72   73 2    
   144   72   74 am   BACKBONE|DICT|INTERRES
   145   74   75 1    
   146   74  195 1    
   147   75   76 1    
   148   75   77 1    
   149   75  196 1    
   150   76  197 1    
   151   76  198 1    
   152   76  199 1    
   153   77   78 2    
   154   77   79 am   BACKBONE|DICT|INTERRES
   155   79   80 1    
   156   79  200 1    
   157   80   81 1    
   158   80   82 1    
   159   80  201 1    
   160   81  202 1    
   161   81  203 1    
   162   81  204 1    
   163   82   83 2    
   164   82   84 am   BACKBONE|DICT|INTERRES
   165   84   85 1    
   166   84  205 1    
   167   85   86 1    
   168   85   87 1    
   169   85  206 1    
   170   86  207 1    
   171   86  208 1    
   172   86  209 1    
   173   87   88 2    
   174   87   89 am   BACKBONE|DICT|INTERRES
   175   89   90 1    
   176   89  210 1    
   177   90   91 1    
   178   90   92 1    
   179   90  211 1    
   180   91  212 1    
   181   91  213 1    
   182   91  214 1    
   183   92   93 2    
   184   92   94 am   BACKBONE|DICT|INTERRES
   185   94   95 1    
   186   94  215 1    
   187   95   96 1    
   188   95   97 1    
   189   95  216 1    
   190   96  217 1    
   191   96  218 1    
   192   96  219 1    
   193   97   98 2    
   194   97   99 am   BACKBONE|DICT|INTERRES
   195   99  100 1    
   196   99  220 1    
   197  100  101 1    
   198  100  102 1    
   199  100  221 1    
   200  101  222 1    
   201  101  223 1    
   202  101  224 1    
   203  102  103 2    
   204  102  104 am   BACKBONE|DICT|INTERRES
   205  104  105 1    
   206  104  225 1    
   207  105  106 1    
   208  105  107 1    
   209  105  226 1    
   210  106  227 1    
   211  106  228 1    
   212  106  229 1    
   213  107  108 2    
   214  107  109 am   BACKBONE|DICT|INTERRES
   215  109  110 1    
   216  109  230 1    
   217  110  111 1    
   218  110  112 1    
   219  110  231 1    
   220  111  232 1    
   221  111  233 1    
   222  111  234 1    
   223  112  113 2    
   224  112  114 am   BACKBONE|DICT|INTERRES
   225  114  115 1    
   226  114  235 1    
   227  115  116 1    
   228  115  117 1    
   229  115  236 1    
   230  116  237 1    
   231  116  238 1    
   232  116  239 1    
   233  117  118 2    
   234  117  119 am   BACKBONE|DICT|INTERRES
   235  119  120 1    
   236  119  240 1    
   237  120  121 1    
   238  120  124 1    
   239  120  241 1    
   240  121  122 am   BACKBONE|DICT|INTERRES
   241  121  123 2    
   242  122  242 1    
   243  122  243 1    
   244  124  125 1    
   245  124  244 1    
   246  124  245 1    
   247  125  126 1    
   248  126  246 1    
   249  126  247 1    
@<TRIPOS>SUBSTRUCTURE
     1 UNK         1 GROUP             0       ****    0 ROOT    
