@<TRIPOS>MOLECULE
3R540
247   249    1
SMALL
USER_CHARGES


@<TRIPOS>ATOM
      1 CA         -3.5278  -21.1982  -44.8388 C.3       0 UNK        -0.1800 
      2 C          -3.1228  -19.8334  -45.3697 C.2       0 UNK         0.5000 
      3 O          -3.8895  -18.8771  -45.2647 O.2       0 UNK        -0.5000 
      4 N          -1.9215  -19.7395  -45.9485 N.am      1 UNK        -0.5000 
      5 CA         -1.3472  -18.5143  -46.5288 C.3       1 UNK         0.1400 
      6 C6         -0.0591  -18.8459  -47.3155 C.3       23 UNK        -0.0398 
      7 S7          0.3643  -17.6398  -48.6179 S.3       23 UNK        -0.2404 
      8 C8          0.0538  -18.5656  -50.1631 C.3       23 UNK        -0.0205 
      9 C9          1.0646  -19.6544  -50.5406 C.ar      23 UNK        -0.0193 
     10 C10         1.0052  -20.1828  -51.8339 C.ar      23 UNK        -0.1150 
     11 C11         1.8438  -21.2310  -52.2200 C.ar      23 UNK        -0.0193 
     12 C12         2.7399  -21.7683  -51.2942 C.ar      23 UNK        -0.1150 
     13 C13         2.8187  -21.2647  -49.9937 C.ar      23 UNK        -0.0193 
     14 C14         2.0060  -20.1774  -49.6434 C.ar      23 UNK        -0.1150 
     15 C15         3.7722  -21.9626  -49.0156 C.3       23 UNK        -0.0205 
     16 S16         3.6918  -21.4662  -47.2555 S.3       23 UNK        -0.2404 
     17 C17         1.9571  -21.8177  -46.8046 C.3       23 UNK        -0.0398 
     18 CA          1.7230  -23.1062  -45.9830 C.3       11 UNK         0.1400 
     19 N           2.5379  -23.1346  -44.7661 N.am      11 UNK        -0.5000 
     20 C           2.9218  -24.2378  -44.1079 C.2       10 UNK         0.5000 
     21 O           2.6635  -25.3783  -44.4946 O.2       10 UNK        -0.5000 
     22 CA          3.6672  -24.0428  -42.7715 C.3       10 UNK         0.1400 
     23 CB          5.1863  -24.0875  -42.9941 C.3       10 UNK        -0.1800 
     24 N           3.3227  -22.7889  -42.1004 N.am      10 UNK        -0.5000 
     25 C           2.1041  -22.4578  -41.6486 C.2       9 UNK         0.5000 
     26 O           1.1526  -23.2381  -41.6199 O.2       9 UNK        -0.5000 
     27 CA          1.9006  -21.0009  -41.1835 C.3       9 UNK         0.1400 
     28 CB          1.7737  -20.9303  -39.6543 C.3       9 UNK        -0.1800 
     29 N           2.9533  -20.0726  -41.6158 N.am      9 UNK        -0.5000 
     30 C           3.2264  -19.7404  -42.8852 C.2       8 UNK         0.5000 
     31 O           2.6277  -20.2066  -43.8574 O.2       8 UNK        -0.5000 
     32 CA          4.4225  -18.7904  -43.0834 C.3       8 UNK         0.1400 
     33 CB          5.7383  -19.5828  -43.0152 C.3       8 UNK        -0.1800 
     34 N           4.3817  -18.0734  -44.3568 N.am      8 UNK        -0.5000 
     35 C           3.4823  -17.1410  -44.6901 C.2       7 UNK         0.5000 
     36 O           2.5860  -16.7481  -43.9374 O.2       7 UNK        -0.5000 
     37 CA          3.6271  -16.5337  -46.0954 C.3       7 UNK         0.1400 
     38 CB          3.7062  -17.6158  -47.1908 C.3       7 UNK        -0.1800 
     39 N           2.5066  -15.6276  -46.3268 N.am      7 UNK        -0.5000 
     40 C           2.4576  -14.6478  -47.2359 C.2       6 UNK         0.5000 
     41 O           3.3389  -14.4482  -48.0732 O.2       6 UNK        -0.5000 
     42 CA          1.2454  -13.6980  -47.1802 C.3       6 UNK         0.1400 
     43 CB          0.1989  -14.0346  -48.2536 C.3       6 UNK        -0.1800 
     44 N           0.5915  -13.6766  -45.8716 N.am      6 UNK        -0.5000 
     45 C           1.0237  -12.9616  -44.8228 C.2       5 UNK         0.5000 
     46 O           2.0640  -12.3010  -44.8373 O.2       5 UNK        -0.5000 
     47 CA          0.1354  -12.9762  -43.5578 C.3       5 UNK         0.1400 
     48 CB          0.3656  -11.7530  -42.6467 C.3       5 UNK        -0.1800 
     49 N          -1.2937  -13.1374  -43.8547 N.am      5 UNK        -0.5000 
     50 C          -2.0692  -12.3461  -44.6150 C.2       4 UNK         0.5000 
     51 O          -1.6830  -11.2883  -45.1136 O.2       4 UNK        -0.5000 
     52 CA         -3.5064  -12.8294  -44.8992 C.3       4 UNK         0.1400 
     53 CB         -3.7985  -12.8040  -46.4085 C.3       4 UNK        -0.1800 
     54 N          -3.7307  -14.1895  -44.3989 N.am      4 UNK        -0.5000 
     55 C          -4.5070  -14.5062  -43.3534 C.2       3 UNK         0.5000 
     56 O          -5.2179  -13.6976  -42.7559 O.2       3 UNK        -0.5000 
     57 CA         -4.4515  -15.9680  -42.8611 C.3       3 UNK         0.1400 
     58 CB         -5.6010  -16.7876  -43.4643 C.3       3 UNK        -0.1800 
     59 N          -3.1738  -16.6374  -43.1353 N.am      3 UNK        -0.5000 
     60 C          -1.9954  -16.2607  -42.6119 C.2       2 UNK         0.5000 
     61 O          -1.8761  -15.3032  -41.8483 O.2       2 UNK        -0.5000 
     62 CA         -0.7249  -17.0287  -43.0238 C.3       2 UNK         0.1400 
     63 CB         -0.2215  -17.8982  -41.8642 C.3       2 UNK        -0.1800 
     64 N          -0.8836  -17.8642  -44.2110 N.am      2 UNK        -0.5000 
     65 C          -1.1000  -17.4222  -45.4576 C.2       1 UNK         0.5000 
     66 O          -1.1587  -16.2250  -45.7495 O.2       1 UNK        -0.5000 
     67 C           0.2233  -23.2670  -45.6282 C.2       11 UNK         0.5000 
     68 O          -0.5929  -22.4136  -45.9842 O.2       11 UNK        -0.5000 
     69 N          -0.1109  -24.3349  -44.8931 N.am      12 UNK        -0.5000 
     70 CA         -1.4443  -24.5876  -44.3452 C.3       12 UNK         0.1400 
     71 CB         -1.3364  -25.6453  -43.2367 C.3       12 UNK        -0.1800 
     72 C          -2.4702  -25.0219  -45.4071 C.2       12 UNK         0.5000 
     73 O          -3.6504  -24.6969  -45.2771 O.2       12 UNK        -0.5000 
     74 N          -2.0086  -25.7527  -46.4308 N.am      13 UNK        -0.5000 
     75 CA         -2.8454  -26.2489  -47.5255 C.3       13 UNK         0.1400 
     76 CB         -2.1430  -27.4407  -48.1940 C.3       13 UNK        -0.1800 
     77 C          -3.1663  -25.1617  -48.5670 C.2       13 UNK         0.5000 
     78 O          -4.2462  -25.1832  -49.1592 O.2       13 UNK        -0.5000 
     79 N          -2.2246  -24.2335  -48.7725 N.am      14 UNK        -0.5000 
     80 CA         -2.3201  -23.1421  -49.7360 C.3       14 UNK         0.1400 
     81 CB         -0.9086  -22.8130  -50.2495 C.3       14 UNK        -0.1800 
     82 C          -3.0091  -21.9305  -49.0899 C.2       14 UNK         0.5000 
     83 O          -2.3378  -20.9652  -48.7293 O.2       14 UNK        -0.5000 
     84 N          -4.3346  -22.0282  -48.9178 N.am      15 UNK        -0.5000 
     85 CA         -5.1995  -21.0080  -48.3201 C.3       15 UNK         0.1400 
     86 CB         -6.6574  -21.4856  -48.3919 C.3       15 UNK        -0.1800 
     87 C          -5.0577  -19.6297  -48.9918 C.2       15 UNK         0.5000 
     88 O          -5.0663  -19.5580  -50.2218 O.2       15 UNK        -0.5000 
     89 N          -4.9643  -18.5654  -48.1799 N.am      16 UNK        -0.5000 
     90 CA         -4.7221  -17.1852  -48.6181 C.3       16 UNK         0.1400 
     91 CB         -4.6630  -16.2652  -47.3923 C.3       16 UNK        -0.1800 
     92 C          -5.7442  -16.6366  -49.6335 C.2       16 UNK         0.5000 
     93 O          -5.3828  -15.8185  -50.4791 O.2       16 UNK        -0.5000 
     94 N          -6.9885  -17.1278  -49.5594 N.am      17 UNK        -0.5000 
     95 CA         -8.0757  -16.8210  -50.4917 C.3       17 UNK         0.1400 
     96 CB         -9.3855  -17.3840  -49.9183 C.3       17 UNK        -0.1800 
     97 C          -7.8448  -17.3503  -51.9241 C.2       17 UNK         0.5000 
     98 O          -8.5004  -16.8728  -52.8509 O.2       17 UNK        -0.5000 
     99 N          -6.9299  -18.3149  -52.0839 N.am      18 UNK        -0.5000 
    100 CA        -6.5556  -18.9366  -53.3507 C.3       18 UNK         0.1400 
    101 CB        -7.1746  -20.3448  -53.4168 C.3       18 UNK        -0.1800 
    102 C         -5.0240  -18.9629  -53.5054 C.2       18 UNK         0.5000 
    103 O         -4.4938  -19.8818  -54.1320 O.2       18 UNK        -0.5000 
    104 N         -4.3307  -17.9645  -52.9343 N.am      19 UNK        -0.5000 
    105 CA        -2.8675  -17.8632  -52.8826 C.3       19 UNK         0.1400 
    106 CB        -2.4694  -16.5786  -52.1394 C.3       19 UNK        -0.1800 
    107 C         -2.1837  -17.9091  -54.2606 C.2       19 UNK         0.5000 
    108 O         -1.1621  -18.5786  -54.4096 O.2       19 UNK        -0.5000 
    109 N         -2.7883  -17.2384  -55.2508 N.am      20 UNK        -0.5000 
    110 CA        -2.3199  -17.1936  -56.6389 C.3       20 UNK         0.1400 
    111 CB        -3.1085  -16.1136  -57.3952 C.3       20 UNK        -0.1800 
    112 C         -2.4224  -18.5470  -57.3713 C.2       20 UNK         0.5000 
    113 O         -1.6631  -18.7846  -58.3112 O.2       20 UNK        -0.5000 
    114 N         -3.3465  -19.4071  -56.9247 N.am      21 UNK        -0.5000 
    115 CA        -3.5460  -20.7659  -57.4289 C.3       21 UNK         0.1400 
    116 CB        -5.0564  -21.0544  -57.4546 C.3       21 UNK        -0.1800 
    117 C         -2.8102  -21.8187  -56.5757 C.2       21 UNK         0.5000 
    118 O         -2.8152  -22.9944  -56.9433 O.2       21 UNK        -0.5000 
    119 N         -2.2089  -21.3941  -55.4547 N.am      22 UNK        -0.5000 
    120 CA        -1.6220  -22.2492  -54.4133 C.3       22 UNK         0.1400 
    121 C         -2.6830  -23.1010  -53.6479 C.2       22 UNK         0.5000 
    122 N         -3.8892  -22.5853  -53.4415 N.am      22 UNK        -0.7600 
    123 O         -2.4271  -24.2283  -53.2348 O.2       22 UNK        -0.5000 
    124 C124       -0.3985  -23.0552  -54.9354 C.3       23 UNK        -0.0398 
    125 S125        0.8443  -23.3728  -53.6396 S.3       23 UNK        -0.2404 
    126 C126        1.7693  -21.8042  -53.6260 C.3       23 UNK        -0.0205 
    127 H127       -4.6041  -21.2450  -44.6736 H         1 UNK         0.0600 
    128 H128       -3.0255  -21.4014  -43.8934 H         1 UNK         0.0600 
    129 H129       -3.2619  -21.9791  -45.5510 H         1 UNK         0.0600 
    130 H130       -1.3734  -20.5894  -46.0557 H         1 UNK         0.3000 
    131 H131       -2.0847  -18.1254  -47.2328 H         1 UNK         0.0600 
    132 H132       -0.1603  -19.8225  -47.7893 H         1 UNK         0.0800 
    133 H133        0.7858  -18.9297  -46.6333 H         1 UNK         0.0800 
    134 H134       -0.9416  -19.0097  -50.1128 H         1 UNK         0.0800 
    135 H135        0.0259  -17.8360  -50.9720 H         1 UNK         0.0800 
    136 H136        0.2885  -19.7873  -52.5396 H         1 UNK         0.1150 
    137 H137        3.3657  -22.6005  -51.5853 H         1 UNK         0.1150 
    138 H138        2.0792  -19.7669  -48.6525 H         1 UNK         0.1150 
    139 H139        3.5989  -23.0387  -49.0650 H         1 UNK         0.0800 
    140 H140        4.7937  -21.8014  -49.3622 H         1 UNK         0.0800 
    141 H141        1.3458  -21.8528  -47.7053 H         1 UNK         0.0800 
    142 H142        1.6124  -20.9586  -46.2312 H         1 UNK         0.0800 
    143 H143        1.9991  -23.9538  -46.6135 H         1 UNK         0.0600 
    144 H144        2.7484  -22.2259  -44.3676 H         1 UNK         0.3000 
    145 H145        3.3880  -24.8670  -42.1121 H         1 UNK         0.0600 
    146 H146        5.4835  -25.0222  -43.4715 H         1 UNK         0.0600 
    147 H147        5.5235  -23.2705  -43.6336 H         1 UNK         0.0600 
    148 H148        5.7264  -24.0206  -42.0494 H         1 UNK         0.0600 
    149 H149        4.0430  -22.0838  -42.0676 H         1 UNK         0.3000 
    150 H150        0.9581  -20.6651  -41.6194 H         1 UNK         0.0600 
    151 H151        2.6969  -21.2349  -39.1599 H         1 UNK         0.0600 
    152 H152        0.9779  -21.5849  -39.2961 H         1 UNK         0.0600 
    153 H153        1.5318  -19.9195  -39.3251 H         1 UNK         0.0600 
    154 H154        3.5077  -19.6624  -40.8778 H         1 UNK         0.3000 
    155 H155        4.4130  -18.0512  -42.2797 H         1 UNK         0.0600 
    156 H156        5.7949  -20.3360  -43.8026 H         1 UNK         0.0600 
    157 H157        5.8417  -20.0985  -42.0597 H         1 UNK         0.0600 
    158 H158        6.6011  -18.9245  -43.1187 H         1 UNK         0.0600 
    159 H159        5.0581  -18.3611  -45.0479 H         1 UNK         0.3000 
    160 H160        4.5474  -15.9466  -46.1062 H         1 UNK         0.0600 
    161 H161        2.9222  -18.3591  -47.0684 H         1 UNK         0.0600 
    162 H162        4.6583  -18.1453  -47.1539 H         1 UNK         0.0600 
    163 H163        3.6154  -17.1952  -48.1921 H         1 UNK         0.0600 
    164 H164        1.7702  -15.6961  -45.6359 H         1 UNK         0.3000 
    165 H165        1.6225  -12.6964  -47.3987 H         1 UNK         0.0600 
    166 H166        0.6626  -14.1786  -49.2303 H         1 UNK         0.0600 
    167 H167       -0.3518  -14.9418  -48.0105 H         1 UNK         0.0600 
    168 H168       -0.5280  -13.2284  -48.3537 H         1 UNK         0.0600 
    169 H169       -0.2425  -14.2439  -45.7763 H         1 UNK         0.3000 
    170 H170        0.4324  -13.8614  -42.9944 H         1 UNK         0.0600 
    171 H171        1.3999  -11.7086  -42.3037 H         1 UNK         0.0600 
    172 H172        0.1521  -10.8167  -43.1631 H         1 UNK         0.0600 
    173 H173       -0.2663  -11.7990  -41.7597 H         1 UNK         0.0600 
    174 H174       -1.7304  -13.9395  -43.4181 H         1 UNK         0.3000 
    175 H175       -4.1803  -12.1223  -44.4119 H         1 UNK         0.0600 
    176 H176       -4.8140  -13.1403  -46.6173 H         1 UNK         0.0600 
    177 H177       -3.7074  -11.7943  -46.8105 H         1 UNK         0.0600 
    178 H178       -3.1050  -13.4392  -46.9610 H         1 UNK         0.0600 
    179 H179       -3.1832  -14.9220  -44.8310 H         1 UNK         0.3000 
    180 H180       -4.5857  -15.9493  -41.7775 H         1 UNK         0.0600 
    181 H181       -5.5268  -16.8452  -44.5495 H         1 UNK         0.0600 
    182 H182       -6.5672  -16.3418  -43.2251 H         1 UNK         0.0600 
    183 H183       -5.6072  -17.8060  -43.0755 H         1 UNK         0.0600 
    184 H184       -3.2062  -17.4227  -43.7750 H         1 UNK         0.3000 
    185 H185        0.0392  -16.2815  -43.2433 H         1 UNK         0.0600 
    186 H186        0.7558  -18.3157  -42.0980 H         1 UNK         0.0600 
    187 H187       -0.1075  -17.3130  -40.9507 H         1 UNK         0.0600 
    188 H188       -0.9033  -18.7212  -41.6472 H         1 UNK         0.0600 
    189 H189       -0.8655  -18.8626  -44.0640 H         1 UNK         0.3000 
    190 H190        0.6281  -24.9750  -44.6247 H         1 UNK         0.3000 
    191 H191       -1.8071  -23.6621  -43.8936 H         1 UNK         0.0600 
    192 H192       -0.9524  -26.5921  -43.6183 H         1 UNK         0.0600 
    193 H193       -2.3107  -25.8419  -42.7873 H         1 UNK         0.0600 
    194 H194       -0.6728  -25.3116  -42.4385 H         1 UNK         0.0600 
    195 H195       -1.0280  -25.9910  -46.4532 H         1 UNK         0.3000 
    196 H196       -3.7924  -26.6039  -47.1127 H         1 UNK         0.0600 
    197 H197       -2.7515  -27.8485  -49.0023 H         1 UNK         0.0600 
    198 H198       -1.9697  -28.2469  -47.4809 H         1 UNK         0.0600 
    199 H199       -1.1803  -27.1555  -48.6200 H         1 UNK         0.0600 
    200 H200       -1.4003  -24.2480  -48.1921 H         1 UNK         0.3000 
    201 H201       -2.9206  -23.4551  -50.5921 H         1 UNK         0.0600 
    202 H202       -0.9499  -22.0135  -50.9888 H         1 UNK         0.0600 
    203 H203       -0.2448  -22.4875  -49.4482 H         1 UNK         0.0600 
    204 H204       -0.4527  -23.6761  -50.7346 H         1 UNK         0.0600 
    205 H205       -4.7865  -22.8805  -49.2207 H         1 UNK         0.3000 
    206 H206       -4.9243  -20.9196  -47.2710 H         1 UNK         0.0600 
    207 H207       -6.7894  -22.4321  -47.8671 H         1 UNK         0.0600 
    208 H208       -7.3301  -20.7622  -47.9294 H         1 UNK         0.0600 
    209 H209       -6.9837  -21.6247  -49.4237 H         1 UNK         0.0600 
    210 H210       -4.9431  -18.7142  -47.1778 H         1 UNK         0.3000 
    211 H211       -3.7424  -17.1724  -49.0970 H         1 UNK         0.0600 
    212 H212       -5.6114  -16.2501  -46.8549 H         1 UNK         0.0600 
    213 H213       -4.4443  -15.2439  -47.6994 H         1 UNK         0.0600 
    214 H214       -3.8824  -16.5668  -46.6956 H         1 UNK         0.0600 
    215 H215       -7.1905  -17.8010  -48.8352 H         1 UNK         0.3000 
    216 H216       -8.1674  -15.7349  -50.5568 H         1 UNK         0.0600 
    217 H217      -10.2305  -17.1478  -50.5665 H         1 UNK         0.0600 
    218 H218       -9.6025  -16.9597  -48.9378 H         1 UNK         0.0600 
    219 H219       -9.3448  -18.4691  -49.8147 H         1 UNK         0.0600 
    220 H220       -6.4044  -18.6441  -51.2773 H         1 UNK         0.3000 
    221 H221       -6.9367  -18.3526  -54.1904 H         1 UNK         0.0600 
    222 H222       -6.7839  -20.9886  -52.6276 H         1 UNK         0.0600 
    223 H223       -8.2585  -20.3034  -53.3094 H         1 UNK         0.0600 
    224 H224       -6.9635  -20.8264  -54.3721 H         1 UNK         0.0600 
    225 H225       -4.8462  -17.2567  -52.4289 H         1 UNK         0.3000 
    226 H226       -2.5013  -18.7181  -52.3101 H         1 UNK         0.0600 
    227 H227       -1.3939  -16.4055  -52.1898 H         1 UNK         0.0600 
    228 H228       -2.9588  -15.7005  -52.5621 H         1 UNK         0.0600 
    229 H229       -2.7351  -16.6347  -51.0857 H         1 UNK         0.0600 
    230 H230       -3.6312  -16.7249  -55.0381 H         1 UNK         0.3000 
    231 H231       -1.2666  -16.9054  -56.6302 H         1 UNK         0.0600 
    232 H232       -4.1757  -16.3375  -57.4195 H         1 UNK         0.0600 
    233 H233       -2.7668  -16.0312  -58.4278 H         1 UNK         0.0600 
    234 H234       -2.9800  -15.1345  -56.9333 H         1 UNK         0.0600 
    235 H235       -3.8979  -19.1534  -56.1150 H         1 UNK         0.3000 
    236 H236       -3.1673  -20.8474  -58.4497 H         1 UNK         0.0600 
    237 H237       -5.2601  -22.0422  -57.8698 H         1 UNK         0.0600 
    238 H238       -5.4891  -21.0245  -56.4541 H         1 UNK         0.0600 
    239 H239       -5.5863  -20.3286  -58.0714 H         1 UNK         0.0600 
    240 H240       -2.2541  -20.4087  -55.2331 H         1 UNK         0.3000 
    241 H241       -1.2537  -21.5429  -53.6687 H         1 UNK         0.0600 
    242 H242       -4.5876  -23.1330  -52.9673 H         1 UNK         0.3800 
    243 H243       -4.1126  -21.6455  -53.7621 H         1 UNK         0.3800 
    244 H244        0.0960  -22.5198  -55.7471 H         1 UNK         0.0800 
    245 H245       -0.7147  -24.0066  -55.3660 H         1 UNK         0.0800 
    246 H246        2.7763  -21.9802  -54.0066 H         1 UNK         0.0800 
    247 H247        1.3114  -21.0789  -54.3005 H         1 UNK         0.0800 
@<TRIPOS>BOND
     1    1    2 1    
     2    1  127 1    
     3    1  128 1    
     4    1  129 1    
     5    2    3 2    
     6    2    4 am   BACKBONE|DICT|INTERRES
     7    4    5 1    
     8    4  130 1    
     9    5    6 1    
    10    5   65 1    
    11    5  131 1    
    12    6    7 1    
    13    6  132 1    
    14    6  133 1    
    15    7    8 1    
    16    8    9 1    
    17    8  134 1    
    18    8  135 1    
    19    9   10 ar   
    20    9   14 ar   
    21   10   11 ar   
    22   10  136 1    
    23   11   12 ar   
    24   11  126 1    
    25   12   13 ar   
    26   12  137 1    
    27   13   14 ar   
    28   13   15 1    
    29   14  138 1    
    30   15   16 1    
    31   15  139 1    
    32   15  140 1    
    33   16   17 1    
    34   17   18 1    
    35   17  141 1    
    36   17  142 1    
    37   18   19 1    
    38   18   67 1    
    39   18  143 1    
    40   19   20 am   BACKBONE|DICT|INTERRES
    41   19  144 1    
    42   20   21 2    
    43   20   22 1    
    44   22   23 1    
    45   22   24 1    
    46   22  145 1    
    47   23  146 1    
    48   23  147 1    
    49   23  148 1    
    50   24   25 am   BACKBONE|DICT|INTERRES
    51   24  149 1    
    52   25   26 2    
    53   25   27 1    
    54   27   28 1    
    55   27   29 1    
    56   27  150 1    
    57   28  151 1    
    58   28  152 1    
    59   28  153 1    
    60   29   30 am   BACKBONE|DICT|INTERRES
    61   29  154 1    
    62   30   31 2    
    63   30   32 1    
    64   32   33 1    
    65   32   34 1    
    66   32  155 1    
    67   33  156 1    
    68   33  157 1    
    69   33  158 1    
    70   34   35 am   BACKBONE|DICT|INTERRES
    71   34  159 1    
    72   35   36 2    
    73   35   37 1    
    74   37   38 1    
    75   37   39 1    
    76   37  160 1    
    77   38  161 1    
    78   38  162 1    
    79   38  163 1    
    80   39   40 am   BACKBONE|DICT|INTERRES
    81   39  164 1    
    82   40   41 2    
    83   40   42 1    
    84   42   43 1    
    85   42   44 1    
    86   42  165 1    
    87   43  166 1    
    88   43  167 1    
    89   43  168 1    
    90   44   45 am   BACKBONE|DICT|INTERRES
    91   44  169 1    
    92   45   46 2    
    93   45   47 1    
    94   47   48 1    
    95   47   49 1    
    96   47  170 1    
    97   48  171 1    
    98   48  172 1    
    99   48  173 1    
   100   49   50 am   BACKBONE|DICT|INTERRES
   101   49  174 1    
   102   50   51 2    
   103   50   52 1    
   104   52   53 1    
   105   52   54 1    
   106   52  175 1    
   107   53  176 1    
   108   53  177 1    
   109   53  178 1    
   110   54   55 am   BACKBONE|DICT|INTERRES
   111   54  179 1    
   112   55   56 2    
   113   55   57 1    
   114   57   58 1    
   115   57   59 1    
   116   57  180 1    
   117   58  181 1    
   118   58  182 1    
   119   58  183 1    
   120   59   60 am   BACKBONE|DICT|INTERRES
   121   59  184 1    
   122   60   61 2    
   123   60   62 1    
   124   62   63 1    
   125   62   64 1    
   126   62  185 1    
   127   63  186 1    
   128   63  187 1    
   129   63  188 1    
   130   64   65 am   BACKBONE|DICT|INTERRES
   131   64  189 1    
   132   65   66 2    
   133   67   68 2    
   134   67   69 am   BACKBONE|DICT|INTERRES
   135   69   70 1    
   136   69  190 1    
   137   70   71 1    
   138   70   72 1    
   139   70  191 1    
   140   71  192 1    
   141   71  193 1    
   142   71  194 1    
   143   72   73 2    
   144   72   74 am   BACKBONE|DICT|INTERRES
   145   74   75 1    
   146   74  195 1    
   147   75   76 1    
   148   75   77 1    
   149   75  196 1    
   150   76  197 1    
   151   76  198 1    
   152   76  199 1    
   153   77   78 2    
   154   77   79 am   BACKBONE|DICT|INTERRES
   155   79   80 1    
   156   79  200 1    
   157   80   81 1    
   158   80   82 1    
   159   80  201 1    
   160   81  202 1    
   161   81  203 1    
   162   81  204 1    
   163   82   83 2    
   164   82   84 am   BACKBONE|DICT|INTERRES
   165   84   85 1    
   166   84  205 1    
   167   85   86 1    
   168   85   87 1    
   169   85  206 1    
   170   86  207 1    
   171   86  208 1    
   172   86  209 1    
   173   87   88 2    
   174   87   89 am   BACKBONE|DICT|INTERRES
   175   89   90 1    
   176   89  210 1    
   177   90   91 1    
   178   90   92 1    
   179   90  211 1    
   180   91  212 1    
   181   91  213 1    
   182   91  214 1    
   183   92   93 2    
   184   92   94 am   BACKBONE|DICT|INTERRES
   185   94   95 1    
   186   94  215 1    
   187   95   96 1    
   188   95   97 1    
   189   95  216 1    
   190   96  217 1    
   191   96  218 1    
   192   96  219 1    
   193   97   98 2    
   194   97   99 am   BACKBONE|DICT|INTERRES
   195   99  100 1    
   196   99  220 1    
   197  100  101 1    
   198  100  102 1    
   199  100  221 1    
   200  101  222 1    
   201  101  223 1    
   202  101  224 1    
   203  102  103 2    
   204  102  104 am   BACKBONE|DICT|INTERRES
   205  104  105 1    
   206  104  225 1    
   207  105  106 1    
   208  105  107 1    
   209  105  226 1    
   210  106  227 1    
   211  106  228 1    
   212  106  229 1    
   213  107  108 2    
   214  107  109 am   BACKBONE|DICT|INTERRES
   215  109  110 1    
   216  109  230 1    
   217  110  111 1    
   218  110  112 1    
   219  110  231 1    
   220  111  232 1    
   221  111  233 1    
   222  111  234 1    
   223  112  113 2    
   224  112  114 am   BACKBONE|DICT|INTERRES
   225  114  115 1    
   226  114  235 1    
   227  115  116 1    
   228  115  117 1    
   229  115  236 1    
   230  116  237 1    
   231  116  238 1    
   232  116  239 1    
   233  117  118 2    
   234  117  119 am   BACKBONE|DICT|INTERRES
   235  119  120 1    
   236  119  240 1    
   237  120  121 1    
   238  120  124 1    
   239  120  241 1    
   240  121  122 am   BACKBONE|DICT|INTERRES
   241  121  123 2    
   242  122  242 1    
   243  122  243 1    
   244  124  125 1    
   245  124  244 1    
   246  124  245 1    
   247  125  126 1    
   248  126  246 1    
   249  126  247 1    
@<TRIPOS>SUBSTRUCTURE
     1 UNK         1 GROUP             0       ****    0 ROOT    
