@<TRIPOS>MOLECULE
3R540
247   249    1
SMALL
USER_CHARGES


@<TRIPOS>ATOM
      1 CA          1.0896  -12.2296  -43.9348 C.3       0 UNK        -0.1800 
      2 C           0.3562  -11.4695  -45.0295 C.2       0 UNK         0.5000 
      3 O          -0.4751  -10.6147  -44.7234 O.2       0 UNK        -0.5000 
      4 N           0.6408  -11.7855  -46.2970 N.am      1 UNK        -0.5000 
      5 CA         -0.0397  -11.2220  -47.4638 C.3       1 UNK         0.1400 
      6 C6         -1.4732  -11.8019  -47.6545 C.3       23 UNK        -0.0398 
      7 S7         -1.5399  -13.5551  -48.1710 S.3       23 UNK        -0.2404 
      8 C8         -1.5408  -14.4060  -46.5656 C.3       23 UNK        -0.0205 
      9 C9         -1.7411  -15.9004  -46.7430 C.ar      23 UNK        -0.0193 
     10 C10        -3.0240  -16.4104  -46.9571 C.ar      23 UNK        -0.1150 
     11 C11        -3.2175  -17.7752  -47.1885 C.ar      23 UNK        -0.0193 
     12 C12        -2.1158  -18.6348  -47.1693 C.ar      23 UNK        -0.1150 
     13 C13        -0.8300  -18.1402  -46.9347 C.ar      23 UNK        -0.0193 
     14 C14        -0.6476  -16.7710  -46.7218 C.ar      23 UNK        -0.1150 
     15 C15         0.3591  -19.0860  -46.9518 C.3       23 UNK        -0.0205 
     16 S16         0.6488  -19.8233  -45.3145 S.3       23 UNK        -0.2404 
     17 C17         1.6759  -21.2641  -45.7634 C.3       23 UNK        -0.0398 
     18 CA          0.9513  -22.6363  -45.7613 C.3       11 UNK         0.1400 
     19 N           0.6594  -23.1531  -44.4197 N.am      11 UNK        -0.5000 
     20 C           0.4296  -24.4533  -44.1732 C.2       10 UNK         0.5000 
     21 O           0.4428  -25.3235  -45.0445 O.2       10 UNK        -0.5000 
     22 CA          0.0985  -24.8500  -42.7243 C.3       10 UNK         0.1400 
     23 CB          1.3710  -24.8820  -41.8644 C.3       10 UNK        -0.1800 
     24 N          -0.8859  -23.9682  -42.1011 N.am      10 UNK        -0.5000 
     25 C          -2.1566  -23.8226  -42.5047 C.2       9 UNK         0.5000 
     26 O          -2.6474  -24.4304  -43.4541 O.2       9 UNK        -0.5000 
     27 CA         -3.0093  -22.7914  -41.7397 C.3       9 UNK         0.1400 
     28 CB         -3.7367  -23.4581  -40.5628 C.3       9 UNK        -0.1800 
     29 N          -2.2150  -21.6632  -41.2459 N.am      9 UNK        -0.5000 
     30 C          -1.5842  -20.7941  -42.0448 C.2       8 UNK         0.5000 
     31 O          -1.6739  -20.8132  -43.2752 O.2       8 UNK        -0.5000 
     32 CA         -0.6493  -19.7929  -41.3553 C.3       8 UNK         0.1400 
     33 CB          0.6659  -20.4863  -40.9457 C.3       8 UNK        -0.1800 
     34 N          -0.3707  -18.6991  -42.2766 N.am      8 UNK        -0.5000 
     35 C           0.1637  -17.5204  -41.9503 C.2       7 UNK         0.5000 
     36 O           0.4687  -17.1972  -40.7992 O.2       7 UNK        -0.5000 
     37 CA          0.3624  -16.5156  -43.0993 C.3       7 UNK         0.1400 
     38 CB         -0.7611  -15.4680  -43.0836 C.3       7 UNK        -0.1800 
     39 N           1.6539  -15.8341  -43.0034 N.am      7 UNK        -0.5000 
     40 C           2.8409  -16.4313  -43.1719 C.2       6 UNK         0.5000 
     41 O           2.9750  -17.6087  -43.5074 O.2       6 UNK        -0.5000 
     42 CA          4.0748  -15.5396  -42.9693 C.3       6 UNK         0.1400 
     43 CB          5.4044  -16.3191  -43.0289 C.3       6 UNK        -0.1800 
     44 N           4.0698  -14.4882  -43.9814 N.am      6 UNK        -0.5000 
     45 C           4.6634  -13.2954  -43.8668 C.2       5 UNK         0.5000 
     46 O           5.2480  -12.9291  -42.8458 O.2       5 UNK        -0.5000 
     47 CA          4.6132  -12.3707  -45.1050 C.3       5 UNK         0.1400 
     48 CB          5.6233  -11.2123  -45.0187 C.3       5 UNK        -0.1800 
     49 N           4.8452  -13.1004  -46.3532 N.am      5 UNK        -0.5000 
     50 C           3.9215  -13.7747  -47.0477 C.2       4 UNK         0.5000 
     51 O           2.7465  -13.8758  -46.6844 O.2       4 UNK        -0.5000 
     52 CA          4.4362  -14.4605  -48.3283 C.3       4 UNK         0.1400 
     53 CB          5.1855  -15.7680  -47.9993 C.3       4 UNK        -0.1800 
     54 N           3.3960  -14.6635  -49.3408 N.am      4 UNK        -0.5000 
     55 C           2.3720  -15.5284  -49.3474 C.2       3 UNK         0.5000 
     56 O           2.2011  -16.4053  -48.5015 O.2       3 UNK        -0.5000 
     57 CA          1.3734  -15.3717  -50.5164 C.3       3 UNK         0.1400 
     58 CB          0.1439  -16.2907  -50.3886 C.3       3 UNK        -0.1800 
     59 N           0.9184  -13.9849  -50.6421 N.am      3 UNK        -0.5000 
     60 C           1.5704  -13.0036  -51.2819 C.2       2 UNK         0.5000 
     61 O           2.6239  -13.1783  -51.8949 O.2       2 UNK        -0.5000 
     62 CA          0.9841  -11.5820  -51.1710 C.3       2 UNK         0.1400 
     63 CB          0.0194  -11.3046  -52.3336 C.3       2 UNK        -0.1800 
     64 N           0.2875  -11.3534  -49.9031 N.am      2 UNK        -0.5000 
     65 C           0.8803  -11.3177  -48.7004 C.2       1 UNK         0.5000 
     66 O           2.1041  -11.3560  -48.5519 O.2       1 UNK        -0.5000 
     67 C          -0.2988  -22.6773  -46.6635 C.2       11 UNK         0.5000 
     68 O          -0.1761  -23.0023  -47.8434 O.2       11 UNK        -0.5000 
     69 N          -1.4796  -22.4065  -46.0850 N.am      12 UNK        -0.5000 
     70 CA         -2.7724  -22.5216  -46.7579 C.3       12 UNK         0.1400 
     71 CB         -3.8792  -21.9511  -45.8596 C.3       12 UNK        -0.1800 
     72 C          -3.0849  -23.9674  -47.1790 C.2       12 UNK         0.5000 
     73 O          -3.5227  -24.1805  -48.3088 O.2       12 UNK        -0.5000 
     74 N          -2.8087  -24.9334  -46.2912 N.am      13 UNK        -0.5000 
     75 CA         -2.9310  -26.3664  -46.5575 C.3       13 UNK         0.1400 
     76 CB         -2.7425  -27.1583  -45.2550 C.3       13 UNK        -0.1800 
     77 C          -1.9526  -26.8526  -47.6409 C.2       13 UNK         0.5000 
     78 O          -2.3668  -27.5900  -48.5350 O.2       13 UNK        -0.5000 
     79 N          -0.6913  -26.4002  -47.5741 N.am      14 UNK        -0.5000 
     80 CA          0.3505  -26.6939  -48.5641 C.3       14 UNK         0.1400 
     81 CB          1.7027  -26.1690  -48.0594 C.3       14 UNK        -0.1800 
     82 C           0.0318  -26.1244  -49.9605 C.2       14 UNK         0.5000 
     83 O           0.2854  -26.7901  -50.9647 O.2       14 UNK        -0.5000 
     84 N          -0.5548  -24.9212  -49.9930 N.am      15 UNK        -0.5000 
     85 CA         -1.0540  -24.2530  -51.1954 C.3       15 UNK         0.1400 
     86 CB         -1.2295  -22.7593  -50.8751 C.3       15 UNK        -0.1800 
     87 C          -2.3822  -24.8333  -51.7238 C.2       15 UNK         0.5000 
     88 O          -2.8110  -24.4479  -52.8138 O.2       15 UNK        -0.5000 
     89 N          -3.0375  -25.6903  -50.9232 N.am      16 UNK        -0.5000 
     90 CA         -4.3878  -26.2364  -51.1062 C.3       16 UNK         0.1400 
     91 CB         -4.4060  -27.2451  -52.2723 C.3       16 UNK        -0.1800 
     92 C          -5.4520  -25.1268  -51.2548 C.2       16 UNK         0.5000 
     93 O          -6.3981  -25.2742  -52.0309 O.2       16 UNK        -0.5000 
     94 N          -5.2251  -24.0032  -50.5566 N.am      17 UNK        -0.5000 
     95 CA         -5.8679  -22.6872  -50.6472 C.3       17 UNK         0.1400 
     96 CB         -7.3495  -22.7607  -50.2391 C.3       17 UNK        -0.1800 
     97 C          -5.6986  -21.9854  -52.0122 C.2       17 UNK         0.5000 
     98 O          -5.4067  -20.7896  -52.0449 O.2       17 UNK        -0.5000 
     99 N          -5.8821  -22.7322  -53.1062 N.am      18 UNK        -0.5000 
    100 CA        -5.8980  -22.2821  -54.4950 C.3       18 UNK         0.1400 
    101 CB        -6.1864  -23.4841  -55.4066 C.3       18 UNK        -0.1800 
    102 C         -4.6221  -21.5553  -54.9485 C.2       18 UNK         0.5000 
    103 O         -4.7307  -20.5020  -55.5765 O.2       18 UNK        -0.5000 
    104 N         -3.4405  -22.0925  -54.6084 N.am      19 UNK        -0.5000 
    105 CA        -2.1531  -21.5116  -55.0127 C.3       19 UNK         0.1400 
    106 CB        -1.0364  -22.5559  -54.8671 C.3       19 UNK        -0.1800 
    107 C         -1.8033  -20.2120  -54.2593 C.2       19 UNK         0.5000 
    108 O         -0.9938  -19.4273  -54.7541 O.2       19 UNK        -0.5000 
    109 N         -2.4353  -19.9950  -53.0985 N.am      20 UNK        -0.5000 
    110 CA        -2.3495  -18.7632  -52.3131 C.3       20 UNK         0.1400 
    111 CB        -2.3919  -19.1328  -50.8210 C.3       20 UNK        -0.1800 
    112 C         -3.4721  -17.7655  -52.6734 C.2       20 UNK         0.5000 
    113 O         -3.4574  -16.6419  -52.1717 O.2       20 UNK        -0.5000 
    114 N         -4.4163  -18.1896  -53.5307 N.am      21 UNK        -0.5000 
    115 CA        -5.6404  -17.4944  -53.9433 C.3       21 UNK         0.1400 
    116 CB        -5.3149  -16.1985  -54.7153 C.3       21 UNK        -0.1800 
    117 C         -6.6341  -17.2810  -52.7801 C.2       21 UNK         0.5000 
    118 O         -7.3681  -16.2908  -52.7680 O.2       21 UNK        -0.5000 
    119 N         -6.6463  -18.2235  -51.8299 N.am      22 UNK        -0.5000 
    120 CA        -7.4833  -18.2058  -50.6182 C.3       22 UNK         0.1400 
    121 C         -8.8170  -18.9927  -50.7707 C.2       22 UNK         0.5000 
    122 N         -9.0922  -19.6287  -51.9034 N.am      22 UNK        -0.7600 
    123 O         -9.6262  -19.0181  -49.8476 O.2       22 UNK        -0.5000 
    124 C124       -6.6891  -18.6824  -49.3730 C.3       23 UNK        -0.0398 
    125 S125       -5.2108  -17.6586  -49.0814 S.3       23 UNK        -0.2404 
    126 C126       -4.6092  -18.3099  -47.4941 C.3       23 UNK        -0.0205 
    127 H127        0.3938  -12.5154  -43.1460 H         1 UNK         0.0600 
    128 H128        1.5475  -13.1383  -44.3231 H         1 UNK         0.0600 
    129 H129        1.8641  -11.6039  -43.4922 H         1 UNK         0.0600 
    130 H130        1.3666  -12.4661  -46.5138 H         1 UNK         0.3000 
    131 H131       -0.1466  -10.1495  -47.2887 H         1 UNK         0.0600 
    132 H132       -2.0162  -11.2150  -48.3963 H         1 UNK         0.0800 
    133 H133       -2.0510  -11.6828  -46.7373 H         1 UNK         0.0800 
    134 H134       -2.3241  -13.9995  -45.9243 H         1 UNK         0.0800 
    135 H135       -0.5896  -14.2160  -46.0699 H         1 UNK         0.0800 
    136 H136       -3.8697  -15.7379  -46.9866 H         1 UNK         0.1150 
    137 H137       -2.2522  -19.6890  -47.3538 H         1 UNK         0.1150 
    138 H138        0.3485  -16.3809  -46.5636 H         1 UNK         0.1150 
    139 H139        0.1834  -19.8702  -47.6898 H         1 UNK         0.0800 
    140 H140        1.2597  -18.5604  -47.2711 H         1 UNK         0.0800 
    141 H141        2.1201  -21.0884  -46.7445 H         1 UNK         0.0800 
    142 H142        2.5194  -21.2983  -45.0727 H         1 UNK         0.0800 
    143 H143        1.6618  -23.3354  -46.2081 H         1 UNK         0.0600 
    144 H144        0.5851  -22.4779  -43.6735 H         1 UNK         0.3000 
    145 H145       -0.3230  -25.8573  -42.7457 H         1 UNK         0.0600 
    146 H146        1.1596  -25.2536  -40.8616 H         1 UNK         0.0600 
    147 H147        2.1212  -25.5418  -42.3023 H         1 UNK         0.0600 
    148 H148        1.8199  -23.8925  -41.7678 H         1 UNK         0.0600 
    149 H149       -0.5734  -23.4285  -41.3085 H         1 UNK         0.3000 
    150 H150       -3.7601  -22.4027  -42.4307 H         1 UNK         0.0600 
    151 H151       -4.3523  -24.2905  -40.9067 H         1 UNK         0.0600 
    152 H152       -4.3979  -22.7537  -40.0578 H         1 UNK         0.0600 
    153 H153       -3.0360  -23.8508  -39.8249 H         1 UNK         0.0600 
    154 H154       -2.1029  -21.5899  -40.2448 H         1 UNK         0.3000 
    155 H155       -1.1543  -19.3975  -40.4716 H         1 UNK         0.0600 
    156 H156        1.3315  -19.8019  -40.4199 H         1 UNK         0.0600 
    157 H157        1.2034  -20.8683  -41.8148 H         1 UNK         0.0600 
    158 H158        0.4809  -21.3265  -40.2758 H         1 UNK         0.0600 
    159 H159       -0.6079  -18.9079  -43.2407 H         1 UNK         0.3000 
    160 H160        0.3313  -17.0479  -44.0514 H         1 UNK         0.0600 
    161 H161       -0.8161  -14.9491  -42.1257 H         1 UNK         0.0600 
    162 H162       -1.7303  -15.9353  -43.2623 H         1 UNK         0.0600 
    163 H163       -0.6152  -14.7177  -43.8568 H         1 UNK         0.0600 
    164 H164        1.6338  -14.8727  -42.6993 H         1 UNK         0.3000 
    165 H165        3.9829  -15.0910  -41.9778 H         1 UNK         0.0600 
    166 H166        5.5670  -16.7595  -44.0134 H         1 UNK         0.0600 
    167 H167        6.2537  -15.6726  -42.8080 H         1 UNK         0.0600 
    168 H168        5.4163  -17.1285  -42.2980 H         1 UNK         0.0600 
    169 H169        3.5717  -14.6968  -44.8396 H         1 UNK         0.3000 
    170 H170        3.6182  -11.9266  -45.1410 H         1 UNK         0.0600 
    171 H171        5.4371  -10.5924  -44.1407 H         1 UNK         0.0600 
    172 H172        6.6493  -11.5766  -44.9541 H         1 UNK         0.0600 
    173 H173        5.5519  -10.5619  -45.8908 H         1 UNK         0.0600 
    174 H174        5.7969  -13.0963  -46.6911 H         1 UNK         0.3000 
    175 H175        5.1502  -13.7780  -48.7919 H         1 UNK         0.0600 
    176 H176        4.5654  -16.4646  -47.4344 H         1 UNK         0.0600 
    177 H177        5.5191  -16.2725  -48.9060 H         1 UNK         0.0600 
    178 H178        6.0713  -15.5680  -47.3955 H         1 UNK         0.0600 
    179 H179        3.4065  -13.9894  -50.0971 H         1 UNK         0.3000 
    180 H180        1.9015  -15.6589  -51.4279 H         1 UNK         0.0600 
    181 H181       -0.4322  -16.0716  -49.4902 H         1 UNK         0.0600 
    182 H182        0.4383  -17.3398  -50.3399 H         1 UNK         0.0600 
    183 H183       -0.5224  -16.1799  -51.2441 H         1 UNK         0.0600 
    184 H184        0.0919  -13.7444  -50.1122 H         1 UNK         0.3000 
    185 H185        1.8131  -10.8742  -51.2370 H         1 UNK         0.0600 
    186 H186        0.5166  -11.4439  -53.2946 H         1 UNK         0.0600 
    187 H187       -0.8428  -11.9724  -52.3104 H         1 UNK         0.0600 
    188 H188       -0.3484  -10.2787  -52.3054 H         1 UNK         0.0600 
    189 H189       -0.7198  -11.3098  -49.9520 H         1 UNK         0.3000 
    190 H190       -1.4916  -22.1072  -45.1171 H         1 UNK         0.3000 
    191 H191       -2.7295  -21.9208  -47.6681 H         1 UNK         0.0600 
    192 H192       -4.8415  -21.9623  -46.3727 H         1 UNK         0.0600 
    193 H193       -3.6689  -20.9184  -45.5801 H         1 UNK         0.0600 
    194 H194       -3.9898  -22.5270  -44.9410 H         1 UNK         0.0600 
    195 H195       -2.5093  -24.6721  -45.3559 H         1 UNK         0.3000 
    196 H196       -3.9442  -26.5511  -46.9204 H         1 UNK         0.0600 
    197 H197       -2.8310  -28.2308  -45.4325 H         1 UNK         0.0600 
    198 H198       -3.4989  -26.8878  -44.5181 H         1 UNK         0.0600 
    199 H199       -1.7637  -26.9776  -44.8101 H         1 UNK         0.0600 
    200 H200       -0.4156  -25.8333  -46.7779 H         1 UNK         0.3000 
    201 H201        0.4218  -27.7795  -48.6579 H         1 UNK         0.0600 
    202 H202        1.9654  -26.6134  -47.0992 H         1 UNK         0.0600 
    203 H203        1.6928  -25.0861  -47.9362 H         1 UNK         0.0600 
    204 H204        2.5021  -26.4122  -48.7604 H         1 UNK         0.0600 
    205 H205       -0.6545  -24.4060  -49.1228 H         1 UNK         0.3000 
    206 H206       -0.3106  -24.3558  -51.9880 H         1 UNK         0.0600 
    207 H207       -0.2802  -22.2996  -50.5999 H         1 UNK         0.0600 
    208 H208       -1.6183  -22.2116  -51.7309 H         1 UNK         0.0600 
    209 H209       -1.9271  -22.6045  -50.0515 H         1 UNK         0.0600 
    210 H210       -2.6002  -25.9272  -50.0420 H         1 UNK         0.3000 
    211 H211       -4.6307  -26.7758  -50.1898 H         1 UNK         0.0600 
    212 H212       -4.2243  -26.7584  -53.2311 H         1 UNK         0.0600 
    213 H213       -5.3703  -27.7501  -52.3386 H         1 UNK         0.0600 
    214 H214       -3.6460  -28.0148  -52.1374 H         1 UNK         0.0600 
    215 H215       -4.4458  -24.0392  -49.9016 H         1 UNK         0.3000 
    216 H216       -5.3552  -22.0635  -49.9132 H         1 UNK         0.0600 
    217 H217       -7.9371  -23.3563  -50.9380 H         1 UNK         0.0600 
    218 H218       -7.7948  -21.7667  -50.2068 H         1 UNK         0.0600 
    219 H219       -7.4625  -23.1987  -49.2475 H         1 UNK         0.0600 
    220 H220       -6.1088  -23.7111  -52.9484 H         1 UNK         0.3000 
    221 H221       -6.7259  -21.5771  -54.5926 H         1 UNK         0.0600 
    222 H222       -5.4207  -24.2549  -55.3080 H         1 UNK         0.0600 
    223 H223       -7.1487  -23.9375  -55.1679 H         1 UNK         0.0600 
    224 H224       -6.2199  -23.1837  -56.4548 H         1 UNK         0.0600 
    225 H225       -3.4109  -22.9502  -54.0638 H         1 UNK         0.3000 
    226 H226       -2.2210  -21.2562  -56.0725 H         1 UNK         0.0600 
    227 H227       -1.2785  -23.4722  -55.4056 H         1 UNK         0.0600 
    228 H228       -0.0973  -22.1783  -55.2734 H         1 UNK         0.0600 
    229 H229       -0.8559  -22.8166  -53.8268 H         1 UNK         0.0600 
    230 H230       -3.1124  -20.6769  -52.7842 H         1 UNK         0.3000 
    231 H231       -1.3981  -18.2643  -52.5076 H         1 UNK         0.0600 
    232 H232       -3.3145  -19.6516  -50.5588 H         1 UNK         0.0600 
    233 H233       -1.5550  -19.7750  -50.5480 H         1 UNK         0.0600 
    234 H234       -2.3281  -18.2410  -50.1960 H         1 UNK         0.0600 
    235 H235       -4.3189  -19.1245  -53.9051 H         1 UNK         0.3000 
    236 H236       -6.1415  -18.1677  -54.6399 H         1 UNK         0.0600 
    237 H237       -4.6116  -16.3890  -55.5259 H         1 UNK         0.0600 
    238 H238       -6.2148  -15.7738  -55.1613 H         1 UNK         0.0600 
    239 H239       -4.8828  -15.4361  -54.0668 H         1 UNK         0.0600 
    240 H240       -6.0329  -19.0287  -51.9278 H         1 UNK         0.3000 
    241 H241       -7.7849  -17.1753  -50.4224 H         1 UNK         0.0600 
    242 H242       -8.4439  -19.6018  -52.6730 H         1 UNK         0.3800 
    243 H243       -9.9640  -20.1259  -51.9951 H         1 UNK         0.3800 
    244 H244       -7.3119  -18.6411  -48.4777 H         1 UNK         0.0800 
    245 H245       -6.3768  -19.7206  -49.4909 H         1 UNK         0.0800 
    246 H246       -4.6022  -19.4001  -47.5324 H         1 UNK         0.0800 
    247 H247       -5.2960  -18.0251  -46.6960 H         1 UNK         0.0800 
@<TRIPOS>BOND
     1    1    2 1    
     2    1  127 1    
     3    1  128 1    
     4    1  129 1    
     5    2    3 2    
     6    2    4 am   BACKBONE|DICT|INTERRES
     7    4    5 1    
     8    4  130 1    
     9    5    6 1    
    10    5   65 1    
    11    5  131 1    
    12    6    7 1    
    13    6  132 1    
    14    6  133 1    
    15    7    8 1    
    16    8    9 1    
    17    8  134 1    
    18    8  135 1    
    19    9   10 ar   
    20    9   14 ar   
    21   10   11 ar   
    22   10  136 1    
    23   11   12 ar   
    24   11  126 1    
    25   12   13 ar   
    26   12  137 1    
    27   13   14 ar   
    28   13   15 1    
    29   14  138 1    
    30   15   16 1    
    31   15  139 1    
    32   15  140 1    
    33   16   17 1    
    34   17   18 1    
    35   17  141 1    
    36   17  142 1    
    37   18   19 1    
    38   18   67 1    
    39   18  143 1    
    40   19   20 am   BACKBONE|DICT|INTERRES
    41   19  144 1    
    42   20   21 2    
    43   20   22 1    
    44   22   23 1    
    45   22   24 1    
    46   22  145 1    
    47   23  146 1    
    48   23  147 1    
    49   23  148 1    
    50   24   25 am   BACKBONE|DICT|INTERRES
    51   24  149 1    
    52   25   26 2    
    53   25   27 1    
    54   27   28 1    
    55   27   29 1    
    56   27  150 1    
    57   28  151 1    
    58   28  152 1    
    59   28  153 1    
    60   29   30 am   BACKBONE|DICT|INTERRES
    61   29  154 1    
    62   30   31 2    
    63   30   32 1    
    64   32   33 1    
    65   32   34 1    
    66   32  155 1    
    67   33  156 1    
    68   33  157 1    
    69   33  158 1    
    70   34   35 am   BACKBONE|DICT|INTERRES
    71   34  159 1    
    72   35   36 2    
    73   35   37 1    
    74   37   38 1    
    75   37   39 1    
    76   37  160 1    
    77   38  161 1    
    78   38  162 1    
    79   38  163 1    
    80   39   40 am   BACKBONE|DICT|INTERRES
    81   39  164 1    
    82   40   41 2    
    83   40   42 1    
    84   42   43 1    
    85   42   44 1    
    86   42  165 1    
    87   43  166 1    
    88   43  167 1    
    89   43  168 1    
    90   44   45 am   BACKBONE|DICT|INTERRES
    91   44  169 1    
    92   45   46 2    
    93   45   47 1    
    94   47   48 1    
    95   47   49 1    
    96   47  170 1    
    97   48  171 1    
    98   48  172 1    
    99   48  173 1    
   100   49   50 am   BACKBONE|DICT|INTERRES
   101   49  174 1    
   102   50   51 2    
   103   50   52 1    
   104   52   53 1    
   105   52   54 1    
   106   52  175 1    
   107   53  176 1    
   108   53  177 1    
   109   53  178 1    
   110   54   55 am   BACKBONE|DICT|INTERRES
   111   54  179 1    
   112   55   56 2    
   113   55   57 1    
   114   57   58 1    
   115   57   59 1    
   116   57  180 1    
   117   58  181 1    
   118   58  182 1    
   119   58  183 1    
   120   59   60 am   BACKBONE|DICT|INTERRES
   121   59  184 1    
   122   60   61 2    
   123   60   62 1    
   124   62   63 1    
   125   62   64 1    
   126   62  185 1    
   127   63  186 1    
   128   63  187 1    
   129   63  188 1    
   130   64   65 am   BACKBONE|DICT|INTERRES
   131   64  189 1    
   132   65   66 2    
   133   67   68 2    
   134   67   69 am   BACKBONE|DICT|INTERRES
   135   69   70 1    
   136   69  190 1    
   137   70   71 1    
   138   70   72 1    
   139   70  191 1    
   140   71  192 1    
   141   71  193 1    
   142   71  194 1    
   143   72   73 2    
   144   72   74 am   BACKBONE|DICT|INTERRES
   145   74   75 1    
   146   74  195 1    
   147   75   76 1    
   148   75   77 1    
   149   75  196 1    
   150   76  197 1    
   151   76  198 1    
   152   76  199 1    
   153   77   78 2    
   154   77   79 am   BACKBONE|DICT|INTERRES
   155   79   80 1    
   156   79  200 1    
   157   80   81 1    
   158   80   82 1    
   159   80  201 1    
   160   81  202 1    
   161   81  203 1    
   162   81  204 1    
   163   82   83 2    
   164   82   84 am   BACKBONE|DICT|INTERRES
   165   84   85 1    
   166   84  205 1    
   167   85   86 1    
   168   85   87 1    
   169   85  206 1    
   170   86  207 1    
   171   86  208 1    
   172   86  209 1    
   173   87   88 2    
   174   87   89 am   BACKBONE|DICT|INTERRES
   175   89   90 1    
   176   89  210 1    
   177   90   91 1    
   178   90   92 1    
   179   90  211 1    
   180   91  212 1    
   181   91  213 1    
   182   91  214 1    
   183   92   93 2    
   184   92   94 am   BACKBONE|DICT|INTERRES
   185   94   95 1    
   186   94  215 1    
   187   95   96 1    
   188   95   97 1    
   189   95  216 1    
   190   96  217 1    
   191   96  218 1    
   192   96  219 1    
   193   97   98 2    
   194   97   99 am   BACKBONE|DICT|INTERRES
   195   99  100 1    
   196   99  220 1    
   197  100  101 1    
   198  100  102 1    
   199  100  221 1    
   200  101  222 1    
   201  101  223 1    
   202  101  224 1    
   203  102  103 2    
   204  102  104 am   BACKBONE|DICT|INTERRES
   205  104  105 1    
   206  104  225 1    
   207  105  106 1    
   208  105  107 1    
   209  105  226 1    
   210  106  227 1    
   211  106  228 1    
   212  106  229 1    
   213  107  108 2    
   214  107  109 am   BACKBONE|DICT|INTERRES
   215  109  110 1    
   216  109  230 1    
   217  110  111 1    
   218  110  112 1    
   219  110  231 1    
   220  111  232 1    
   221  111  233 1    
   222  111  234 1    
   223  112  113 2    
   224  112  114 am   BACKBONE|DICT|INTERRES
   225  114  115 1    
   226  114  235 1    
   227  115  116 1    
   228  115  117 1    
   229  115  236 1    
   230  116  237 1    
   231  116  238 1    
   232  116  239 1    
   233  117  118 2    
   234  117  119 am   BACKBONE|DICT|INTERRES
   235  119  120 1    
   236  119  240 1    
   237  120  121 1    
   238  120  124 1    
   239  120  241 1    
   240  121  122 am   BACKBONE|DICT|INTERRES
   241  121  123 2    
   242  122  242 1    
   243  122  243 1    
   244  124  125 1    
   245  124  244 1    
   246  124  245 1    
   247  125  126 1    
   248  126  246 1    
   249  126  247 1    
@<TRIPOS>SUBSTRUCTURE
     1 UNK         1 GROUP             0       ****    0 ROOT    
