@<TRIPOS>MOLECULE
3R540
247   249    1
SMALL
USER_CHARGES


@<TRIPOS>ATOM
      1 CA          0.2448   -9.6634  -49.5748 C.3       0 UNK        -0.1800 
      2 C          -0.0811  -10.5853  -48.4079 C.2       0 UNK         0.5000 
      3 O          -0.2008  -10.1143  -47.2775 O.2       0 UNK        -0.5000 
      4 N          -0.2312  -11.8874  -48.6883 N.am      1 UNK        -0.5000 
      5 CA         -0.5032  -12.9675  -47.7332 C.3       1 UNK         0.1400 
      6 C6         -1.8919  -12.8398  -47.0444 C.3       23 UNK        -0.0398 
      7 S7         -2.3833  -14.2978  -46.0523 S.3       23 UNK        -0.2404 
      8 C8         -3.5967  -15.1664  -47.1037 C.3       23 UNK        -0.0205 
      9 C9         -3.0300  -16.1475  -48.1331 C.ar      23 UNK        -0.0193 
     10 C10        -3.9368  -16.8328  -48.9478 C.ar      23 UNK        -0.1150 
     11 C11        -3.4923  -17.7345  -49.9179 C.ar      23 UNK        -0.0193 
     12 C12        -2.1216  -17.9263  -50.0962 C.ar      23 UNK        -0.1150 
     13 C13        -1.1983  -17.2527  -49.2957 C.ar      23 UNK        -0.0193 
     14 C14        -1.6588  -16.3925  -48.2955 C.ar      23 UNK        -0.1150 
     15 C15         0.2954  -17.4210  -49.5413 C.3       23 UNK        -0.0205 
     16 S16         0.8720  -19.1272  -49.2848 S.3       23 UNK        -0.2404 
     17 C17         0.6189  -19.3175  -47.4908 C.3       23 UNK        -0.0398 
     18 CA         -0.1286  -20.6166  -47.1154 C.3       11 UNK         0.1400 
     19 N           0.0281  -20.9136  -45.6903 N.am      11 UNK        -0.5000 
     20 C          -0.3084  -22.0682  -45.1026 C.2       10 UNK         0.5000 
     21 O          -0.7979  -23.0225  -45.7033 O.2       10 UNK        -0.5000 
     22 CA         -0.0969  -22.1615  -43.5818 C.3       10 UNK         0.1400 
     23 CB          1.3848  -22.3920  -43.2495 C.3       10 UNK        -0.1800 
     24 N          -0.5869  -20.9816  -42.8692 N.am      10 UNK        -0.5000 
     25 C          -1.8712  -20.5972  -42.8395 C.2       9 UNK         0.5000 
     26 O          -2.7831  -21.2086  -43.3965 O.2       9 UNK        -0.5000 
     27 CA         -2.1878  -19.2869  -42.0984 C.3       9 UNK         0.1400 
     28 CB         -2.1931  -19.5056  -40.5782 C.3       9 UNK        -0.1800 
     29 N          -1.2630  -18.2059  -42.4358 N.am      9 UNK        -0.5000 
     30 C          -1.0956  -17.7017  -43.6674 C.2       8 UNK         0.5000 
     31 O          -1.7083  -18.0886  -44.6623 O.2       8 UNK        -0.5000 
     32 CA         -0.0145  -16.6206  -43.8175 C.3       8 UNK         0.1400 
     33 CB         -0.4607  -15.3079  -43.1557 C.3       8 UNK        -0.1800 
     34 N           1.2652  -17.0331  -43.2444 N.am      8 UNK        -0.5000 
     35 C           1.9665  -18.1206  -43.5916 C.2       7 UNK         0.5000 
     36 O           1.6393  -18.8948  -44.4884 O.2       7 UNK        -0.5000 
     37 CA          3.2203  -18.4224  -42.7555 C.3       7 UNK         0.1400 
     38 CB          4.4064  -17.5540  -43.2016 C.3       7 UNK        -0.1800 
     39 N           2.9803  -18.2325  -41.3257 N.am      7 UNK        -0.5000 
     40 C           2.1567  -18.9897  -40.5865 C.2       6 UNK         0.5000 
     41 O           1.5270  -19.9525  -41.0248 O.2       6 UNK        -0.5000 
     42 CA          1.9788  -18.5673  -39.1180 C.3       6 UNK         0.1400 
     43 CB          3.1480  -19.0723  -38.2593 C.3       6 UNK        -0.1800 
     44 N           1.8570  -17.1159  -38.9727 N.am      6 UNK        -0.5000 
     45 C           0.8101  -16.4043  -39.4126 C.2       5 UNK         0.5000 
     46 O          -0.1745  -16.9030  -39.9584 O.2       5 UNK        -0.5000 
     47 CA          0.8970  -14.8756  -39.2471 C.3       5 UNK         0.1400 
     48 CB          0.4421  -14.4588  -37.8403 C.3       5 UNK        -0.1800 
     49 N           2.2325  -14.3277  -39.5097 N.am      5 UNK        -0.5000 
     50 C           2.8631  -14.3957  -40.6889 C.2       4 UNK         0.5000 
     51 O           2.4225  -14.9973  -41.6704 O.2       4 UNK        -0.5000 
     52 CA          4.2250  -13.7018  -40.7919 C.3       4 UNK         0.1400 
     53 CB          5.3546  -14.6486  -40.3480 C.3       4 UNK        -0.1800 
     54 N           4.4199  -13.3002  -42.1819 N.am      4 UNK        -0.5000 
     55 C           5.2392  -12.3319  -42.6088 C.2       3 UNK         0.5000 
     56 O           5.9555  -11.6754  -41.8511 O.2       3 UNK        -0.5000 
     57 CA          5.2722  -12.0361  -44.1228 C.3       3 UNK         0.1400 
     58 CB          6.7141  -11.9548  -44.6570 C.3       3 UNK        -0.1800 
     59 N           4.5286  -13.0273  -44.9064 N.am      3 UNK        -0.5000 
     60 C           3.7293  -12.7487  -45.9447 C.2       2 UNK         0.5000 
     61 O           3.5360  -11.6062  -46.3676 O.2       2 UNK        -0.5000 
     62 CA          3.0787  -13.9526  -46.6666 C.3       2 UNK         0.1400 
     63 CB          2.8897  -15.1885  -45.7586 C.3       2 UNK        -0.1800 
     64 N           1.8165  -13.6175  -47.3374 N.am      2 UNK        -0.5000 
     65 C           0.6894  -13.1648  -46.7662 C.2       1 UNK         0.5000 
     66 O           0.5794  -12.9067  -45.5667 O.2       1 UNK        -0.5000 
     67 C          -1.6110  -20.5993  -47.5491 C.2       11 UNK         0.5000 
     68 O          -1.9388  -21.1353  -48.6114 O.2       11 UNK        -0.5000 
     69 N          -2.4830  -20.0364  -46.6997 N.am      12 UNK        -0.5000 
     70 CA         -3.9325  -20.0406  -46.8825 C.3       12 UNK         0.1400 
     71 CB         -4.5904  -19.1078  -45.8558 C.3       12 UNK        -0.1800 
     72 C          -4.5267  -21.4569  -46.8031 C.2       12 UNK         0.5000 
     73 O          -5.3056  -21.8312  -47.6798 O.2       12 UNK        -0.5000 
     74 N          -4.1190  -22.2337  -45.7879 N.am      13 UNK        -0.5000 
     75 CA         -4.5272  -23.6278  -45.5884 C.3       13 UNK         0.1400 
     76 CB         -4.0133  -24.1260  -44.2294 C.3       13 UNK        -0.1800 
     77 C          -4.0605  -24.5618  -46.7207 C.2       13 UNK         0.5000 
     78 O          -4.8087  -25.4529  -47.1234 O.2       13 UNK        -0.5000 
     79 N          -2.8500  -24.3156  -47.2379 N.am      14 UNK        -0.5000 
     80 CA         -2.2699  -25.0040  -48.3907 C.3       14 UNK         0.1400 
     81 CB         -0.7460  -24.8032  -48.3743 C.3       14 UNK        -0.1800 
     82 C          -2.8513  -24.5453  -49.7427 C.2       14 UNK         0.5000 
     83 O          -2.5077  -25.1439  -50.7612 O.2       14 UNK        -0.5000 
     84 N          -3.6808  -23.4903  -49.7461 N.am      15 UNK        -0.5000 
     85 CA         -4.3160  -22.8610  -50.9073 C.3       15 UNK         0.1400 
     86 CB         -5.3860  -23.7933  -51.5129 C.3       15 UNK        -0.1800 
     87 C          -3.2857  -22.3760  -51.9457 C.2       15 UNK         0.5000 
     88 O          -3.3946  -22.7140  -53.1249 O.2       15 UNK        -0.5000 
     89 N          -2.2844  -21.6196  -51.4704 N.am      16 UNK        -0.5000 
     90 CA         -1.1501  -21.0903  -52.2387 C.3       16 UNK         0.1400 
     91 CB         -1.6196  -20.0825  -53.3106 C.3       16 UNK        -0.1800 
     92 C          -0.2595  -22.2076  -52.8206 C.2       16 UNK         0.5000 
     93 O           0.1748  -22.1182  -53.9700 O.2       16 UNK        -0.5000 
     94 N          -0.0151  -23.2410  -52.0007 N.am      17 UNK        -0.5000 
     95 CA          0.7342  -24.4618  -52.3141 C.3       17 UNK         0.1400 
     96 CB          2.2199  -24.1494  -52.5928 C.3       17 UNK        -0.1800 
     97 C           0.0557  -25.2817  -53.4303 C.2       17 UNK         0.5000 
     98 O           0.6759  -25.5861  -54.4511 O.2       17 UNK        -0.5000 
     99 N          -1.2179  -25.6211  -53.1902 N.am      18 UNK        -0.5000 
    100 CA        -2.1077  -26.4192  -54.0340 C.3       18 UNK         0.1400 
    101 CB        -1.6016  -27.8734  -54.1435 C.3       18 UNK        -0.1800 
    102 C         -2.4015  -25.7688  -55.4003 C.2       18 UNK         0.5000 
    103 O         -2.3917  -26.4526  -56.4270 O.2       18 UNK        -0.5000 
    104 N         -2.6887  -24.4606  -55.3890 N.am      19 UNK        -0.5000 
    105 CA        -3.2552  -23.7448  -56.5309 C.3       19 UNK         0.1400 
    106 CB        -2.9685  -22.2418  -56.3786 C.3       19 UNK        -0.1800 
    107 C         -4.7714  -24.0047  -56.6258 C.2       19 UNK         0.5000 
    108 O         -5.3664  -24.5910  -55.7155 O.2       19 UNK        -0.5000 
    109 N         -5.3845  -23.5391  -57.7199 N.am      20 UNK        -0.5000 
    110 CA        -6.8258  -23.5991  -57.9645 C.3       20 UNK         0.1400 
    111 CB        -7.0859  -23.3263  -59.4567 C.3       20 UNK        -0.1800 
    112 C         -7.5857  -22.6190  -57.0472 C.2       20 UNK         0.5000 
    113 O         -7.9337  -21.5177  -57.4765 O.2       20 UNK        -0.5000 
    114 N         -7.7698  -23.0210  -55.7813 N.am      21 UNK        -0.5000 
    115 CA        -8.4351  -22.2902  -54.6962 C.3       21 UNK         0.1400 
    116 CB        -9.9555  -22.2250  -54.9500 C.3       21 UNK        -0.1800 
    117 C         -7.8034  -20.9044  -54.4459 C.2       21 UNK         0.5000 
    118 O         -8.5125  -19.8977  -54.4062 O.2       21 UNK        -0.5000 
    119 N         -6.4680  -20.8856  -54.3233 N.am      22 UNK        -0.5000 
    120 CA        -5.6177  -19.6829  -54.2324 C.3       22 UNK         0.1400 
    121 C         -5.3795  -18.9584  -55.5968 C.2       22 UNK         0.5000 
    122 N         -5.9541  -19.3989  -56.7105 N.am      22 UNK        -0.7600 
    123 O         -4.6228  -17.9951  -55.6653 O.2       22 UNK        -0.5000 
    124 C124       -6.0676  -18.7125  -53.0978 C.3       23 UNK        -0.0398 
    125 S125       -4.7249  -17.7038  -52.3828 S.3       23 UNK        -0.2404 
    126 C126       -4.4907  -18.5021  -50.7681 C.3       23 UNK        -0.0205 
    127 H127       -0.5255   -8.8987  -49.6757 H         1 UNK         0.0600 
    128 H128        0.3089  -10.2071  -50.5177 H         1 UNK         0.0600 
    129 H129        1.1997   -9.1662  -49.4040 H         1 UNK         0.0600 
    130 H130       -0.1179  -12.1857  -49.6473 H         1 UNK         0.3000 
    131 H131       -0.5424  -13.8601  -48.3548 H         1 UNK         0.0600 
    132 H132       -1.9076  -11.9722  -46.3836 H         1 UNK         0.0800 
    133 H133       -2.6581  -12.6519  -47.7970 H         1 UNK         0.0800 
    134 H134       -4.2598  -15.7217  -46.4397 H         1 UNK         0.0800 
    135 H135       -4.2242  -14.4324  -47.6107 H         1 UNK         0.0800 
    136 H136       -4.9977  -16.6671  -48.8219 H         1 UNK         0.1150 
    137 H137       -1.7673  -18.6033  -50.8562 H         1 UNK         0.1150 
    138 H138       -0.9355  -15.9099  -47.6582 H         1 UNK         0.1150 
    139 H139        0.5146  -17.1304  -50.5696 H         1 UNK         0.0800 
    140 H140        0.8755  -16.7503  -48.9053 H         1 UNK         0.0800 
    141 H141        0.1151  -18.4463  -47.0685 H         1 UNK         0.0800 
    142 H142        1.6153  -19.3272  -47.0483 H         1 UNK         0.0800 
    143 H143        0.3482  -21.4386  -47.6537 H         1 UNK         0.0600 
    144 H144        0.4510  -20.1803  -45.1251 H         1 UNK         0.3000 
    145 H145       -0.6615  -23.0242  -43.2223 H         1 UNK         0.0600 
    146 H146        1.5273  -22.5550  -42.1812 H         1 UNK         0.0600 
    147 H147        1.7696  -23.2716  -43.7670 H         1 UNK         0.0600 
    148 H148        2.0010  -21.5413  -43.5422 H         1 UNK         0.0600 
    149 H149        0.1039  -20.4371  -42.3619 H         1 UNK         0.3000 
    150 H150       -3.1883  -18.9705  -42.4001 H         1 UNK         0.0600 
    151 H151       -2.8803  -20.3057  -40.3000 H         1 UNK         0.0600 
    152 H152       -2.5120  -18.6052  -40.0528 H         1 UNK         0.0600 
    153 H153       -1.2041  -19.7755  -40.2062 H         1 UNK         0.0600 
    154 H154       -0.7244  -17.8148  -41.6690 H         1 UNK         0.3000 
    155 H155        0.1311  -16.4387  -44.8842 H         1 UNK         0.0600 
    156 H156       -1.4583  -15.0166  -43.4797 H         1 UNK         0.0600 
    157 H157        0.2176  -14.4919  -43.4032 H         1 UNK         0.0600 
    158 H158       -0.4942  -15.3918  -42.0716 H         1 UNK         0.0600 
    159 H159        1.6443  -16.4232  -42.5238 H         1 UNK         0.3000 
    160 H160        3.4859  -19.4692  -42.9175 H         1 UNK         0.0600 
    161 H161        4.2080  -16.4914  -43.0614 H         1 UNK         0.0600 
    162 H162        4.6258  -17.7115  -44.2582 H         1 UNK         0.0600 
    163 H163        5.3089  -17.8026  -42.6431 H         1 UNK         0.0600 
    164 H164        3.4185  -17.4340  -40.8933 H         1 UNK         0.3000 
    165 H165        1.0599  -19.0271  -38.7476 H         1 UNK         0.0600 
    166 H166        2.9910  -18.8412  -37.2055 H         1 UNK         0.0600 
    167 H167        3.2522  -20.1551  -38.3415 H         1 UNK         0.0600 
    168 H168        4.0962  -18.6271  -38.5632 H         1 UNK         0.0600 
    169 H169        2.6246  -16.6288  -38.5345 H         1 UNK         0.3000 
    170 H170        0.2100  -14.4284  -39.9682 H         1 UNK         0.0600 
    171 H171       -0.5578  -14.8383  -37.6251 H         1 UNK         0.0600 
    172 H172        1.1116  -14.8418  -37.0692 H         1 UNK         0.0600 
    173 H173        0.4034  -13.3737  -37.7435 H         1 UNK         0.0600 
    174 H174        2.6688  -13.8266  -38.7490 H         1 UNK         0.3000 
    175 H175        4.2135  -12.8145  -40.1555 H         1 UNK         0.0600 
    176 H176        5.4033  -15.5391  -40.9755 H         1 UNK         0.0600 
    177 H177        6.3254  -14.1553  -40.3946 H         1 UNK         0.0600 
    178 H178        5.2094  -14.9779  -39.3185 H         1 UNK         0.0600 
    179 H179        3.7841  -13.7496  -42.8277 H         1 UNK         0.3000 
    180 H180        4.8095  -11.0539  -44.2385 H         1 UNK         0.0600 
    181 H181        7.2375  -12.9046  -44.5414 H         1 UNK         0.0600 
    182 H182        7.2903  -11.1940  -44.1290 H         1 UNK         0.0600 
    183 H183        6.7279  -11.6910  -45.7146 H         1 UNK         0.0600 
    184 H184        4.6704  -13.9931  -44.6482 H         1 UNK         0.3000 
    185 H185        3.7709  -14.2333  -47.4615 H         1 UNK         0.0600 
    186 H186        3.8486  -15.6090  -45.4566 H         1 UNK         0.0600 
    187 H187        2.3331  -14.9412  -44.8542 H         1 UNK         0.0600 
    188 H188        2.3480  -15.9811  -46.2754 H         1 UNK         0.0600 
    189 H189        1.8264  -13.7245  -48.3415 H         1 UNK         0.3000 
    190 H190       -2.1337  -19.5661  -45.8692 H         1 UNK         0.3000 
    191 H191       -4.1439  -19.6492  -47.8786 H         1 UNK         0.0600 
    192 H192       -4.2155  -18.0900  -45.9571 H         1 UNK         0.0600 
    193 H193       -5.6715  -19.0731  -45.9945 H         1 UNK         0.0600 
    194 H194       -4.3975  -19.4318  -44.8328 H         1 UNK         0.0600 
    195 H195       -3.4968  -21.8412  -45.0860 H         1 UNK         0.3000 
    196 H196       -5.6186  -23.6538  -45.5686 H         1 UNK         0.0600 
    197 H197       -4.3135  -25.1594  -44.0516 H         1 UNK         0.0600 
    198 H198       -4.4147  -23.5259  -43.4127 H         1 UNK         0.0600 
    199 H199       -2.9251  -24.0842  -44.1713 H         1 UNK         0.0600 
    200 H200       -2.2634  -23.6149  -46.7919 H         1 UNK         0.3000 
    201 H201       -2.4733  -26.0724  -48.2956 H         1 UNK         0.0600 
    202 H202       -0.3122  -25.1591  -47.4397 H         1 UNK         0.0600 
    203 H203       -0.4784  -23.7521  -48.4887 H         1 UNK         0.0600 
    204 H204       -0.2666  -25.3579  -49.1811 H         1 UNK         0.0600 
    205 H205       -3.8839  -23.0503  -48.8572 H         1 UNK         0.3000 
    206 H206       -4.8252  -21.9704  -50.5367 H         1 UNK         0.0600 
    207 H207       -6.1135  -24.0974  -50.7604 H         1 UNK         0.0600 
    208 H208       -5.9344  -23.2919  -52.3111 H         1 UNK         0.0600 
    209 H209       -4.9454  -24.6959  -51.9380 H         1 UNK         0.0600 
    210 H210       -2.2547  -21.4386  -50.4682 H         1 UNK         0.3000 
    211 H211       -0.5282  -20.5485  -51.5264 H         1 UNK         0.0600 
    212 H212       -2.1363  -20.5754  -54.1319 H         1 UNK         0.0600 
    213 H213       -0.7709  -19.5474  -53.7376 H         1 UNK         0.0600 
    214 H214       -2.2975  -19.3381  -52.8993 H         1 UNK         0.0600 
    215 H215       -0.4554  -23.2218  -51.0928 H         1 UNK         0.3000 
    216 H216        0.6996  -25.0822  -51.4177 H         1 UNK         0.0600 
    217 H217        2.7933  -25.0693  -52.7112 H         1 UNK         0.0600 
    218 H218        2.6663  -23.5925  -51.7691 H         1 UNK         0.0600 
    219 H219        2.3529  -23.5652  -53.5036 H         1 UNK         0.0600 
    220 H220       -1.6378  -25.3181  -52.3117 H         1 UNK         0.3000 
    221 H221       -3.0639  -26.4484  -53.5093 H         1 UNK         0.0600 
    222 H222       -0.6664  -27.9378  -54.7002 H         1 UNK         0.0600 
    223 H223       -1.4365  -28.3080  -53.1576 H         1 UNK         0.0600 
    224 H224       -2.3304  -28.5026  -54.6557 H         1 UNK         0.0600 
    225 H225       -2.7409  -23.9736  -54.4986 H         1 UNK         0.3000 
    226 H226       -2.7811  -24.0974  -57.4491 H         1 UNK         0.0600 
    227 H227       -1.9142  -22.0584  -56.1694 H         1 UNK         0.0600 
    228 H228       -3.2167  -21.6987  -57.2909 H         1 UNK         0.0600 
    229 H229       -3.5541  -21.8005  -55.5729 H         1 UNK         0.0600 
    230 H230       -4.8382  -23.0475  -58.4124 H         1 UNK         0.3000 
    231 H231       -7.1799  -24.6087  -57.7450 H         1 UNK         0.0600 
    232 H232       -6.7130  -22.3477  -59.7618 H         1 UNK         0.0600 
    233 H233       -8.1537  -23.3547  -59.6776 H         1 UNK         0.0600 
    234 H234       -6.6056  -24.0778  -60.0836 H         1 UNK         0.0600 
    235 H235       -7.3280  -23.8949  -55.5155 H         1 UNK         0.3000 
    236 H236       -8.2764  -22.8697  -53.7855 H         1 UNK         0.0600 
    237 H237      -10.3749  -23.2218  -55.0862 H         1 UNK         0.0600 
    238 H238      -10.4739  -21.7684  -54.1060 H         1 UNK         0.0600 
    239 H239      -10.1937  -21.6376  -55.8375 H         1 UNK         0.0600 
    240 H240       -5.9705  -21.7620  -54.3968 H         1 UNK         0.3000 
    241 H241       -4.6403  -20.0763  -53.9521 H         1 UNK         0.0600 
    242 H242       -5.7672  -18.9154  -57.5744 H         1 UNK         0.3800 
    243 H243       -6.6230  -20.1593  -56.7064 H         1 UNK         0.3800 
    244 H244       -6.8445  -18.0364  -53.4583 H         1 UNK         0.0800 
    245 H245       -6.5309  -19.2780  -52.2885 H         1 UNK         0.0800 
    246 H246       -5.4481  -18.5710  -50.2492 H         1 UNK         0.0800 
    247 H247       -4.1424  -19.5243  -50.9145 H         1 UNK         0.0800 
@<TRIPOS>BOND
     1    1    2 1    
     2    1  127 1    
     3    1  128 1    
     4    1  129 1    
     5    2    3 2    
     6    2    4 am   BACKBONE|DICT|INTERRES
     7    4    5 1    
     8    4  130 1    
     9    5    6 1    
    10    5   65 1    
    11    5  131 1    
    12    6    7 1    
    13    6  132 1    
    14    6  133 1    
    15    7    8 1    
    16    8    9 1    
    17    8  134 1    
    18    8  135 1    
    19    9   10 ar   
    20    9   14 ar   
    21   10   11 ar   
    22   10  136 1    
    23   11   12 ar   
    24   11  126 1    
    25   12   13 ar   
    26   12  137 1    
    27   13   14 ar   
    28   13   15 1    
    29   14  138 1    
    30   15   16 1    
    31   15  139 1    
    32   15  140 1    
    33   16   17 1    
    34   17   18 1    
    35   17  141 1    
    36   17  142 1    
    37   18   19 1    
    38   18   67 1    
    39   18  143 1    
    40   19   20 am   BACKBONE|DICT|INTERRES
    41   19  144 1    
    42   20   21 2    
    43   20   22 1    
    44   22   23 1    
    45   22   24 1    
    46   22  145 1    
    47   23  146 1    
    48   23  147 1    
    49   23  148 1    
    50   24   25 am   BACKBONE|DICT|INTERRES
    51   24  149 1    
    52   25   26 2    
    53   25   27 1    
    54   27   28 1    
    55   27   29 1    
    56   27  150 1    
    57   28  151 1    
    58   28  152 1    
    59   28  153 1    
    60   29   30 am   BACKBONE|DICT|INTERRES
    61   29  154 1    
    62   30   31 2    
    63   30   32 1    
    64   32   33 1    
    65   32   34 1    
    66   32  155 1    
    67   33  156 1    
    68   33  157 1    
    69   33  158 1    
    70   34   35 am   BACKBONE|DICT|INTERRES
    71   34  159 1    
    72   35   36 2    
    73   35   37 1    
    74   37   38 1    
    75   37   39 1    
    76   37  160 1    
    77   38  161 1    
    78   38  162 1    
    79   38  163 1    
    80   39   40 am   BACKBONE|DICT|INTERRES
    81   39  164 1    
    82   40   41 2    
    83   40   42 1    
    84   42   43 1    
    85   42   44 1    
    86   42  165 1    
    87   43  166 1    
    88   43  167 1    
    89   43  168 1    
    90   44   45 am   BACKBONE|DICT|INTERRES
    91   44  169 1    
    92   45   46 2    
    93   45   47 1    
    94   47   48 1    
    95   47   49 1    
    96   47  170 1    
    97   48  171 1    
    98   48  172 1    
    99   48  173 1    
   100   49   50 am   BACKBONE|DICT|INTERRES
   101   49  174 1    
   102   50   51 2    
   103   50   52 1    
   104   52   53 1    
   105   52   54 1    
   106   52  175 1    
   107   53  176 1    
   108   53  177 1    
   109   53  178 1    
   110   54   55 am   BACKBONE|DICT|INTERRES
   111   54  179 1    
   112   55   56 2    
   113   55   57 1    
   114   57   58 1    
   115   57   59 1    
   116   57  180 1    
   117   58  181 1    
   118   58  182 1    
   119   58  183 1    
   120   59   60 am   BACKBONE|DICT|INTERRES
   121   59  184 1    
   122   60   61 2    
   123   60   62 1    
   124   62   63 1    
   125   62   64 1    
   126   62  185 1    
   127   63  186 1    
   128   63  187 1    
   129   63  188 1    
   130   64   65 am   BACKBONE|DICT|INTERRES
   131   64  189 1    
   132   65   66 2    
   133   67   68 2    
   134   67   69 am   BACKBONE|DICT|INTERRES
   135   69   70 1    
   136   69  190 1    
   137   70   71 1    
   138   70   72 1    
   139   70  191 1    
   140   71  192 1    
   141   71  193 1    
   142   71  194 1    
   143   72   73 2    
   144   72   74 am   BACKBONE|DICT|INTERRES
   145   74   75 1    
   146   74  195 1    
   147   75   76 1    
   148   75   77 1    
   149   75  196 1    
   150   76  197 1    
   151   76  198 1    
   152   76  199 1    
   153   77   78 2    
   154   77   79 am   BACKBONE|DICT|INTERRES
   155   79   80 1    
   156   79  200 1    
   157   80   81 1    
   158   80   82 1    
   159   80  201 1    
   160   81  202 1    
   161   81  203 1    
   162   81  204 1    
   163   82   83 2    
   164   82   84 am   BACKBONE|DICT|INTERRES
   165   84   85 1    
   166   84  205 1    
   167   85   86 1    
   168   85   87 1    
   169   85  206 1    
   170   86  207 1    
   171   86  208 1    
   172   86  209 1    
   173   87   88 2    
   174   87   89 am   BACKBONE|DICT|INTERRES
   175   89   90 1    
   176   89  210 1    
   177   90   91 1    
   178   90   92 1    
   179   90  211 1    
   180   91  212 1    
   181   91  213 1    
   182   91  214 1    
   183   92   93 2    
   184   92   94 am   BACKBONE|DICT|INTERRES
   185   94   95 1    
   186   94  215 1    
   187   95   96 1    
   188   95   97 1    
   189   95  216 1    
   190   96  217 1    
   191   96  218 1    
   192   96  219 1    
   193   97   98 2    
   194   97   99 am   BACKBONE|DICT|INTERRES
   195   99  100 1    
   196   99  220 1    
   197  100  101 1    
   198  100  102 1    
   199  100  221 1    
   200  101  222 1    
   201  101  223 1    
   202  101  224 1    
   203  102  103 2    
   204  102  104 am   BACKBONE|DICT|INTERRES
   205  104  105 1    
   206  104  225 1    
   207  105  106 1    
   208  105  107 1    
   209  105  226 1    
   210  106  227 1    
   211  106  228 1    
   212  106  229 1    
   213  107  108 2    
   214  107  109 am   BACKBONE|DICT|INTERRES
   215  109  110 1    
   216  109  230 1    
   217  110  111 1    
   218  110  112 1    
   219  110  231 1    
   220  111  232 1    
   221  111  233 1    
   222  111  234 1    
   223  112  113 2    
   224  112  114 am   BACKBONE|DICT|INTERRES
   225  114  115 1    
   226  114  235 1    
   227  115  116 1    
   228  115  117 1    
   229  115  236 1    
   230  116  237 1    
   231  116  238 1    
   232  116  239 1    
   233  117  118 2    
   234  117  119 am   BACKBONE|DICT|INTERRES
   235  119  120 1    
   236  119  240 1    
   237  120  121 1    
   238  120  124 1    
   239  120  241 1    
   240  121  122 am   BACKBONE|DICT|INTERRES
   241  121  123 2    
   242  122  242 1    
   243  122  243 1    
   244  124  125 1    
   245  124  244 1    
   246  124  245 1    
   247  125  126 1    
   248  126  246 1    
   249  126  247 1    
@<TRIPOS>SUBSTRUCTURE
     1 UNK         1 GROUP             0       ****    0 ROOT    
