@<TRIPOS>MOLECULE
3R540
247   249    1
SMALL
USER_CHARGES


@<TRIPOS>ATOM
      1 CA          3.2619  -10.5496  -46.5836 C.3       0 UNK        -0.1800 
      2 C           2.3526  -11.4256  -47.4319 C.2       0 UNK         0.5000 
      3 O           1.7661  -12.3732  -46.9130 O.2       0 UNK        -0.5000 
      4 N           2.2461  -11.1260  -48.7334 N.am      1 UNK        -0.5000 
      5 CA          1.4469  -11.8194  -49.7579 C.3       1 UNK         0.1400 
      6 C6         -0.0502  -11.9744  -49.3764 C.3       23 UNK        -0.0398 
      7 S7         -1.1468  -11.9726  -50.8345 S.3       23 UNK        -0.2404 
      8 C8         -2.4678  -13.1158  -50.3154 C.3       23 UNK        -0.0205 
      9 C9         -1.9822  -14.5495  -50.1443 C.ar      23 UNK        -0.0193 
     10 C10        -1.4542  -15.2518  -51.2328 C.ar      23 UNK        -0.1150 
     11 C11        -1.0150  -16.5702  -51.0822 C.ar      23 UNK        -0.0193 
     12 C12        -1.1305  -17.1932  -49.8368 C.ar      23 UNK        -0.1150 
     13 C13        -1.6612  -16.5051  -48.7429 C.ar      23 UNK        -0.0193 
     14 C14        -2.0799  -15.1810  -48.9000 C.ar      23 UNK        -0.1150 
     15 C15        -1.7839  -17.2045  -47.3999 C.3       23 UNK        -0.0205 
     16 S16        -0.1466  -17.4739  -46.6577 S.3       23 UNK        -0.2404 
     17 C17        -0.5592  -18.5301  -45.2307 C.3       23 UNK        -0.0398 
     18 CA         -0.2995  -20.0213  -45.5409 C.3       11 UNK         0.1400 
     19 N           0.1409  -20.7751  -44.3676 N.am      11 UNK        -0.5000 
     20 C           0.7900  -21.9453  -44.4472 C.2       10 UNK         0.5000 
     21 O           1.0941  -22.4886  -45.5101 O.2       10 UNK        -0.5000 
     22 CA          1.1065  -22.6476  -43.1153 C.3       10 UNK         0.1400 
     23 CB          2.3366  -22.0133  -42.4480 C.3       10 UNK        -0.1800 
     24 N          -0.0219  -22.6221  -42.1828 N.am      10 UNK        -0.5000 
     25 C          -1.2184  -23.1808  -42.4162 C.2       9 UNK         0.5000 
     26 O          -1.4885  -23.8091  -43.4384 O.2       9 UNK        -0.5000 
     27 CA         -2.3093  -22.9860  -41.3473 C.3       9 UNK         0.1400 
     28 CB         -2.3755  -24.2104  -40.4226 C.3       9 UNK        -0.1800 
     29 N          -2.1382  -21.7800  -40.5347 N.am      9 UNK        -0.5000 
     30 C          -2.2014  -20.5205  -40.9888 C.2       8 UNK         0.5000 
     31 O          -2.3967  -20.2349  -42.1741 O.2       8 UNK        -0.5000 
     32 CA         -2.0299  -19.4283  -39.9095 C.3       8 UNK         0.1400 
     33 CB         -0.6976  -19.5859  -39.1427 C.3       8 UNK        -0.1800 
     34 N          -2.1791  -18.0514  -40.3962 N.am      8 UNK        -0.5000 
     35 C          -1.3845  -17.3939  -41.2513 C.2       7 UNK         0.5000 
     36 O          -0.4037  -17.8889  -41.8115 O.2       7 UNK        -0.5000 
     37 CA         -1.7272  -15.9116  -41.4703 C.3       7 UNK         0.1400 
     38 CB         -1.2034  -15.0527  -40.3034 C.3       7 UNK        -0.1800 
     39 N          -1.1377  -15.4593  -42.7236 N.am      7 UNK        -0.5000 
     40 C          -1.4867  -14.3810  -43.4287 C.2       6 UNK         0.5000 
     41 O          -2.3506  -13.5841  -43.0564 O.2       6 UNK        -0.5000 
     42 CA         -0.7665  -14.1717  -44.7824 C.3       6 UNK         0.1400 
     43 CB         -1.3562  -12.9973  -45.5842 C.3       6 UNK        -0.1800 
     44 N           0.6882  -13.9920  -44.6963 N.am      6 UNK        -0.5000 
     45 C           1.5871  -14.9066  -44.3106 C.2       5 UNK         0.5000 
     46 O           1.2809  -16.0218  -43.8929 O.2       5 UNK        -0.5000 
     47 CA          3.0719  -14.5087  -44.4249 C.3       5 UNK         0.1400 
     48 CB          3.5955  -13.8789  -43.1202 C.3       5 UNK        -0.1800 
     49 N           3.8990  -15.6344  -44.8759 N.am      5 UNK        -0.5000 
     50 C           4.2290  -16.7632  -44.2245 C.2       4 UNK         0.5000 
     51 O           4.0809  -16.9419  -43.0151 O.2       4 UNK        -0.5000 
     52 CA          4.8119  -17.9131  -45.0743 C.3       4 UNK         0.1400 
     53 CB          3.7386  -18.9921  -45.3070 C.3       4 UNK        -0.1800 
     54 N           5.3215  -17.4754  -46.3753 N.am      4 UNK        -0.5000 
     55 C           6.4612  -16.7962  -46.5636 C.2       3 UNK         0.5000 
     56 O           7.2610  -16.5407  -45.6628 O.2       3 UNK        -0.5000 
     57 CA          6.7429  -16.2950  -47.9956 C.3       3 UNK         0.1400 
     58 CB          7.6817  -17.2655  -48.7287 C.3       3 UNK        -0.1800 
     59 N           5.5383  -16.0882  -48.8103 N.am      3 UNK        -0.5000 
     60 C           4.5678  -15.2061  -48.5372 C.2       2 UNK         0.5000 
     61 O           4.5582  -14.4898  -47.5329 O.2       2 UNK        -0.5000 
     62 CA          3.3982  -15.1469  -49.5279 C.3       2 UNK         0.1400 
     63 CB          2.4613  -16.3499  -49.3412 C.3       2 UNK        -0.1800 
     64 N           2.6513  -13.9170  -49.2962 N.am      2 UNK        -0.5000 
     65 C           2.0748  -13.1532  -50.2275 C.2       1 UNK         0.5000 
     66 O           2.0657  -13.4386  -51.4259 O.2       1 UNK        -0.5000 
     67 C          -1.5149  -20.6864  -46.2109 C.2       11 UNK         0.5000 
     68 O          -1.5831  -20.7129  -47.4383 O.2       11 UNK        -0.5000 
     69 N          -2.4303  -21.2539  -45.4095 N.am      12 UNK        -0.5000 
     70 CA         -3.5812  -22.0130  -45.9052 C.3       12 UNK         0.1400 
     71 CB         -4.5057  -22.4007  -44.7433 C.3       12 UNK        -0.1800 
     72 C          -3.1579  -23.2549  -46.7099 C.2       12 UNK         0.5000 
     73 O          -3.7289  -23.5067  -47.7703 O.2       12 UNK        -0.5000 
     74 N          -2.1346  -23.9714  -46.2240 N.am      13 UNK        -0.5000 
     75 CA         -1.4984  -25.0950  -46.9097 C.3       13 UNK         0.1400 
     76 CB         -0.4979  -25.7790  -45.9665 C.3       13 UNK        -0.1800 
     77 C          -0.8192  -24.6759  -48.2260 C.2       13 UNK         0.5000 
     78 O          -1.0199  -25.3422  -49.2418 O.2       13 UNK        -0.5000 
     79 N          -0.0789  -23.5561  -48.2047 N.am      14 UNK        -0.5000 
     80 CA          0.5544  -22.9538  -49.3854 C.3       14 UNK         0.1400 
     81 CB          1.4393  -21.7743  -48.9525 C.3       14 UNK        -0.1800 
     82 C          -0.4634  -22.5069  -50.4552 C.2       14 UNK         0.5000 
     83 O          -0.1970  -22.6405  -51.6494 O.2       14 UNK        -0.5000 
     84 N          -1.6299  -22.0365  -49.9988 N.am      15 UNK        -0.5000 
     85 CA         -2.7896  -21.6700  -50.8082 C.3       15 UNK         0.1400 
     86 CB         -3.6261  -20.6516  -50.0162 C.3       15 UNK        -0.1800 
     87 C          -3.6459  -22.8703  -51.2667 C.2       15 UNK         0.5000 
     88 O          -4.6893  -22.6425  -51.8811 O.2       15 UNK        -0.5000 
     89 N          -3.2062  -24.1044  -50.9748 N.am      16 UNK        -0.5000 
     90 CA         -3.8322  -25.3876  -51.3092 C.3       16 UNK         0.1400 
     91 CB         -3.9311  -25.5829  -52.8354 C.3       16 UNK        -0.1800 
     92 C          -5.1769  -25.5817  -50.5855 C.2       16 UNK         0.5000 
     93 O          -6.2168  -25.7340  -51.2266 O.2       16 UNK        -0.5000 
     94 N          -5.1164  -25.5480  -49.2478 N.am      17 UNK        -0.5000 
     95 CA         -6.2358  -25.6245  -48.3024 C.3       17 UNK         0.1400 
     96 CB         -6.9832  -26.9704  -48.4128 C.3       17 UNK        -0.1800 
     97 C          -7.1569  -24.3935  -48.4112 C.2       17 UNK         0.5000 
     98 O          -8.3819  -24.5255  -48.4163 O.2       17 UNK        -0.5000 
     99 N          -6.5226  -23.2151  -48.5048 N.am      18 UNK        -0.5000 
    100 CA        -7.1254  -21.8832  -48.6252 C.3       18 UNK         0.1400 
    101 CB        -7.8968  -21.5143  -47.3410 C.3       18 UNK        -0.1800 
    102 C         -7.9606  -21.6828  -49.9101 C.2       18 UNK         0.5000 
    103 O         -8.8655  -20.8469  -49.9286 O.2       18 UNK        -0.5000 
    104 N         -7.6281  -22.4263  -50.9750 N.am      19 UNK        -0.5000 
    105 CA        -8.2378  -22.3019  -52.3018 C.3       19 UNK         0.1400 
    106 CB        -7.9669  -23.5891  -53.0953 C.3       19 UNK        -0.1800 
    107 C         -7.7255  -21.0767  -53.0855 C.2       19 UNK         0.5000 
    108 O         -8.3705  -20.6673  -54.0511 O.2       19 UNK        -0.5000 
    109 N         -6.5721  -20.5371  -52.6632 N.am      20 UNK        -0.5000 
    110 CA        -5.8026  -19.4530  -53.2812 C.3       20 UNK         0.1400 
    111 CB        -6.6130  -18.1425  -53.3557 C.3       20 UNK        -0.1800 
    112 C         -5.1879  -19.8751  -54.6296 C.2       20 UNK         0.5000 
    113 O         -5.0400  -19.0494  -55.5330 O.2       20 UNK        -0.5000 
    114 N         -4.7989  -21.1565  -54.7274 N.am      21 UNK        -0.5000 
    115 CA        -4.1668  -21.7636  -55.9055 C.3       21 UNK         0.1400 
    116 CB        -4.0274  -23.2733  -55.6692 C.3       21 UNK        -0.1800 
    117 C         -2.7977  -21.1481  -56.2621 C.2       21 UNK         0.5000 
    118 O         -2.3655  -21.2387  -57.4116 O.2       21 UNK        -0.5000 
    119 N         -2.1604  -20.5160  -55.2713 N.am      22 UNK        -0.5000 
    120 CA        -0.9583  -19.6856  -55.4021 C.3       22 UNK         0.1400 
    121 C         -1.1695  -18.3298  -56.1440 C.2       22 UNK         0.5000 
    122 N         -2.3947  -17.8881  -56.4089 N.am      22 UNK        -0.7600 
    123 O         -0.1960  -17.6702  -56.4974 O.2       22 UNK        -0.5000 
    124 C124       -0.2824  -19.4895  -54.0214 C.3       23 UNK        -0.0398 
    125 S125       -1.3842  -18.7310  -52.7718 S.3       23 UNK        -0.2404 
    126 C126       -0.3784  -17.3122  -52.2468 C.3       23 UNK        -0.0205 
    127 H127        4.0591  -11.1524  -46.1483 H         1 UNK         0.0600 
    128 H128        2.6935  -10.0961  -45.7717 H         1 UNK         0.0600 
    129 H129        3.7183   -9.7510  -47.1687 H         1 UNK         0.0600 
    130 H130        2.7845  -10.3468  -49.0864 H         1 UNK         0.3000 
    131 H131        1.4984  -11.1479  -50.6168 H         1 UNK         0.0600 
    132 H132       -0.2048  -12.8771  -48.7847 H         1 UNK         0.0800 
    133 H133       -0.3667  -11.1442  -48.7437 H         1 UNK         0.0800 
    134 H134       -2.9168  -12.7424  -49.3936 H         1 UNK         0.0800 
    135 H135       -3.2579  -13.1022  -51.0673 H         1 UNK         0.0800 
    136 H136       -1.3703  -14.7621  -52.1928 H         1 UNK         0.1150 
    137 H137       -0.7953  -18.2142  -49.7142 H         1 UNK         0.1150 
    138 H138       -2.4895  -14.6454  -48.0554 H         1 UNK         0.1150 
    139 H139       -2.4034  -16.6258  -46.7136 H         1 UNK         0.0800 
    140 H140       -2.2910  -18.1578  -47.5472 H         1 UNK         0.0800 
    141 H141       -1.5761  -18.3430  -44.8804 H         1 UNK         0.0800 
    142 H142        0.0935  -18.2133  -44.4184 H         1 UNK         0.0800 
    143 H143        0.5231  -20.0717  -46.2583 H         1 UNK         0.0600 
    144 H144       -0.1103  -20.4032  -43.4614 H         1 UNK         0.3000 
    145 H145        1.3353  -23.6923  -43.3365 H         1 UNK         0.0600 
    146 H146        2.6216  -22.5579  -41.5477 H         1 UNK         0.0600 
    147 H147        3.1954  -22.0267  -43.1205 H         1 UNK         0.0600 
    148 H148        2.1550  -20.9744  -42.1690 H         1 UNK         0.0600 
    149 H149        0.1125  -22.1241  -41.3157 H         1 UNK         0.3000 
    150 H150       -3.2658  -22.9007  -41.8652 H         1 UNK         0.0600 
    151 H151       -3.2016  -24.1281  -39.7161 H         1 UNK         0.0600 
    152 H152       -1.4545  -24.3343  -39.8515 H         1 UNK         0.0600 
    153 H153       -2.5314  -25.1252  -40.9963 H         1 UNK         0.0600 
    154 H154       -1.9856  -21.9310  -39.5480 H         1 UNK         0.3000 
    155 H155       -2.8424  -19.5743  -39.1962 H         1 UNK         0.0600 
    156 H156        0.1627  -19.5668  -39.8126 H         1 UNK         0.0600 
    157 H157       -0.5677  -18.7871  -38.4122 H         1 UNK         0.0600 
    158 H158       -0.6599  -20.5263  -38.5925 H         1 UNK         0.0600 
    159 H159       -2.9731  -17.5547  -40.0175 H         1 UNK         0.3000 
    160 H160       -2.8128  -15.8161  -41.5379 H         1 UNK         0.0600 
    161 H161       -0.1165  -15.1044  -40.2281 H         1 UNK         0.0600 
    162 H162       -1.6152  -15.3879  -39.3508 H         1 UNK         0.0600 
    163 H163       -1.4806  -14.0053  -40.4221 H         1 UNK         0.0600 
    164 H164       -0.3694  -16.0366  -43.0679 H         1 UNK         0.3000 
    165 H165       -0.9501  -15.0737  -45.3638 H         1 UNK         0.0600 
    166 H166       -0.9235  -12.9485  -46.5818 H         1 UNK         0.0600 
    167 H167       -2.4344  -13.1051  -45.7090 H         1 UNK         0.0600 
    168 H168       -1.1724  -12.0417  -45.0921 H         1 UNK         0.0600 
    169 H169        1.0395  -13.1349  -45.1078 H         1 UNK         0.3000 
    170 H170        3.1611  -13.7577  -45.2094 H         1 UNK         0.0600 
    171 H171        3.4455  -14.5322  -42.2605 H         1 UNK         0.0600 
    172 H172        4.6588  -13.6499  -43.1905 H         1 UNK         0.0600 
    173 H173        3.0738  -12.9450  -42.9086 H         1 UNK         0.0600 
    174 H174        4.1331  -15.5872  -45.8607 H         1 UNK         0.3000 
    175 H175        5.6329  -18.3604  -44.5099 H         1 UNK         0.0600 
    176 H176        4.1424  -19.8438  -45.8545 H         1 UNK         0.0600 
    177 H177        2.8902  -18.6003  -45.8702 H         1 UNK         0.0600 
    178 H178        3.3510  -19.3705  -44.3600 H         1 UNK         0.0600 
    179 H179        4.7330  -17.6519  -47.1757 H         1 UNK         0.3000 
    180 H180        7.2501  -15.3321  -47.9061 H         1 UNK         0.0600 
    181 H181        7.2171  -18.2415  -48.8746 H         1 UNK         0.0600 
    182 H182        8.6019  -17.4213  -48.1639 H         1 UNK         0.0600 
    183 H183        7.9655  -16.8776  -49.7072 H         1 UNK         0.0600 
    184 H184        5.4679  -16.6471  -49.6487 H         1 UNK         0.3000 
    185 H185        3.8082  -15.1516  -50.5400 H         1 UNK         0.0600 
    186 H186        2.0533  -16.3840  -48.3308 H         1 UNK         0.0600 
    187 H187        1.6248  -16.2994  -50.0358 H         1 UNK         0.0600 
    188 H188        2.9778  -17.2927  -49.5231 H         1 UNK         0.0600 
    189 H189        2.6522  -13.5893  -48.3350 H         1 UNK         0.3000 
    190 H190       -2.3149  -21.1886  -44.4068 H         1 UNK         0.3000 
    191 H191       -4.1422  -21.3582  -46.5750 H         1 UNK         0.0600 
    192 H192       -4.7956  -21.5282  -44.1573 H         1 UNK         0.0600 
    193 H193       -5.4208  -22.8625  -45.1162 H         1 UNK         0.0600 
    194 H194       -4.0334  -23.1170  -44.0725 H         1 UNK         0.0600 
    195 H195       -1.7648  -23.7342  -45.3069 H         1 UNK         0.3000 
    196 H196       -2.2788  -25.8183  -47.1548 H         1 UNK         0.0600 
    197 H197       -0.0201  -26.6301  -46.4532 H         1 UNK         0.0600 
    198 H198       -0.9949  -26.1527  -45.0711 H         1 UNK         0.0600 
    199 H199        0.2902  -25.0961  -45.6485 H         1 UNK         0.0600 
    200 H200        0.0594  -23.0790  -47.3212 H         1 UNK         0.3000 
    201 H201        1.1966  -23.7126  -49.8371 H         1 UNK         0.0600 
    202 H202        2.1789  -22.0835  -48.2137 H         1 UNK         0.0600 
    203 H203        0.8516  -20.9649  -48.5199 H         1 UNK         0.0600 
    204 H204        1.9814  -21.3623  -49.8044 H         1 UNK         0.0600 
    205 H205       -1.7223  -21.8861  -48.9982 H         1 UNK         0.3000 
    206 H206       -2.4381  -21.1859  -51.7190 H         1 UNK         0.0600 
    207 H207       -3.0498  -19.7479  -49.8158 H         1 UNK         0.0600 
    208 H208       -4.5205  -20.3478  -50.5573 H         1 UNK         0.0600 
    209 H209       -3.9432  -21.0594  -49.0574 H         1 UNK         0.0600 
    210 H210       -2.3502  -24.1801  -50.4383 H         1 UNK         0.3000 
    211 H211       -3.1625  -26.1604  -50.9293 H         1 UNK         0.0600 
    212 H212       -4.6411  -24.8914  -53.2876 H         1 UNK         0.0600 
    213 H213       -4.2675  -26.5920  -53.0751 H         1 UNK         0.0600 
    214 H214       -2.9632  -25.4397  -53.3155 H         1 UNK         0.0600 
    215 H215       -4.2291  -25.2963  -48.8297 H         1 UNK         0.3000 
    216 H216       -5.7927  -25.5812  -47.3063 H         1 UNK         0.0600 
    217 H217       -7.7153  -27.0740  -47.6112 H         1 UNK         0.0600 
    218 H218       -6.2944  -27.8113  -48.3334 H         1 UNK         0.0600 
    219 H219       -7.5211  -27.0643  -49.3564 H         1 UNK         0.0600 
    220 H220       -5.5070  -23.2404  -48.4675 H         1 UNK         0.3000 
    221 H221       -6.2930  -21.1849  -48.7075 H         1 UNK         0.0600 
    222 H222       -8.7902  -22.1263  -47.2148 H         1 UNK         0.0600 
    223 H223       -7.2736  -21.6426  -46.4561 H         1 UNK         0.0600 
    224 H224       -8.2160  -20.4717  -47.3607 H         1 UNK         0.0600 
    225 H225       -6.8667  -23.0876  -50.8932 H         1 UNK         0.3000 
    226 H226       -9.3179  -22.1934  -52.1841 H         1 UNK         0.0600 
    227 H227       -8.3715  -24.4611  -52.5812 H         1 UNK         0.0600 
    228 H228       -8.4312  -23.5484  -54.0813 H         1 UNK         0.0600 
    229 H229       -6.8987  -23.7534  -53.2418 H         1 UNK         0.0600 
    230 H230       -6.0992  -21.0372  -51.9210 H         1 UNK         0.3000 
    231 H231       -4.9556  -19.2663  -52.6204 H         1 UNK         0.0600 
    232 H232       -7.4257  -18.2046  -54.0795 H         1 UNK         0.0600 
    233 H233       -5.9761  -17.3093  -53.6548 H         1 UNK         0.0600 
    234 H234       -7.0432  -17.8895  -52.3866 H         1 UNK         0.0600 
    235 H235       -4.9430  -21.7625  -53.9285 H         1 UNK         0.3000 
    236 H236       -4.8303  -21.6063  -56.7582 H         1 UNK         0.0600 
    237 H237       -4.9939  -23.7327  -55.4611 H         1 UNK         0.0600 
    238 H238       -3.6134  -23.7708  -56.5471 H         1 UNK         0.0600 
    239 H239       -3.3631  -23.4818  -54.8302 H         1 UNK         0.0600 
    240 H240       -2.6032  -20.4897  -54.3658 H         1 UNK         0.3000 
    241 H241       -0.2566  -20.2462  -56.0225 H         1 UNK         0.0600 
    242 H242       -2.5063  -17.0125  -56.8943 H         1 UNK         0.3800 
    243 H243       -3.2183  -18.4027  -56.1168 H         1 UNK         0.3800 
    244 H244        0.0354  -20.4584  -53.6331 H         1 UNK         0.0800 
    245 H245        0.6333  -18.9048  -54.1245 H         1 UNK         0.0800 
    246 H246        0.6098  -17.6614  -51.9440 H         1 UNK         0.0800 
    247 H247       -0.2279  -16.6452  -53.0973 H         1 UNK         0.0800 
@<TRIPOS>BOND
     1    1    2 1    
     2    1  127 1    
     3    1  128 1    
     4    1  129 1    
     5    2    3 2    
     6    2    4 am   BACKBONE|DICT|INTERRES
     7    4    5 1    
     8    4  130 1    
     9    5    6 1    
    10    5   65 1    
    11    5  131 1    
    12    6    7 1    
    13    6  132 1    
    14    6  133 1    
    15    7    8 1    
    16    8    9 1    
    17    8  134 1    
    18    8  135 1    
    19    9   10 ar   
    20    9   14 ar   
    21   10   11 ar   
    22   10  136 1    
    23   11   12 ar   
    24   11  126 1    
    25   12   13 ar   
    26   12  137 1    
    27   13   14 ar   
    28   13   15 1    
    29   14  138 1    
    30   15   16 1    
    31   15  139 1    
    32   15  140 1    
    33   16   17 1    
    34   17   18 1    
    35   17  141 1    
    36   17  142 1    
    37   18   19 1    
    38   18   67 1    
    39   18  143 1    
    40   19   20 am   BACKBONE|DICT|INTERRES
    41   19  144 1    
    42   20   21 2    
    43   20   22 1    
    44   22   23 1    
    45   22   24 1    
    46   22  145 1    
    47   23  146 1    
    48   23  147 1    
    49   23  148 1    
    50   24   25 am   BACKBONE|DICT|INTERRES
    51   24  149 1    
    52   25   26 2    
    53   25   27 1    
    54   27   28 1    
    55   27   29 1    
    56   27  150 1    
    57   28  151 1    
    58   28  152 1    
    59   28  153 1    
    60   29   30 am   BACKBONE|DICT|INTERRES
    61   29  154 1    
    62   30   31 2    
    63   30   32 1    
    64   32   33 1    
    65   32   34 1    
    66   32  155 1    
    67   33  156 1    
    68   33  157 1    
    69   33  158 1    
    70   34   35 am   BACKBONE|DICT|INTERRES
    71   34  159 1    
    72   35   36 2    
    73   35   37 1    
    74   37   38 1    
    75   37   39 1    
    76   37  160 1    
    77   38  161 1    
    78   38  162 1    
    79   38  163 1    
    80   39   40 am   BACKBONE|DICT|INTERRES
    81   39  164 1    
    82   40   41 2    
    83   40   42 1    
    84   42   43 1    
    85   42   44 1    
    86   42  165 1    
    87   43  166 1    
    88   43  167 1    
    89   43  168 1    
    90   44   45 am   BACKBONE|DICT|INTERRES
    91   44  169 1    
    92   45   46 2    
    93   45   47 1    
    94   47   48 1    
    95   47   49 1    
    96   47  170 1    
    97   48  171 1    
    98   48  172 1    
    99   48  173 1    
   100   49   50 am   BACKBONE|DICT|INTERRES
   101   49  174 1    
   102   50   51 2    
   103   50   52 1    
   104   52   53 1    
   105   52   54 1    
   106   52  175 1    
   107   53  176 1    
   108   53  177 1    
   109   53  178 1    
   110   54   55 am   BACKBONE|DICT|INTERRES
   111   54  179 1    
   112   55   56 2    
   113   55   57 1    
   114   57   58 1    
   115   57   59 1    
   116   57  180 1    
   117   58  181 1    
   118   58  182 1    
   119   58  183 1    
   120   59   60 am   BACKBONE|DICT|INTERRES
   121   59  184 1    
   122   60   61 2    
   123   60   62 1    
   124   62   63 1    
   125   62   64 1    
   126   62  185 1    
   127   63  186 1    
   128   63  187 1    
   129   63  188 1    
   130   64   65 am   BACKBONE|DICT|INTERRES
   131   64  189 1    
   132   65   66 2    
   133   67   68 2    
   134   67   69 am   BACKBONE|DICT|INTERRES
   135   69   70 1    
   136   69  190 1    
   137   70   71 1    
   138   70   72 1    
   139   70  191 1    
   140   71  192 1    
   141   71  193 1    
   142   71  194 1    
   143   72   73 2    
   144   72   74 am   BACKBONE|DICT|INTERRES
   145   74   75 1    
   146   74  195 1    
   147   75   76 1    
   148   75   77 1    
   149   75  196 1    
   150   76  197 1    
   151   76  198 1    
   152   76  199 1    
   153   77   78 2    
   154   77   79 am   BACKBONE|DICT|INTERRES
   155   79   80 1    
   156   79  200 1    
   157   80   81 1    
   158   80   82 1    
   159   80  201 1    
   160   81  202 1    
   161   81  203 1    
   162   81  204 1    
   163   82   83 2    
   164   82   84 am   BACKBONE|DICT|INTERRES
   165   84   85 1    
   166   84  205 1    
   167   85   86 1    
   168   85   87 1    
   169   85  206 1    
   170   86  207 1    
   171   86  208 1    
   172   86  209 1    
   173   87   88 2    
   174   87   89 am   BACKBONE|DICT|INTERRES
   175   89   90 1    
   176   89  210 1    
   177   90   91 1    
   178   90   92 1    
   179   90  211 1    
   180   91  212 1    
   181   91  213 1    
   182   91  214 1    
   183   92   93 2    
   184   92   94 am   BACKBONE|DICT|INTERRES
   185   94   95 1    
   186   94  215 1    
   187   95   96 1    
   188   95   97 1    
   189   95  216 1    
   190   96  217 1    
   191   96  218 1    
   192   96  219 1    
   193   97   98 2    
   194   97   99 am   BACKBONE|DICT|INTERRES
   195   99  100 1    
   196   99  220 1    
   197  100  101 1    
   198  100  102 1    
   199  100  221 1    
   200  101  222 1    
   201  101  223 1    
   202  101  224 1    
   203  102  103 2    
   204  102  104 am   BACKBONE|DICT|INTERRES
   205  104  105 1    
   206  104  225 1    
   207  105  106 1    
   208  105  107 1    
   209  105  226 1    
   210  106  227 1    
   211  106  228 1    
   212  106  229 1    
   213  107  108 2    
   214  107  109 am   BACKBONE|DICT|INTERRES
   215  109  110 1    
   216  109  230 1    
   217  110  111 1    
   218  110  112 1    
   219  110  231 1    
   220  111  232 1    
   221  111  233 1    
   222  111  234 1    
   223  112  113 2    
   224  112  114 am   BACKBONE|DICT|INTERRES
   225  114  115 1    
   226  114  235 1    
   227  115  116 1    
   228  115  117 1    
   229  115  236 1    
   230  116  237 1    
   231  116  238 1    
   232  116  239 1    
   233  117  118 2    
   234  117  119 am   BACKBONE|DICT|INTERRES
   235  119  120 1    
   236  119  240 1    
   237  120  121 1    
   238  120  124 1    
   239  120  241 1    
   240  121  122 am   BACKBONE|DICT|INTERRES
   241  121  123 2    
   242  122  242 1    
   243  122  243 1    
   244  124  125 1    
   245  124  244 1    
   246  124  245 1    
   247  125  126 1    
   248  126  246 1    
   249  126  247 1    
@<TRIPOS>SUBSTRUCTURE
     1 UNK         1 GROUP             0       ****    0 ROOT    
