@<TRIPOS>MOLECULE
3R540
247   249    1
SMALL
USER_CHARGES


@<TRIPOS>ATOM
      1 CA          4.3903  -11.7217  -44.4920 C.3       0 UNK        -0.1800 
      2 C           5.1369  -12.5051  -45.5614 C.2       0 UNK         0.5000 
      3 O           6.3651  -12.5893  -45.5143 O.2       0 UNK        -0.5000 
      4 N           4.4076  -13.0683  -46.5337 N.am      1 UNK        -0.5000 
      5 CA          4.9334  -13.8482  -47.6589 C.3       1 UNK         0.1400 
      6 C6          3.9782  -13.8422  -48.8820 C.3       23 UNK        -0.0398 
      7 S7          2.2405  -14.3031  -48.5496 S.3       23 UNK        -0.2404 
      8 C8          1.4904  -13.8538  -50.1533 C.3       23 UNK        -0.0205 
      9 C9          0.5216  -14.9029  -50.6869 C.ar      23 UNK        -0.0193 
     10 C10        -0.7289  -14.5171  -51.1774 C.ar      23 UNK        -0.1150 
     11 C11        -1.5991  -15.4597  -51.7327 C.ar      23 UNK        -0.0193 
     12 C12        -1.2209  -16.8050  -51.7690 C.ar      23 UNK        -0.1150 
     13 C13         0.0196  -17.2138  -51.2705 C.ar      23 UNK        -0.0193 
     14 C14         0.8939  -16.2488  -50.7536 C.ar      23 UNK        -0.1150 
     15 C15         0.3899  -18.6970  -51.3325 C.3       23 UNK        -0.0205 
     16 S16         1.5765  -19.2556  -50.0586 S.3       23 UNK        -0.2404 
     17 C17         0.6743  -18.8553  -48.5239 C.3       23 UNK        -0.0398 
     18 CA          0.1418  -20.0998  -47.7816 C.3       11 UNK         0.1400 
     19 N          -0.2401  -19.7711  -46.4096 N.am      11 UNK        -0.5000 
     20 C          -0.6202  -20.6559  -45.4798 C.2       10 UNK         0.5000 
     21 O          -0.6200  -21.8745  -45.6495 O.2       10 UNK        -0.5000 
     22 CA         -1.1411  -20.0763  -44.1560 C.3       10 UNK         0.1400 
     23 CB          0.0091  -19.7932  -43.1826 C.3       10 UNK        -0.1800 
     24 N          -1.9322  -18.8622  -44.3610 N.am      10 UNK        -0.5000 
     25 C          -3.1579  -18.8533  -44.9022 C.2       9 UNK         0.5000 
     26 O          -3.7565  -19.8706  -45.2530 O.2       9 UNK        -0.5000 
     27 CA         -3.8057  -17.4746  -45.1189 C.3       9 UNK         0.1400 
     28 CB         -4.3676  -16.9232  -43.7999 C.3       9 UNK        -0.1800 
     29 N          -2.8769  -16.5049  -45.7010 N.am      9 UNK        -0.5000 
     30 C          -2.4081  -16.5765  -46.9560 C.2       8 UNK         0.5000 
     31 O          -2.7086  -17.4698  -47.7449 O.2       8 UNK        -0.5000 
     32 CA         -1.3999  -15.4997  -47.3975 C.3       8 UNK         0.1400 
     33 CB         -2.1331  -14.2696  -47.9481 C.3       8 UNK        -0.1800 
     34 N          -0.4858  -15.0645  -46.3443 N.am      8 UNK        -0.5000 
     35 C           0.3044  -15.8557  -45.6086 C.2       7 UNK         0.5000 
     36 O           0.3170  -17.0833  -45.6982 O.2       7 UNK        -0.5000 
     37 CA          1.2082  -15.1681  -44.5692 C.3       7 UNK         0.1400 
     38 CB          1.2501  -13.6287  -44.6860 C.3       7 UNK        -0.1800 
     39 N           0.8487  -15.5366  -43.2017 N.am      7 UNK        -0.5000 
     40 C          -0.3498  -15.4215  -42.6091 C.2       6 UNK         0.5000 
     41 O          -1.3878  -15.1053  -43.1930 O.2       6 UNK        -0.5000 
     42 CA         -0.3822  -15.6614  -41.0879 C.3       6 UNK         0.1400 
     43 CB         -0.6128  -17.1443  -40.7715 C.3       6 UNK        -0.1800 
     44 N           0.8458  -15.2173  -40.4254 N.am      6 UNK        -0.5000 
     45 C           1.2401  -13.9397  -40.3124 C.2       5 UNK         0.5000 
     46 O           0.5555  -12.9790  -40.6654 O.2       5 UNK        -0.5000 
     47 CA          2.6376  -13.6909  -39.7099 C.3       5 UNK         0.1400 
     48 CB          2.5237  -13.3071  -38.2265 C.3       5 UNK        -0.1800 
     49 N           3.5322  -14.8449  -39.8352 N.am      5 UNK        -0.5000 
     50 C           4.0798  -15.2674  -40.9829 C.2       4 UNK         0.5000 
     51 O           3.9391  -14.6768  -42.0562 O.2       4 UNK        -0.5000 
     52 CA          4.9317  -16.5559  -40.9107 C.3       4 UNK         0.1400 
     53 CB          4.4612  -17.5381  -39.8136 C.3       4 UNK        -0.1800 
     54 N           5.0296  -17.2537  -42.1962 N.am      4 UNK        -0.5000 
     55 C           4.0310  -17.7418  -42.9446 C.2       3 UNK         0.5000 
     56 O           2.8419  -17.6573  -42.6318 O.2       3 UNK        -0.5000 
     57 CA          4.4492  -18.4387  -44.2601 C.3       3 UNK         0.1400 
     58 CB          3.2541  -18.9329  -45.0921 C.3       3 UNK        -0.1800 
     59 N           5.2847  -17.5903  -45.1127 N.am      3 UNK        -0.5000 
     60 C           6.5844  -17.3290  -44.9397 C.2       2 UNK         0.5000 
     61 O           7.2350  -17.7531  -43.9832 O.2       2 UNK        -0.5000 
     62 CA          7.2841  -16.4402  -45.9852 C.3       2 UNK         0.1400 
     63 CB          7.8150  -17.2858  -47.1582 C.3       2 UNK        -0.1800 
     64 N           6.5026  -15.2932  -46.4671 N.am      2 UNK        -0.5000 
     65 C           5.3993  -15.2586  -47.2267 C.2       1 UNK         0.5000 
     66 O           4.7722  -16.2622  -47.5675 O.2       1 UNK        -0.5000 
     67 C          -1.0160  -20.7827  -48.5402 C.2       11 UNK         0.5000 
     68 O          -0.8009  -21.8319  -49.1447 O.2       11 UNK        -0.5000 
     69 N          -2.2292  -20.2166  -48.4476 N.am      12 UNK        -0.5000 
     70 CA         -3.4520  -20.7908  -49.0087 C.3       12 UNK         0.1400 
     71 CB         -4.6179  -19.8086  -48.8389 C.3       12 UNK        -0.1800 
     72 C          -3.8030  -22.1525  -48.3882 C.2       12 UNK         0.5000 
     73 O          -4.1321  -23.0803  -49.1248 O.2       12 UNK        -0.5000 
     74 N          -3.6959  -22.2668  -47.0560 N.am      13 UNK        -0.5000 
     75 CA         -3.9087  -23.5146  -46.3192 C.3       13 UNK         0.1400 
     76 CB         -3.8115  -23.2582  -44.8082 C.3       13 UNK        -0.1800 
     77 C          -2.9448  -24.6327  -46.7585 C.2       13 UNK         0.5000 
     78 O          -3.3964  -25.7455  -47.0359 O.2       13 UNK        -0.5000 
     79 N          -1.6508  -24.2955  -46.8655 N.am      14 UNK        -0.5000 
     80 CA         -0.5911  -25.1720  -47.3666 C.3       14 UNK         0.1400 
     81 CB          0.7724  -24.4911  -47.1752 C.3       14 UNK        -0.1800 
     82 C          -0.7958  -25.5821  -48.8367 C.2       14 UNK         0.5000 
     83 O          -0.5708  -26.7441  -49.1790 O.2       14 UNK        -0.5000 
     84 N          -1.2700  -24.6465  -49.6699 N.am      15 UNK        -0.5000 
     85 CA         -1.6538  -24.8520  -51.0677 C.3       15 UNK         0.1400 
     86 CB         -1.6189  -23.5011  -51.8024 C.3       15 UNK        -0.1800 
     87 C          -3.0176  -25.5645  -51.2051 C.2       15 UNK         0.5000 
     88 O          -3.9191  -25.0566  -51.8749 O.2       15 UNK        -0.5000 
     89 N          -3.1293  -26.7370  -50.5643 N.am      16 UNK        -0.5000 
     90 CA         -4.2386  -27.6937  -50.6060 C.3       16 UNK         0.1400 
     91 CB         -4.2069  -28.4661  -51.9402 C.3       16 UNK        -0.1800 
     92 C          -5.6179  -27.0756  -50.2924 C.2       16 UNK         0.5000 
     93 O          -6.5942  -27.3682  -50.9853 O.2       16 UNK        -0.5000 
     94 N          -5.6632  -26.2367  -49.2459 N.am      17 UNK        -0.5000 
     95 CA         -6.8373  -25.5035  -48.7608 C.3       17 UNK         0.1400 
     96 CB         -7.8842  -26.4709  -48.1692 C.3       17 UNK        -0.1800 
     97 C          -7.4180  -24.5496  -49.8262 C.2       17 UNK         0.5000 
     98 O          -8.5889  -24.6587  -50.1960 O.2       17 UNK        -0.5000 
     99 N          -6.5646  -23.6253  -50.2834 N.am      18 UNK        -0.5000 
    100 CA        -6.8168  -22.5623  -51.2556 C.3       18 UNK         0.1400 
    101 CB        -7.8618  -21.5610  -50.7189 C.3       18 UNK        -0.1800 
    102 C         -7.1581  -23.1042  -52.6557 C.2       18 UNK         0.5000 
    103 O         -8.1298  -22.6609  -53.2731 O.2       18 UNK        -0.5000 
    104 N         -6.3455  -24.0504  -53.1477 N.am      19 UNK        -0.5000 
    105 CA        -6.4121  -24.5657  -54.5146 C.3       19 UNK         0.1400 
    106 CB        -5.6568  -25.9013  -54.5988 C.3       19 UNK        -0.1800 
    107 C         -5.8566  -23.5130  -55.4917 C.2       19 UNK         0.5000 
    108 O         -4.6623  -23.5150  -55.7963 O.2       19 UNK        -0.5000 
    109 N         -6.7327  -22.5834  -55.8943 N.am      20 UNK        -0.5000 
    110 CA        -6.5076  -21.3784  -56.7010 C.3       20 UNK         0.1400 
    111 CB        -5.8942  -21.7041  -58.0764 C.3       20 UNK        -0.1800 
    112 C         -5.7079  -20.2866  -55.9646 C.2       20 UNK         0.5000 
    113 O         -6.1508  -19.1373  -55.9382 O.2       20 UNK        -0.5000 
    114 N         -4.5700  -20.6606  -55.3645 N.am      21 UNK        -0.5000 
    115 CA        -3.6701  -19.8108  -54.5834 C.3       21 UNK         0.1400 
    116 CB        -2.4601  -20.6470  -54.1379 C.3       21 UNK        -0.1800 
    117 C         -4.3820  -19.1720  -53.3763 C.2       21 UNK         0.5000 
    118 O         -4.5814  -19.8370  -52.3587 O.2       21 UNK        -0.5000 
    119 N         -4.7778  -17.9031  -53.5387 N.am      22 UNK        -0.5000 
    120 CA        -5.5919  -17.1244  -52.5902 C.3       22 UNK         0.1400 
    121 C         -7.0410  -17.6732  -52.3914 C.2       22 UNK         0.5000 
    122 N         -7.5857  -18.4257  -53.3414 N.am      22 UNK        -0.7600 
    123 O         -7.6987  -17.3863  -51.3951 O.2       22 UNK        -0.5000 
    124 C124       -4.8238  -16.8003  -51.2681 C.3       23 UNK        -0.0398 
    125 S125       -4.3074  -15.0533  -51.1789 S.3       23 UNK        -0.2404 
    126 C126       -2.9148  -15.0087  -52.3513 C.3       23 UNK        -0.0205 
    127 H127        3.3895  -11.4439  -44.8223 H         1 UNK         0.0600 
    128 H128        4.9288  -10.8051  -44.2511 H         1 UNK         0.0600 
    129 H129        4.3044  -12.3162  -43.5824 H         1 UNK         0.0600 
    130 H130        3.4028  -12.9748  -46.5193 H         1 UNK         0.3000 
    131 H131        5.8387  -13.3414  -48.0014 H         1 UNK         0.0600 
    132 H132        3.9726  -12.8375  -49.3074 H         1 UNK         0.0800 
    133 H133        4.3655  -14.4897  -49.6709 H         1 UNK         0.0800 
    134 H134        0.9923  -12.8900  -50.0384 H         1 UNK         0.0800 
    135 H135        2.2667  -13.7091  -50.9055 H         1 UNK         0.0800 
    136 H136       -1.0168  -13.4753  -51.1544 H         1 UNK         0.1150 
    137 H137       -1.8879  -17.5355  -52.2037 H         1 UNK         0.1150 
    138 H138        1.8713  -16.5382  -50.3956 H         1 UNK         0.1150 
    139 H139       -0.5108  -19.3077  -51.2489 H         1 UNK         0.0800 
    140 H140        0.8137  -18.9054  -52.3154 H         1 UNK         0.0800 
    141 H141       -0.1343  -18.1521  -48.7225 H         1 UNK         0.0800 
    142 H142        1.3785  -18.3199  -47.8852 H         1 UNK         0.0800 
    143 H143        0.9570  -20.8231  -47.7101 H         1 UNK         0.0600 
    144 H144       -0.2145  -18.7854  -46.1568 H         1 UNK         0.3000 
    145 H145       -1.7821  -20.8338  -43.7004 H         1 UNK         0.0600 
    146 H146       -0.3704  -19.6636  -42.1706 H         1 UNK         0.0600 
    147 H147        0.7172  -20.6223  -43.1514 H         1 UNK         0.0600 
    148 H148        0.5608  -18.8943  -43.4591 H         1 UNK         0.0600 
    149 H149       -1.4771  -17.9802  -44.1736 H         1 UNK         0.3000 
    150 H150       -4.6386  -17.6044  -45.8135 H         1 UNK         0.0600 
    151 H151       -5.0924  -17.6138  -43.3669 H         1 UNK         0.0600 
    152 H152       -4.8776  -15.9724  -43.9556 H         1 UNK         0.0600 
    153 H153       -3.5831  -16.7650  -43.0592 H         1 UNK         0.0600 
    154 H154       -2.5322  -15.7738  -45.0907 H         1 UNK         0.3000 
    155 H155       -0.7942  -15.9231  -48.2000 H         1 UNK         0.0600 
    156 H156       -2.7217  -13.7710  -47.1771 H         1 UNK         0.0600 
    157 H157       -1.4321  -13.5440  -48.3610 H         1 UNK         0.0600 
    158 H158       -2.8145  -14.5523  -48.7492 H         1 UNK         0.0600 
    159 H159       -0.4460  -14.0708  -46.1748 H         1 UNK         0.3000 
    160 H160        2.2179  -15.5448  -44.7400 H         1 UNK         0.0600 
    161 H161        0.2780  -13.1728  -44.4944 H         1 UNK         0.0600 
    162 H162        1.5809  -13.3113  -45.6745 H         1 UNK         0.0600 
    163 H163        1.9475  -13.2136  -43.9590 H         1 UNK         0.0600 
    164 H164        1.6145  -15.9124  -42.6542 H         1 UNK         0.3000 
    165 H165       -1.2191  -15.0894  -40.6818 H         1 UNK         0.0600 
    166 H166       -0.7924  -17.2954  -39.7071 H         1 UNK         0.0600 
    167 H167       -1.4805  -17.5327  -41.3067 H         1 UNK         0.0600 
    168 H168        0.2526  -17.7453  -41.0518 H         1 UNK         0.0600 
    169 H169        1.4749  -15.9392  -40.1077 H         1 UNK         0.3000 
    170 H170        3.0822  -12.8507  -40.2477 H         1 UNK         0.0600 
    171 H171        2.0948  -14.1153  -37.6328 H         1 UNK         0.0600 
    172 H172        3.4992  -13.0615  -37.8063 H         1 UNK         0.0600 
    173 H173        1.8864  -12.4312  -38.0975 H         1 UNK         0.0600 
    174 H174        3.7080  -15.3710  -38.9914 H         1 UNK         0.3000 
    175 H175        5.9449  -16.2370  -40.6630 H         1 UNK         0.0600 
    176 H176        5.0466  -18.4575  -39.8360 H         1 UNK         0.0600 
    177 H177        3.4126  -17.8122  -39.9361 H         1 UNK         0.0600 
    178 H178        4.5815  -17.1149  -38.8160 H         1 UNK         0.0600 
    179 H179        5.9663  -17.3497  -42.5769 H         1 UNK         0.3000 
    180 H180        5.0307  -19.3179  -43.9754 H         1 UNK         0.0600 
    181 H181        3.5855  -19.4778  -45.9761 H         1 UNK         0.0600 
    182 H182        2.6362  -18.1025  -45.4282 H         1 UNK         0.0600 
    183 H183        2.6239  -19.6094  -44.5156 H         1 UNK         0.0600 
    184 H184        4.8434  -17.1933  -45.9380 H         1 UNK         0.3000 
    185 H185        8.1502  -16.0050  -45.4841 H         1 UNK         0.0600 
    186 H186        8.4810  -18.0719  -46.8002 H         1 UNK         0.0600 
    187 H187        7.0090  -17.7704  -47.7099 H         1 UNK         0.0600 
    188 H188        8.3825  -16.6747  -47.8601 H         1 UNK         0.0600 
    189 H189        6.8483  -14.3880  -46.1599 H         1 UNK         0.3000 
    190 H190       -2.3320  -19.3232  -47.9736 H         1 UNK         0.3000 
    191 H191       -3.2883  -20.9396  -50.0779 H         1 UNK         0.0600 
    192 H192       -4.3911  -18.8537  -49.3068 H         1 UNK         0.0600 
    193 H193       -5.5215  -20.1913  -49.3120 H         1 UNK         0.0600 
    194 H194       -4.8438  -19.6203  -47.7891 H         1 UNK         0.0600 
    195 H195       -3.4654  -21.4444  -46.5078 H         1 UNK         0.3000 
    196 H196       -4.9245  -23.8492  -46.5327 H         1 UNK         0.0600 
    197 H197       -4.0176  -24.1694  -44.2454 H         1 UNK         0.0600 
    198 H198       -4.5345  -22.5078  -44.4880 H         1 UNK         0.0600 
    199 H199       -2.8200  -22.9126  -44.5180 H         1 UNK         0.0600 
    200 H200       -1.3663  -23.3592  -46.5877 H         1 UNK         0.3000 
    201 H201       -0.6038  -26.0829  -46.7647 H         1 UNK         0.0600 
    202 H202        0.9589  -24.2720  -46.1237 H         1 UNK         0.0600 
    203 H203        0.8350  -23.5526  -47.7271 H         1 UNK         0.0600 
    204 H204        1.5828  -25.1327  -47.5233 H         1 UNK         0.0600 
    205 H205       -1.3926  -23.7028  -49.3145 H         1 UNK         0.3000 
    206 H206       -0.9094  -25.4977  -51.5376 H         1 UNK         0.0600 
    207 H207       -0.6387  -23.0310  -51.7227 H         1 UNK         0.0600 
    208 H208       -1.8317  -23.6307  -52.8641 H         1 UNK         0.0600 
    209 H209       -2.3568  -22.8073  -51.3985 H         1 UNK         0.0600 
    210 H210       -2.3249  -27.0240  -50.0149 H         1 UNK         0.3000 
    211 H211       -4.0493  -28.4135  -49.8086 H         1 UNK         0.0600 
    212 H212       -4.3560  -27.8038  -52.7916 H         1 UNK         0.0600 
    213 H213       -4.9835  -29.2310  -51.9749 H         1 UNK         0.0600 
    214 H214       -3.2512  -28.9720  -52.0772 H         1 UNK         0.0600 
    215 H215       -4.7974  -26.0496  -48.7528 H         1 UNK         0.3000 
    216 H216       -6.4876  -24.8713  -47.9448 H         1 UNK         0.0600 
    217 H217       -8.7098  -25.9199  -47.7174 H         1 UNK         0.0600 
    218 H218       -7.4467  -27.0956  -47.3904 H         1 UNK         0.0600 
    219 H219       -8.3089  -27.1288  -48.9277 H         1 UNK         0.0600 
    220 H220       -5.6137  -23.6339  -49.9142 H         1 UNK         0.3000 
    221 H221       -5.8731  -22.0250  -51.3593 H         1 UNK         0.0600 
    222 H222       -8.8608  -21.9963  -50.6822 H         1 UNK         0.0600 
    223 H223       -7.6102  -21.2222  -49.7146 H         1 UNK         0.0600 
    224 H224       -7.9126  -20.6778  -51.3564 H         1 UNK         0.0600 
    225 H225       -5.5515  -24.3622  -52.5917 H         1 UNK         0.3000 
    226 H226       -7.4554  -24.7621  -54.7706 H         1 UNK         0.0600 
    227 H227       -6.0924  -26.6363  -53.9219 H         1 UNK         0.0600 
    228 H228       -5.7084  -26.3145  -55.6066 H         1 UNK         0.0600 
    229 H229       -4.6024  -25.7905  -54.3441 H         1 UNK         0.0600 
    230 H230       -7.6537  -22.6349  -55.4748 H         1 UNK         0.3000 
    231 H231       -7.5009  -20.9649  -56.8833 H         1 UNK         0.0600 
    232 H232       -4.8764  -22.0859  -57.9949 H         1 UNK         0.0600 
    233 H233       -5.8542  -20.8114  -58.7017 H         1 UNK         0.0600 
    234 H234       -6.4898  -22.4464  -58.6077 H         1 UNK         0.0600 
    235 H235       -4.3221  -21.6434  -55.4305 H         1 UNK         0.3000 
    236 H236       -3.3063  -19.0159  -55.2373 H         1 UNK         0.0600 
    237 H237       -1.9026  -21.0249  -54.9950 H         1 UNK         0.0600 
    238 H238       -1.7716  -20.0533  -53.5354 H         1 UNK         0.0600 
    239 H239       -2.7707  -21.5020  -53.5377 H         1 UNK         0.0600 
    240 H240       -4.6279  -17.4679  -54.4379 H         1 UNK         0.3000 
    241 H241       -5.7759  -16.1841  -53.1106 H         1 UNK         0.0600 
    242 H242       -8.5265  -18.7662  -53.2257 H         1 UNK         0.3800 
    243 H243       -7.0723  -18.6345  -54.1902 H         1 UNK         0.3800 
    244 H244       -5.4320  -16.9908  -50.3834 H         1 UNK         0.0800 
    245 H245       -3.9468  -17.4329  -51.1404 H         1 UNK         0.0800 
    246 H246       -3.1431  -15.6122  -53.2300 H         1 UNK         0.0800 
    247 H247       -2.8110  -13.9862  -52.7173 H         1 UNK         0.0800 
@<TRIPOS>BOND
     1    1    2 1    
     2    1  127 1    
     3    1  128 1    
     4    1  129 1    
     5    2    3 2    
     6    2    4 am   BACKBONE|DICT|INTERRES
     7    4    5 1    
     8    4  130 1    
     9    5    6 1    
    10    5   65 1    
    11    5  131 1    
    12    6    7 1    
    13    6  132 1    
    14    6  133 1    
    15    7    8 1    
    16    8    9 1    
    17    8  134 1    
    18    8  135 1    
    19    9   10 ar   
    20    9   14 ar   
    21   10   11 ar   
    22   10  136 1    
    23   11   12 ar   
    24   11  126 1    
    25   12   13 ar   
    26   12  137 1    
    27   13   14 ar   
    28   13   15 1    
    29   14  138 1    
    30   15   16 1    
    31   15  139 1    
    32   15  140 1    
    33   16   17 1    
    34   17   18 1    
    35   17  141 1    
    36   17  142 1    
    37   18   19 1    
    38   18   67 1    
    39   18  143 1    
    40   19   20 am   BACKBONE|DICT|INTERRES
    41   19  144 1    
    42   20   21 2    
    43   20   22 1    
    44   22   23 1    
    45   22   24 1    
    46   22  145 1    
    47   23  146 1    
    48   23  147 1    
    49   23  148 1    
    50   24   25 am   BACKBONE|DICT|INTERRES
    51   24  149 1    
    52   25   26 2    
    53   25   27 1    
    54   27   28 1    
    55   27   29 1    
    56   27  150 1    
    57   28  151 1    
    58   28  152 1    
    59   28  153 1    
    60   29   30 am   BACKBONE|DICT|INTERRES
    61   29  154 1    
    62   30   31 2    
    63   30   32 1    
    64   32   33 1    
    65   32   34 1    
    66   32  155 1    
    67   33  156 1    
    68   33  157 1    
    69   33  158 1    
    70   34   35 am   BACKBONE|DICT|INTERRES
    71   34  159 1    
    72   35   36 2    
    73   35   37 1    
    74   37   38 1    
    75   37   39 1    
    76   37  160 1    
    77   38  161 1    
    78   38  162 1    
    79   38  163 1    
    80   39   40 am   BACKBONE|DICT|INTERRES
    81   39  164 1    
    82   40   41 2    
    83   40   42 1    
    84   42   43 1    
    85   42   44 1    
    86   42  165 1    
    87   43  166 1    
    88   43  167 1    
    89   43  168 1    
    90   44   45 am   BACKBONE|DICT|INTERRES
    91   44  169 1    
    92   45   46 2    
    93   45   47 1    
    94   47   48 1    
    95   47   49 1    
    96   47  170 1    
    97   48  171 1    
    98   48  172 1    
    99   48  173 1    
   100   49   50 am   BACKBONE|DICT|INTERRES
   101   49  174 1    
   102   50   51 2    
   103   50   52 1    
   104   52   53 1    
   105   52   54 1    
   106   52  175 1    
   107   53  176 1    
   108   53  177 1    
   109   53  178 1    
   110   54   55 am   BACKBONE|DICT|INTERRES
   111   54  179 1    
   112   55   56 2    
   113   55   57 1    
   114   57   58 1    
   115   57   59 1    
   116   57  180 1    
   117   58  181 1    
   118   58  182 1    
   119   58  183 1    
   120   59   60 am   BACKBONE|DICT|INTERRES
   121   59  184 1    
   122   60   61 2    
   123   60   62 1    
   124   62   63 1    
   125   62   64 1    
   126   62  185 1    
   127   63  186 1    
   128   63  187 1    
   129   63  188 1    
   130   64   65 am   BACKBONE|DICT|INTERRES
   131   64  189 1    
   132   65   66 2    
   133   67   68 2    
   134   67   69 am   BACKBONE|DICT|INTERRES
   135   69   70 1    
   136   69  190 1    
   137   70   71 1    
   138   70   72 1    
   139   70  191 1    
   140   71  192 1    
   141   71  193 1    
   142   71  194 1    
   143   72   73 2    
   144   72   74 am   BACKBONE|DICT|INTERRES
   145   74   75 1    
   146   74  195 1    
   147   75   76 1    
   148   75   77 1    
   149   75  196 1    
   150   76  197 1    
   151   76  198 1    
   152   76  199 1    
   153   77   78 2    
   154   77   79 am   BACKBONE|DICT|INTERRES
   155   79   80 1    
   156   79  200 1    
   157   80   81 1    
   158   80   82 1    
   159   80  201 1    
   160   81  202 1    
   161   81  203 1    
   162   81  204 1    
   163   82   83 2    
   164   82   84 am   BACKBONE|DICT|INTERRES
   165   84   85 1    
   166   84  205 1    
   167   85   86 1    
   168   85   87 1    
   169   85  206 1    
   170   86  207 1    
   171   86  208 1    
   172   86  209 1    
   173   87   88 2    
   174   87   89 am   BACKBONE|DICT|INTERRES
   175   89   90 1    
   176   89  210 1    
   177   90   91 1    
   178   90   92 1    
   179   90  211 1    
   180   91  212 1    
   181   91  213 1    
   182   91  214 1    
   183   92   93 2    
   184   92   94 am   BACKBONE|DICT|INTERRES
   185   94   95 1    
   186   94  215 1    
   187   95   96 1    
   188   95   97 1    
   189   95  216 1    
   190   96  217 1    
   191   96  218 1    
   192   96  219 1    
   193   97   98 2    
   194   97   99 am   BACKBONE|DICT|INTERRES
   195   99  100 1    
   196   99  220 1    
   197  100  101 1    
   198  100  102 1    
   199  100  221 1    
   200  101  222 1    
   201  101  223 1    
   202  101  224 1    
   203  102  103 2    
   204  102  104 am   BACKBONE|DICT|INTERRES
   205  104  105 1    
   206  104  225 1    
   207  105  106 1    
   208  105  107 1    
   209  105  226 1    
   210  106  227 1    
   211  106  228 1    
   212  106  229 1    
   213  107  108 2    
   214  107  109 am   BACKBONE|DICT|INTERRES
   215  109  110 1    
   216  109  230 1    
   217  110  111 1    
   218  110  112 1    
   219  110  231 1    
   220  111  232 1    
   221  111  233 1    
   222  111  234 1    
   223  112  113 2    
   224  112  114 am   BACKBONE|DICT|INTERRES
   225  114  115 1    
   226  114  235 1    
   227  115  116 1    
   228  115  117 1    
   229  115  236 1    
   230  116  237 1    
   231  116  238 1    
   232  116  239 1    
   233  117  118 2    
   234  117  119 am   BACKBONE|DICT|INTERRES
   235  119  120 1    
   236  119  240 1    
   237  120  121 1    
   238  120  124 1    
   239  120  241 1    
   240  121  122 am   BACKBONE|DICT|INTERRES
   241  121  123 2    
   242  122  242 1    
   243  122  243 1    
   244  124  125 1    
   245  124  244 1    
   246  124  245 1    
   247  125  126 1    
   248  126  246 1    
   249  126  247 1    
@<TRIPOS>SUBSTRUCTURE
     1 UNK         1 GROUP             0       ****    0 ROOT    
