@<TRIPOS>MOLECULE
3R540
247   249    1
SMALL
USER_CHARGES


@<TRIPOS>ATOM
      1 CA          1.4564   -6.7789  -50.7665 C.3       0 UNK        -0.1800 
      2 C           1.6956   -8.2824  -50.7613 C.2       0 UNK         0.5000 
      3 O           2.8374   -8.7214  -50.9032 O.2       0 UNK        -0.5000 
      4 N           0.6247   -9.0709  -50.6068 N.am      1 UNK        -0.5000 
      5 CA          0.6670  -10.5327  -50.5052 C.3       1 UNK         0.1400 
      6 C6         -0.7353  -11.1444  -50.7451 C.3       23 UNK        -0.0398 
      7 S7         -0.6565  -12.8829  -51.2919 S.3       23 UNK        -0.2404 
      8 C8         -1.3423  -13.7179  -49.8329 C.3       23 UNK        -0.0205 
      9 C9         -1.1884  -15.2248  -49.9353 C.ar      23 UNK        -0.0193 
     10 C10        -2.1945  -16.0067  -50.5121 C.ar      23 UNK        -0.1150 
     11 C11        -2.0608  -17.3975  -50.5814 C.ar      23 UNK        -0.0193 
     12 C12        -0.9123  -18.0028  -50.0631 C.ar      23 UNK        -0.1150 
     13 C13         0.0957  -17.2295  -49.4789 C.ar      23 UNK        -0.0193 
     14 C14        -0.0430  -15.8411  -49.4269 C.ar      23 UNK        -0.1150 
     15 C15         1.3134  -17.8965  -48.8596 C.3       23 UNK        -0.0205 
     16 S16         1.2950  -17.8040  -47.0380 S.3       23 UNK        -0.2404 
     17 C17        -0.3303  -18.5289  -46.6273 C.3       23 UNK        -0.0398 
     18 CA         -0.3103  -20.0708  -46.6514 C.3       11 UNK         0.1400 
     19 N           0.6108  -20.6578  -45.6752 N.am      11 UNK        -0.5000 
     20 C           1.0505  -21.9199  -45.7332 C.2       10 UNK         0.5000 
     21 O           0.7087  -22.7246  -46.6007 O.2       10 UNK        -0.5000 
     22 CA          2.0159  -22.3548  -44.6204 C.3       10 UNK         0.1400 
     23 CB          3.3663  -21.6308  -44.7484 C.3       10 UNK        -0.1800 
     24 N           1.4801  -22.1453  -43.2747 N.am      10 UNK        -0.5000 
     25 C           0.4315  -22.8022  -42.7586 C.2       9 UNK         0.5000 
     26 O          -0.3019  -23.5412  -43.4141 O.2       9 UNK        -0.5000 
     27 CA          0.1605  -22.6077  -41.2592 C.3       9 UNK         0.1400 
     28 CB          1.3044  -23.1886  -40.4115 C.3       9 UNK        -0.1800 
     29 N           0.0044  -21.1907  -40.9520 N.am      9 UNK        -0.5000 
     30 C          -1.1282  -20.6178  -40.5235 C.2       8 UNK         0.5000 
     31 O          -2.1471  -21.2450  -40.2324 O.2       8 UNK        -0.5000 
     32 CA         -1.1409  -19.0778  -40.4098 C.3       8 UNK         0.1400 
     33 CB         -0.9389  -18.6458  -38.9495 C.3       8 UNK        -0.1800 
     34 N          -0.1401  -18.4037  -41.2402 N.am      8 UNK        -0.5000 
     35 C          -0.0519  -18.4922  -42.5743 C.2       7 UNK         0.5000 
     36 O          -0.8353  -19.1337  -43.2743 O.2       7 UNK        -0.5000 
     37 CA          1.1518  -17.8006  -43.2390 C.3       7 UNK         0.1400 
     38 CB          0.7582  -16.3840  -43.6716 C.3       7 UNK        -0.1800 
     39 N           2.3641  -17.7364  -42.4185 N.am      7 UNK        -0.5000 
     40 C           2.9647  -18.7673  -41.8029 C.2       6 UNK         0.5000 
     41 O           2.5519  -19.9275  -41.8608 O.2       6 UNK        -0.5000 
     42 CA          4.2247  -18.4673  -40.9671 C.3       6 UNK         0.1400 
     43 CB          5.4679  -19.0532  -41.6538 C.3       6 UNK        -0.1800 
     44 N           4.4582  -17.0450  -40.7016 N.am      6 UNK        -0.5000 
     45 C           3.6811  -16.2417  -39.9616 C.2       5 UNK         0.5000 
     46 O           2.6408  -16.6122  -39.4148 O.2       5 UNK        -0.5000 
     47 CA          4.1233  -14.7689  -39.8248 C.3       5 UNK         0.1400 
     48 CB          5.6016  -14.5195  -40.2021 C.3       5 UNK        -0.1800 
     49 N           3.2521  -13.8509  -40.5674 N.am      5 UNK        -0.5000 
     50 C           2.9659  -13.8827  -41.8768 C.2       4 UNK         0.5000 
     51 O           3.3749  -14.7485  -42.6550 O.2       4 UNK        -0.5000 
     52 CA          2.0937  -12.7316  -42.4011 C.3       4 UNK         0.1400 
     53 CB          2.9220  -11.4449  -42.5665 C.3       4 UNK        -0.1800 
     54 N           1.5026  -13.0949  -43.6860 N.am      4 UNK        -0.5000 
     55 C           0.3335  -12.6452  -44.1540 C.2       3 UNK         0.5000 
     56 O          -0.3678  -11.8297  -43.5516 O.2       3 UNK        -0.5000 
     57 CA         -0.1080  -13.1763  -45.5341 C.3       3 UNK         0.1400 
     58 CB         -1.5454  -12.7625  -45.8987 C.3       3 UNK        -0.1800 
     59 N           0.7962  -12.7156  -46.5862 N.am      3 UNK        -0.5000 
     60 C           1.9639  -13.2810  -46.9087 C.2       2 UNK         0.5000 
     61 O           2.3910  -14.2895  -46.3459 O.2       2 UNK        -0.5000 
     62 CA          2.7963  -12.6100  -48.0275 C.3       2 UNK         0.1400 
     63 CB          3.8707  -13.5556  -48.5957 C.3       2 UNK        -0.1800 
     64 N           2.0112  -12.0826  -49.1504 N.am      2 UNK        -0.5000 
     65 C           1.2709  -10.9669  -49.1498 C.2       1 UNK         0.5000 
     66 O           1.0467  -10.3015  -48.1352 O.2       1 UNK        -0.5000 
     67 C          -1.7301  -20.6384  -46.4987 C.2       11 UNK         0.5000 
     68 O          -2.4093  -20.8170  -47.5070 O.2       11 UNK        -0.5000 
     69 N          -2.1341  -20.9558  -45.2604 N.am      12 UNK        -0.5000 
     70 CA         -3.3861  -21.6426  -44.9459 C.3       12 UNK         0.1400 
     71 CB         -3.5501  -21.7390  -43.4221 C.3       12 UNK        -0.1800 
     72 C          -3.4726  -23.0314  -45.6063 C.2       12 UNK         0.5000 
     73 O          -4.4858  -23.3404  -46.2338 O.2       12 UNK        -0.5000 
     74 N          -2.3905  -23.8178  -45.5052 N.am      13 UNK        -0.5000 
     75 CA         -2.2490  -25.1115  -46.1734 C.3       13 UNK         0.1400 
     76 CB         -0.9945  -25.8320  -45.6583 C.3       13 UNK        -0.1800 
     77 C          -2.2166  -24.9843  -47.7066 C.2       13 UNK         0.5000 
     78 O          -2.8798  -25.7652  -48.3881 O.2       13 UNK        -0.5000 
     79 N          -1.4820  -23.9873  -48.2217 N.am      14 UNK        -0.5000 
     80 CA         -1.3944  -23.6829  -49.6517 C.3       14 UNK         0.1400 
     81 CB         -0.3443  -22.5891  -49.8909 C.3       14 UNK        -0.1800 
     82 C          -2.7510  -23.2806  -50.2578 C.2       14 UNK         0.5000 
     83 O          -3.1234  -23.8043  -51.3070 O.2       14 UNK        -0.5000 
     84 N          -3.4835  -22.3986  -49.5643 N.am      15 UNK        -0.5000 
     85 CA         -4.8318  -21.9643  -49.9271 C.3       15 UNK         0.1400 
     86 CB         -5.2646  -20.8085  -49.0125 C.3       15 UNK        -0.1800 
     87 C          -5.8617  -23.1056  -49.8717 C.2       15 UNK         0.5000 
     88 O          -6.7452  -23.1586  -50.7239 O.2       15 UNK        -0.5000 
     89 N          -5.7301  -24.0123  -48.8940 N.am      16 UNK        -0.5000 
     90 CA         -6.5662  -25.2079  -48.7818 C.3       16 UNK         0.1400 
     91 CB         -6.3563  -25.8613  -47.4074 C.3       16 UNK        -0.1800 
     92 C          -6.3065  -26.2177  -49.9161 C.2       16 UNK         0.5000 
     93 O          -7.2580  -26.7941  -50.4445 O.2       16 UNK        -0.5000 
     94 N          -5.0288  -26.4117  -50.2673 N.am      17 UNK        -0.5000 
     95 CA         -4.5861  -27.3548  -51.2906 C.3       17 UNK         0.1400 
     96 CB         -3.0903  -27.6505  -51.0947 C.3       17 UNK        -0.1800 
     97 C          -4.8578  -26.8700  -52.7255 C.2       17 UNK         0.5000 
     98 O          -5.4117  -27.6273  -53.5237 O.2       17 UNK        -0.5000 
     99 N          -4.4321  -25.6398  -53.0393 N.am      18 UNK        -0.5000 
    100 CA        -4.3789  -25.1128  -54.4057 C.3       18 UNK         0.1400 
    101 CB        -3.0247  -24.4147  -54.6009 C.3       18 UNK        -0.1800 
    102 C         -5.5247  -24.1446  -54.7446 C.2       18 UNK         0.5000 
    103 O         -5.5914  -23.6850  -55.8858 O.2       18 UNK        -0.5000 
    104 N         -6.3878  -23.8251  -53.7701 N.am      19 UNK        -0.5000 
    105 CA        -7.4526  -22.8205  -53.8587 C.3       19 UNK         0.1400 
    106 CB        -8.5430  -23.2544  -54.8667 C.3       19 UNK        -0.1800 
    107 C         -6.8664  -21.4132  -54.1126 C.2       19 UNK         0.5000 
    108 O         -5.8391  -21.0661  -53.5247 O.2       19 UNK        -0.5000 
    109 N         -7.5094  -20.6328  -54.9903 N.am      20 UNK        -0.5000 
    110 CA        -7.1305  -19.2635  -55.3487 C.3       20 UNK         0.1400 
    111 CB        -8.2697  -18.6414  -56.1721 C.3       20 UNK        -0.1800 
    112 C         -5.7883  -19.1378  -56.1008 C.2       20 UNK         0.5000 
    113 O         -5.2710  -18.0256  -56.2112 O.2       20 UNK        -0.5000 
    114 N         -5.2480  -20.2545  -56.6119 N.am      21 UNK        -0.5000 
    115 CA        -3.9436  -20.3020  -57.2749 C.3       21 UNK         0.1400 
    116 CB        -3.8267  -21.6034  -58.0824 C.3       21 UNK        -0.1800 
    117 C         -2.7650  -20.1684  -56.2907 C.2       21 UNK         0.5000 
    118 O         -1.7057  -19.6861  -56.6924 O.2       21 UNK        -0.5000 
    119 N         -2.9667  -20.5941  -55.0340 N.am      22 UNK        -0.5000 
    120 CA        -2.0100  -20.5047  -53.9124 C.3       22 UNK         0.1400 
    121 C         -0.6902  -21.3244  -54.0774 C.2       22 UNK         0.5000 
    122 N         -0.5619  -22.2026  -55.0636 N.am      22 UNK        -0.7600 
    123 O          0.2315  -21.1838  -53.2792 O.2       22 UNK        -0.5000 
    124 C124       -1.7232  -19.0370  -53.4851 C.3       23 UNK        -0.0398 
    125 S125       -3.2301  -18.1259  -53.0010 S.3       23 UNK        -0.2404 
    126 C126       -3.1701  -18.2485  -51.1856 C.3       23 UNK        -0.0205 
    127 H127        0.4008   -6.5354  -50.6427 H         1 UNK         0.0600 
    128 H128        1.7963   -6.3478  -51.7083 H         1 UNK         0.0600 
    129 H129        2.0111   -6.3082  -49.9548 H         1 UNK         0.0600 
    130 H130       -0.2801   -8.6464  -50.4613 H         1 UNK         0.3000 
    131 H131        1.3312  -10.8826  -51.2992 H         1 UNK         0.0600 
    132 H132       -1.3742  -11.0390  -49.8661 H         1 UNK         0.0800 
    133 H133       -1.2428  -10.6000  -51.5429 H         1 UNK         0.0800 
    134 H134       -2.3944  -13.4519  -49.7188 H         1 UNK         0.0800 
    135 H135       -0.8313  -13.3588  -48.9395 H         1 UNK         0.0800 
    136 H136       -3.0836  -15.5343  -50.9059 H         1 UNK         0.1150 
    137 H137       -0.8125  -19.0787  -50.0957 H         1 UNK         0.1150 
    138 H138        0.7319  -15.2446  -48.9662 H         1 UNK         0.1150 
    139 H139        1.3822  -18.9411  -49.1667 H         1 UNK         0.0800 
    140 H140        2.2173  -17.4097  -49.2283 H         1 UNK         0.0800 
    141 H141       -1.0865  -18.1382  -47.3080 H         1 UNK         0.0800 
    142 H142       -0.6310  -18.1678  -45.6467 H         1 UNK         0.0800 
    143 H143        0.0360  -20.3700  -47.6419 H         1 UNK         0.0600 
    144 H144        0.9031  -20.0716  -44.9100 H         1 UNK         0.3000 
    145 H145        2.1956  -23.4250  -44.7430 H         1 UNK         0.0600 
    146 H146        4.0845  -22.0072  -44.0198 H         1 UNK         0.0600 
    147 H147        3.7984  -21.7818  -45.7385 H         1 UNK         0.0600 
    148 H148        3.2687  -20.5557  -44.5931 H         1 UNK         0.0600 
    149 H149        1.9977  -21.5013  -42.6824 H         1 UNK         0.3000 
    150 H150       -0.7497  -23.1610  -41.0186 H         1 UNK         0.0600 
    151 H151        1.4710  -24.2404  -40.6477 H         1 UNK         0.0600 
    152 H152        1.0715  -23.1272  -39.3483 H         1 UNK         0.0600 
    153 H153        2.2441  -22.6598  -40.5764 H         1 UNK         0.0600 
    154 H154        0.7909  -20.5935  -41.1839 H         1 UNK         0.3000 
    155 H155       -2.1250  -18.7373  -40.7379 H         1 UNK         0.0600 
    156 H156        0.0463  -18.9330  -38.5793 H         1 UNK         0.0600 
    157 H157       -1.6827  -19.1060  -38.2977 H         1 UNK         0.0600 
    158 H158       -1.0364  -17.5655  -38.8399 H         1 UNK         0.0600 
    159 H159        0.5648  -17.8689  -40.7513 H         1 UNK         0.3000 
    160 H160        1.4074  -18.3759  -44.1281 H         1 UNK         0.0600 
    161 H161       -0.1697  -16.3817  -44.2434 H         1 UNK         0.0600 
    162 H162        1.5286  -15.9469  -44.3062 H         1 UNK         0.0600 
    163 H163        0.6099  -15.7309  -42.8112 H         1 UNK         0.0600 
    164 H164        2.7940  -16.8219  -42.3355 H         1 UNK         0.3000 
    165 H165        4.0957  -18.9692  -40.0061 H         1 UNK         0.0600 
    166 H166        6.3566  -18.9297  -41.0346 H         1 UNK         0.0600 
    167 H167        5.3486  -20.1221  -41.8370 H         1 UNK         0.0600 
    168 H168        5.6579  -18.5752  -42.6156 H         1 UNK         0.0600 
    169 H169        5.2702  -16.6375  -41.1424 H         1 UNK         0.3000 
    170 H170        4.0103  -14.5184  -38.7689 H         1 UNK         0.0600 
    171 H171        6.2690  -15.1691  -39.6341 H         1 UNK         0.0600 
    172 H172        5.7942  -14.6861  -41.2625 H         1 UNK         0.0600 
    173 H173        5.8896  -13.4927  -39.9766 H         1 UNK         0.0600 
    174 H174        2.8393  -13.1155  -40.0108 H         1 UNK         0.3000 
    175 H175        1.2984  -12.5602  -41.6724 H         1 UNK         0.0600 
    176 H176        3.3798  -11.1447  -41.6233 H         1 UNK         0.0600 
    177 H177        2.3001  -10.6147  -42.9018 H         1 UNK         0.0600 
    178 H178        3.7236  -11.5772  -43.2943 H         1 UNK         0.0600 
    179 H179        2.0308  -13.7722  -44.2282 H         1 UNK         0.3000 
    180 H180       -0.0844  -14.2665  -45.4924 H         1 UNK         0.0600 
    181 H181       -1.6347  -11.6833  -46.0289 H         1 UNK         0.0600 
    182 H182       -2.2480  -13.0605  -45.1193 H         1 UNK         0.0600 
    183 H183       -1.8725  -13.2409  -46.8210 H         1 UNK         0.0600 
    184 H184        0.5693  -11.8333  -47.0336 H         1 UNK         0.3000 
    185 H185        3.3139  -11.7702  -47.5596 H         1 UNK         0.0600 
    186 H186        4.5481  -13.9002  -47.8133 H         1 UNK         0.0600 
    187 H187        3.4241  -14.4379  -49.0563 H         1 UNK         0.0600 
    188 H188        4.4809  -13.0552  -49.3479 H         1 UNK         0.0600 
    189 H189        2.0965  -12.5951  -50.0166 H         1 UNK         0.3000 
    190 H190       -1.5385  -20.7044  -44.4800 H         1 UNK         0.3000 
    191 H191       -4.2043  -21.0358  -45.3393 H         1 UNK         0.0600 
    192 H192       -4.4945  -22.2176  -43.1607 H         1 UNK         0.0600 
    193 H193       -2.7499  -22.3207  -42.9639 H         1 UNK         0.0600 
    194 H194       -3.5471  -20.7506  -42.9620 H         1 UNK         0.0600 
    195 H195       -1.6038  -23.5124  -44.9405 H         1 UNK         0.3000 
    196 H196       -3.1174  -25.7192  -45.9109 H         1 UNK         0.0600 
    197 H197       -0.8725  -26.8009  -46.1440 H         1 UNK         0.0600 
    198 H198       -1.0580  -26.0120  -44.5850 H         1 UNK         0.0600 
    199 H199       -0.0900  -25.2526  -45.8461 H         1 UNK         0.0600 
    200 H200       -0.9245  -23.4164  -47.5947 H         1 UNK         0.3000 
    201 H201       -1.0589  -24.5894  -50.1596 H         1 UNK         0.0600 
    202 H202        0.6179  -22.8582  -49.4550 H         1 UNK         0.0600 
    203 H203       -0.6514  -21.6335  -49.4684 H         1 UNK         0.0600 
    204 H204       -0.1858  -22.4365  -50.9580 H         1 UNK         0.0600 
    205 H205       -3.0887  -21.9823  -48.7229 H         1 UNK         0.3000 
    206 H206       -4.7979  -21.5948  -50.9543 H         1 UNK         0.0600 
    207 H207       -5.3030  -21.1179  -47.9672 H         1 UNK         0.0600 
    208 H208       -4.5769  -19.9665  -49.0835 H         1 UNK         0.0600 
    209 H209       -6.2553  -20.4438  -49.2863 H         1 UNK         0.0600 
    210 H210       -5.0184  -23.8780  -48.1841 H         1 UNK         0.3000 
    211 H211       -7.6110  -24.8969  -48.8477 H         1 UNK         0.0600 
    212 H212       -5.3220  -26.1722  -47.2606 H         1 UNK         0.0600 
    213 H213       -6.9843  -26.7460  -47.2957 H         1 UNK         0.0600 
    214 H214       -6.6160  -25.1746  -46.6016 H         1 UNK         0.0600 
    215 H215       -4.3006  -25.9357  -49.7427 H         1 UNK         0.3000 
    216 H216       -5.1295  -28.2916  -51.1491 H         1 UNK         0.0600 
    217 H217       -2.7272  -28.3531  -51.8458 H         1 UNK         0.0600 
    218 H218       -2.9027  -28.0940  -50.1167 H         1 UNK         0.0600 
    219 H219       -2.4865  -26.7451  -51.1702 H         1 UNK         0.0600 
    220 H220       -3.9956  -25.0621  -52.3222 H         1 UNK         0.3000 
    221 H221       -4.4326  -25.9319  -55.1256 H         1 UNK         0.0600 
    222 H222       -2.8967  -24.0882  -55.6333 H         1 UNK         0.0600 
    223 H223       -2.1956  -25.0828  -54.3676 H         1 UNK         0.0600 
    224 H224       -2.9355  -23.5349  -53.9637 H         1 UNK         0.0600 
    225 H225       -6.2248  -24.2032  -52.8467 H         1 UNK         0.3000 
    226 H226       -7.9318  -22.7758  -52.8824 H         1 UNK         0.0600 
    227 H227       -9.4191  -22.6081  -54.8034 H         1 UNK         0.0600 
    228 H228       -8.1887  -23.2345  -55.8977 H         1 UNK         0.0600 
    229 H229       -8.8838  -24.2683  -54.6560 H         1 UNK         0.0600 
    230 H230       -8.3307  -21.0026  -55.4465 H         1 UNK         0.3000 
    231 H231       -7.0290  -18.6942  -54.4223 H         1 UNK         0.0600 
    232 H232       -9.2068  -18.6428  -55.6152 H         1 UNK         0.0600 
    233 H233       -8.4313  -19.1815  -57.1058 H         1 UNK         0.0600 
    234 H234       -8.0485  -17.6041  -56.4274 H         1 UNK         0.0600 
    235 H235       -5.7265  -21.1350  -56.4786 H         1 UNK         0.3000 
    236 H236       -3.8852  -19.4665  -57.9759 H         1 UNK         0.0600 
    237 H237       -4.6456  -21.7027  -58.7951 H         1 UNK         0.0600 
    238 H238       -2.8964  -21.6250  -58.6515 H         1 UNK         0.0600 
    239 H239       -3.8338  -22.4816  -57.4374 H         1 UNK         0.0600 
    240 H240       -3.8863  -20.9383  -54.7889 H         1 UNK         0.3000 
    241 H241       -2.5162  -20.9869  -53.0749 H         1 UNK         0.0600 
    242 H242        0.2945  -22.7262  -55.1493 H         1 UNK         0.3800 
    243 H243       -1.2929  -22.3175  -55.7449 H         1 UNK         0.3800 
    244 H244       -1.2435  -18.4918  -54.2987 H         1 UNK         0.0800 
    245 H245       -1.0150  -19.0056  -52.6575 H         1 UNK         0.0800 
    246 H246       -3.0560  -19.2958  -50.9006 H         1 UNK         0.0800 
    247 H247       -4.1298  -17.9256  -50.7800 H         1 UNK         0.0800 
@<TRIPOS>BOND
     1    1    2 1    
     2    1  127 1    
     3    1  128 1    
     4    1  129 1    
     5    2    3 2    
     6    2    4 am   BACKBONE|DICT|INTERRES
     7    4    5 1    
     8    4  130 1    
     9    5    6 1    
    10    5   65 1    
    11    5  131 1    
    12    6    7 1    
    13    6  132 1    
    14    6  133 1    
    15    7    8 1    
    16    8    9 1    
    17    8  134 1    
    18    8  135 1    
    19    9   10 ar   
    20    9   14 ar   
    21   10   11 ar   
    22   10  136 1    
    23   11   12 ar   
    24   11  126 1    
    25   12   13 ar   
    26   12  137 1    
    27   13   14 ar   
    28   13   15 1    
    29   14  138 1    
    30   15   16 1    
    31   15  139 1    
    32   15  140 1    
    33   16   17 1    
    34   17   18 1    
    35   17  141 1    
    36   17  142 1    
    37   18   19 1    
    38   18   67 1    
    39   18  143 1    
    40   19   20 am   BACKBONE|DICT|INTERRES
    41   19  144 1    
    42   20   21 2    
    43   20   22 1    
    44   22   23 1    
    45   22   24 1    
    46   22  145 1    
    47   23  146 1    
    48   23  147 1    
    49   23  148 1    
    50   24   25 am   BACKBONE|DICT|INTERRES
    51   24  149 1    
    52   25   26 2    
    53   25   27 1    
    54   27   28 1    
    55   27   29 1    
    56   27  150 1    
    57   28  151 1    
    58   28  152 1    
    59   28  153 1    
    60   29   30 am   BACKBONE|DICT|INTERRES
    61   29  154 1    
    62   30   31 2    
    63   30   32 1    
    64   32   33 1    
    65   32   34 1    
    66   32  155 1    
    67   33  156 1    
    68   33  157 1    
    69   33  158 1    
    70   34   35 am   BACKBONE|DICT|INTERRES
    71   34  159 1    
    72   35   36 2    
    73   35   37 1    
    74   37   38 1    
    75   37   39 1    
    76   37  160 1    
    77   38  161 1    
    78   38  162 1    
    79   38  163 1    
    80   39   40 am   BACKBONE|DICT|INTERRES
    81   39  164 1    
    82   40   41 2    
    83   40   42 1    
    84   42   43 1    
    85   42   44 1    
    86   42  165 1    
    87   43  166 1    
    88   43  167 1    
    89   43  168 1    
    90   44   45 am   BACKBONE|DICT|INTERRES
    91   44  169 1    
    92   45   46 2    
    93   45   47 1    
    94   47   48 1    
    95   47   49 1    
    96   47  170 1    
    97   48  171 1    
    98   48  172 1    
    99   48  173 1    
   100   49   50 am   BACKBONE|DICT|INTERRES
   101   49  174 1    
   102   50   51 2    
   103   50   52 1    
   104   52   53 1    
   105   52   54 1    
   106   52  175 1    
   107   53  176 1    
   108   53  177 1    
   109   53  178 1    
   110   54   55 am   BACKBONE|DICT|INTERRES
   111   54  179 1    
   112   55   56 2    
   113   55   57 1    
   114   57   58 1    
   115   57   59 1    
   116   57  180 1    
   117   58  181 1    
   118   58  182 1    
   119   58  183 1    
   120   59   60 am   BACKBONE|DICT|INTERRES
   121   59  184 1    
   122   60   61 2    
   123   60   62 1    
   124   62   63 1    
   125   62   64 1    
   126   62  185 1    
   127   63  186 1    
   128   63  187 1    
   129   63  188 1    
   130   64   65 am   BACKBONE|DICT|INTERRES
   131   64  189 1    
   132   65   66 2    
   133   67   68 2    
   134   67   69 am   BACKBONE|DICT|INTERRES
   135   69   70 1    
   136   69  190 1    
   137   70   71 1    
   138   70   72 1    
   139   70  191 1    
   140   71  192 1    
   141   71  193 1    
   142   71  194 1    
   143   72   73 2    
   144   72   74 am   BACKBONE|DICT|INTERRES
   145   74   75 1    
   146   74  195 1    
   147   75   76 1    
   148   75   77 1    
   149   75  196 1    
   150   76  197 1    
   151   76  198 1    
   152   76  199 1    
   153   77   78 2    
   154   77   79 am   BACKBONE|DICT|INTERRES
   155   79   80 1    
   156   79  200 1    
   157   80   81 1    
   158   80   82 1    
   159   80  201 1    
   160   81  202 1    
   161   81  203 1    
   162   81  204 1    
   163   82   83 2    
   164   82   84 am   BACKBONE|DICT|INTERRES
   165   84   85 1    
   166   84  205 1    
   167   85   86 1    
   168   85   87 1    
   169   85  206 1    
   170   86  207 1    
   171   86  208 1    
   172   86  209 1    
   173   87   88 2    
   174   87   89 am   BACKBONE|DICT|INTERRES
   175   89   90 1    
   176   89  210 1    
   177   90   91 1    
   178   90   92 1    
   179   90  211 1    
   180   91  212 1    
   181   91  213 1    
   182   91  214 1    
   183   92   93 2    
   184   92   94 am   BACKBONE|DICT|INTERRES
   185   94   95 1    
   186   94  215 1    
   187   95   96 1    
   188   95   97 1    
   189   95  216 1    
   190   96  217 1    
   191   96  218 1    
   192   96  219 1    
   193   97   98 2    
   194   97   99 am   BACKBONE|DICT|INTERRES
   195   99  100 1    
   196   99  220 1    
   197  100  101 1    
   198  100  102 1    
   199  100  221 1    
   200  101  222 1    
   201  101  223 1    
   202  101  224 1    
   203  102  103 2    
   204  102  104 am   BACKBONE|DICT|INTERRES
   205  104  105 1    
   206  104  225 1    
   207  105  106 1    
   208  105  107 1    
   209  105  226 1    
   210  106  227 1    
   211  106  228 1    
   212  106  229 1    
   213  107  108 2    
   214  107  109 am   BACKBONE|DICT|INTERRES
   215  109  110 1    
   216  109  230 1    
   217  110  111 1    
   218  110  112 1    
   219  110  231 1    
   220  111  232 1    
   221  111  233 1    
   222  111  234 1    
   223  112  113 2    
   224  112  114 am   BACKBONE|DICT|INTERRES
   225  114  115 1    
   226  114  235 1    
   227  115  116 1    
   228  115  117 1    
   229  115  236 1    
   230  116  237 1    
   231  116  238 1    
   232  116  239 1    
   233  117  118 2    
   234  117  119 am   BACKBONE|DICT|INTERRES
   235  119  120 1    
   236  119  240 1    
   237  120  121 1    
   238  120  124 1    
   239  120  241 1    
   240  121  122 am   BACKBONE|DICT|INTERRES
   241  121  123 2    
   242  122  242 1    
   243  122  243 1    
   244  124  125 1    
   245  124  244 1    
   246  124  245 1    
   247  125  126 1    
   248  126  246 1    
   249  126  247 1    
@<TRIPOS>SUBSTRUCTURE
     1 UNK         1 GROUP             0       ****    0 ROOT    
