@<TRIPOS>MOLECULE
3R540
247   249    1
SMALL
USER_CHARGES


@<TRIPOS>ATOM
      1 CA         -2.8776  -10.1804  -51.6303 C.3       0 UNK        -0.1800 
      2 C          -4.0961  -11.1008  -51.6622 C.2       0 UNK         0.5000 
      3 O          -5.2107  -10.6348  -51.4357 O.2       0 UNK        -0.5000 
      4 N          -3.9455  -12.4039  -51.9390 N.am      1 UNK        -0.5000 
      5 CA         -2.6873  -13.1238  -52.1844 C.3       1 UNK         0.1400 
      6 C6         -2.9263  -14.4383  -52.9751 C.3       23 UNK        -0.0398 
      7 S7         -4.1239  -15.5921  -52.2062 S.3       23 UNK        -0.2404 
      8 C8         -3.1793  -17.1492  -52.1270 C.3       23 UNK        -0.0205 
      9 C9         -2.1437  -17.1306  -51.0143 C.ar      23 UNK        -0.0193 
     10 C10        -0.8001  -16.8762  -51.3019 C.ar      23 UNK        -0.1150 
     11 C11         0.1359  -16.7699  -50.2697 C.ar      23 UNK        -0.0193 
     12 C12        -0.2794  -16.9485  -48.9471 C.ar      23 UNK        -0.1150 
     13 C13        -1.6108  -17.2486  -48.6481 C.ar      23 UNK        -0.0193 
     14 C14        -2.5366  -17.3375  -49.6891 C.ar      23 UNK        -0.1150 
     15 C15        -2.0623  -17.3759  -47.1993 C.3       23 UNK        -0.0205 
     16 S16        -1.1189  -18.6286  -46.2755 S.3       23 UNK        -0.2404 
     17 C17        -2.2372  -20.0695  -46.2527 C.3       23 UNK        -0.0398 
     18 CA         -1.4950  -21.3915  -46.5621 C.3       11 UNK         0.1400 
     19 N          -0.3147  -21.5929  -45.7082 N.am      11 UNK        -0.5000 
     20 C           0.6647  -22.4886  -45.9039 C.2       10 UNK         0.5000 
     21 O           0.6719  -23.2904  -46.8399 O.2       10 UNK        -0.5000 
     22 CA          1.7845  -22.5455  -44.8481 C.3       10 UNK         0.1400 
     23 CB          3.0678  -21.8816  -45.3636 C.3       10 UNK        -0.1800 
     24 N           1.4000  -21.9244  -43.5794 N.am      10 UNK        -0.5000 
     25 C           0.5823  -22.4778  -42.6731 C.2       9 UNK         0.5000 
     26 O           0.0525  -23.5795  -42.8284 O.2       9 UNK        -0.5000 
     27 CA          0.2869  -21.6458  -41.4059 C.3       9 UNK         0.1400 
     28 CB         -0.1091  -22.5126  -40.1929 C.3       9 UNK        -0.1800 
     29 N           1.3647  -20.7116  -41.0625 N.am      9 UNK        -0.5000 
     30 C           2.6217  -20.9962  -40.6868 C.2       8 UNK         0.5000 
     31 O           3.0449  -22.1388  -40.5093 O.2       8 UNK        -0.5000 
     32 CA          3.5831  -19.8022  -40.4992 C.3       8 UNK         0.1400 
     33 CB          4.6270  -19.7733  -41.6273 C.3       8 UNK        -0.1800 
     34 N           2.8948  -18.5096  -40.4655 N.am      8 UNK        -0.5000 
     35 C           2.2140  -18.0291  -39.4156 C.2       7 UNK         0.5000 
     36 O           2.1668  -18.5840  -38.3176 O.2       7 UNK        -0.5000 
     37 CA          1.4187  -16.7314  -39.6487 C.3       7 UNK         0.1400 
     38 CB          2.2631  -15.4984  -39.2921 C.3       7 UNK        -0.1800 
     39 N           0.9446  -16.6215  -41.0311 N.am      7 UNK        -0.5000 
     40 C          -0.0857  -17.3204  -41.5304 C.2       6 UNK         0.5000 
     41 O          -0.7649  -18.1010  -40.8640 O.2       6 UNK        -0.5000 
     42 CA         -0.3838  -17.1594  -43.0317 C.3       6 UNK         0.1400 
     43 CB         -1.3464  -15.9869  -43.2698 C.3       6 UNK        -0.1800 
     44 N           0.8240  -16.9673  -43.8344 N.am      6 UNK        -0.5000 
     45 C           1.7627  -17.9057  -44.0324 C.2       5 UNK         0.5000 
     46 O           1.6796  -19.0519  -43.5900 O.2       5 UNK        -0.5000 
     47 CA          3.0272  -17.4938  -44.8159 C.3       5 UNK         0.1400 
     48 CB          2.8620  -17.8328  -46.3032 C.3       5 UNK        -0.1800 
     49 N           3.3644  -16.0736  -44.7090 N.am      5 UNK        -0.5000 
     50 C           3.5253  -15.3747  -43.5777 C.2       4 UNK         0.5000 
     51 O           3.5511  -15.8894  -42.4595 O.2       4 UNK        -0.5000 
     52 CA          3.5905  -13.8373  -43.7121 C.3       4 UNK         0.1400 
     53 CB          5.0378  -13.3493  -43.5519 C.3       4 UNK        -0.1800 
     54 N           3.0392  -13.2954  -44.9653 N.am      4 UNK        -0.5000 
     55 C           1.7970  -13.4869  -45.4358 C.2       3 UNK         0.5000 
     56 O           0.9542  -14.1857  -44.8647 O.2       3 UNK        -0.5000 
     57 CA          1.4574  -12.8315  -46.7870 C.3       3 UNK         0.1400 
     58 CB          2.5179  -13.1367  -47.8649 C.3       3 UNK        -0.1800 
     59 N           0.1627  -13.3326  -47.2332 N.am      3 UNK        -0.5000 
     60 C          -0.6879  -12.7171  -48.0587 C.2       2 UNK         0.5000 
     61 O          -0.5166  -11.5829  -48.5129 O.2       2 UNK        -0.5000 
     62 CA         -1.9624  -13.5137  -48.3996 C.3       2 UNK         0.1400 
     63 CB         -3.0569  -13.2651  -47.3507 C.3       2 UNK        -0.1800 
     64 N          -2.5125  -13.2518  -49.7300 N.am      2 UNK        -0.5000 
     65 C          -1.8642  -13.3697  -50.8994 C.2       1 UNK         0.5000 
     66 O          -0.6705  -13.6502  -51.0048 O.2       1 UNK        -0.5000 
     67 C          -2.4761  -22.5894  -46.5569 C.2       11 UNK         0.5000 
     68 O          -3.4320  -22.5922  -47.3342 O.2       11 UNK        -0.5000 
     69 N          -2.2051  -23.6195  -45.7428 N.am      12 UNK        -0.5000 
     70 CA         -2.8110  -24.9461  -45.8529 C.3       12 UNK         0.1400 
     71 CB         -2.3398  -25.8158  -44.6787 C.3       12 UNK        -0.1800 
     72 C          -2.4824  -25.6227  -47.2005 C.2       12 UNK         0.5000 
     73 O          -3.3553  -26.2681  -47.7798 O.2       12 UNK        -0.5000 
     74 N          -1.2615  -25.4032  -47.7168 N.am      13 UNK        -0.5000 
     75 CA         -0.8374  -25.8491  -49.0486 C.3       13 UNK         0.1400 
     76 CB          0.6964  -25.8665  -49.1230 C.3       13 UNK        -0.1800 
     77 C          -1.4385  -24.9911  -50.1810 C.2       13 UNK         0.5000 
     78 O          -1.5480  -25.4693  -51.3088 O.2       13 UNK        -0.5000 
     79 N          -1.8652  -23.7617  -49.8516 N.am      14 UNK        -0.5000 
     80 CA         -2.6783  -22.8902  -50.7061 C.3       14 UNK         0.1400 
     81 CB         -2.4537  -21.4191  -50.3069 C.3       14 UNK        -0.1800 
     82 C          -4.1794  -23.2434  -50.6488 C.2       14 UNK         0.5000 
     83 O          -4.9802  -22.5281  -51.2497 O.2       14 UNK        -0.5000 
     84 N          -4.5455  -24.3033  -49.9095 N.am      15 UNK        -0.5000 
     85 CA         -5.9031  -24.8078  -49.6906 C.3       15 UNK         0.1400 
     86 CB         -6.4627  -25.4254  -50.9888 C.3       15 UNK        -0.1800 
     87 C          -6.8283  -23.7499  -49.0559 C.2       15 UNK         0.5000 
     88 O          -7.9686  -23.5841  -49.4899 O.2       15 UNK        -0.5000 
     89 N          -6.2921  -23.0348  -48.0540 N.am      16 UNK        -0.5000 
     90 CA         -6.9086  -21.9071  -47.3485 C.3       16 UNK         0.1400 
     91 CB         -8.1704  -22.3450  -46.5749 C.3       16 UNK        -0.1800 
     92 C          -7.1421  -20.7045  -48.2856 C.2       16 UNK         0.5000 
     93 O          -8.2242  -20.1156  -48.2923 O.2       16 UNK        -0.5000 
     94 N          -6.0963  -20.3761  -49.0585 N.am      17 UNK        -0.5000 
     95 CA         -6.0023  -19.2699  -50.0184 C.3       17 UNK         0.1400 
     96 CB         -6.2225  -17.9094  -49.3202 C.3       17 UNK        -0.1800 
     97 C          -6.8867  -19.4375  -51.2727 C.2       17 UNK         0.5000 
     98 O          -7.2106  -18.4441  -51.9259 O.2       17 UNK        -0.5000 
     99 N          -7.2510  -20.6819  -51.6056 N.am      18 UNK        -0.5000 
    100 CA        -7.9865  -21.0238  -52.8230 C.3       18 UNK         0.1400 
    101 CB        -8.7742  -22.3208  -52.5914 C.3       18 UNK        -0.1800 
    102 C         -7.0552  -21.1619  -54.0426 C.2       18 UNK         0.5000 
    103 O         -7.4849  -20.8827  -55.1629 O.2       18 UNK        -0.5000 
    104 N         -5.8069  -21.5823  -53.8067 N.am      19 UNK        -0.5000 
    105 CA        -4.7477  -21.7192  -54.8020 C.3       19 UNK         0.1400 
    106 CB        -4.1823  -23.1469  -54.7203 C.3       19 UNK        -0.1800 
    107 C         -3.6390  -20.6888  -54.5342 C.2       19 UNK         0.5000 
    108 O         -3.5239  -20.1721  -53.4229 O.2       19 UNK        -0.5000 
    109 N         -2.8117  -20.4344  -55.5540 N.am      20 UNK        -0.5000 
    110 CA        -1.7007  -19.4762  -55.5181 C.3       20 UNK         0.1400 
    111 CB        -1.4691  -18.9539  -56.9463 C.3       20 UNK        -0.1800 
    112 C         -0.3950  -20.0506  -54.9233 C.2       20 UNK         0.5000 
    113 O          0.6250  -19.3611  -54.9366 O.2       20 UNK        -0.5000 
    114 N         -0.4299  -21.3023  -54.4432 N.am      21 UNK        -0.5000 
    115 CA         0.7291  -22.0798  -53.9916 C.3       21 UNK         0.1400 
    116 CB         0.2871  -23.5319  -53.7563 C.3       21 UNK        -0.1800 
    117 C          1.4571  -21.5295  -52.7472 C.2       21 UNK         0.5000 
    118 O          2.6229  -21.8709  -52.5457 O.2       21 UNK        -0.5000 
    119 N          0.7777  -20.6965  -51.9459 N.am      22 UNK        -0.5000 
    120 CA         1.3249  -20.0245  -50.7507 C.3       22 UNK         0.1400 
    121 C          1.6212  -20.9681  -49.5414 C.2       22 UNK         0.5000 
    122 N          1.0442  -22.1613  -49.4899 N.am      22 UNK        -0.7600 
    123 O          2.3452  -20.6153  -48.6170 O.2       22 UNK        -0.5000 
    124 C124        2.4921  -19.0600  -51.1196 C.3       23 UNK        -0.0398 
    125 S125        2.7487  -17.6766  -49.9550 S.3       23 UNK        -0.2404 
    126 C126        1.5850  -16.4214  -50.5769 C.3       23 UNK        -0.0205 
    127 H127       -2.3456  -10.2017  -52.5811 H         1 UNK         0.0600 
    128 H128       -3.1837   -9.1501  -51.4480 H         1 UNK         0.0600 
    129 H129       -2.1910  -10.4661  -50.8337 H         1 UNK         0.0600 
    130 H130       -4.7691  -12.9892  -51.9616 H         1 UNK         0.3000 
    131 H131       -2.0639  -12.4953  -52.8226 H         1 UNK         0.0600 
    132 H132       -1.9797  -14.9479  -53.1589 H         1 UNK         0.0800 
    133 H133       -3.3106  -14.1904  -53.9654 H         1 UNK         0.0800 
    134 H134       -2.7109  -17.3433  -53.0914 H         1 UNK         0.0800 
    135 H135       -3.8757  -17.9704  -51.9609 H         1 UNK         0.0800 
    136 H136       -0.4894  -16.7196  -52.3250 H         1 UNK         0.1150 
    137 H137        0.4358  -16.8463  -48.1458 H         1 UNK         0.1150 
    138 H138       -3.5730  -17.5259  -49.4659 H         1 UNK         0.1150 
    139 H139       -1.9126  -16.4128  -46.7114 H         1 UNK         0.0800 
    140 H140       -3.1314  -17.5815  -47.1316 H         1 UNK         0.0800 
    141 H141       -2.7121  -20.1138  -45.2712 H         1 UNK         0.0800 
    142 H142       -3.0382  -19.9108  -46.9769 H         1 UNK         0.0800 
    143 H143       -1.1215  -21.3164  -47.5851 H         1 UNK         0.0600 
    144 H144       -0.2199  -20.9578  -44.9292 H         1 UNK         0.3000 
    145 H145        2.0020  -23.6001  -44.6666 H         1 UNK         0.0600 
    146 H146        3.8920  -22.0221  -44.6641 H         1 UNK         0.0600 
    147 H147        3.3738  -22.3068  -46.3206 H         1 UNK         0.0600 
    148 H148        2.9331  -20.8116  -45.5089 H         1 UNK         0.0600 
    149 H149        1.7263  -20.9749  -43.4199 H         1 UNK         0.3000 
    150 H150       -0.5738  -21.0235  -41.6550 H         1 UNK         0.0600 
    151 H151       -1.0143  -23.0844  -40.4004 H         1 UNK         0.0600 
    152 H152       -0.3105  -21.8956  -39.3171 H         1 UNK         0.0600 
    153 H153        0.6724  -23.2257  -39.9299 H         1 UNK         0.0600 
    154 H154        1.1437  -19.7361  -41.2058 H         1 UNK         0.3000 
    155 H155        4.1070  -19.9449  -39.5518 H         1 UNK         0.0600 
    156 H156        5.2251  -20.6854  -41.6280 H         1 UNK         0.0600 
    157 H157        5.3138  -18.9347  -41.5111 H         1 UNK         0.0600 
    158 H158        4.1585  -19.6918  -42.6079 H         1 UNK         0.0600 
    159 H159        2.9040  -17.9663  -41.3182 H         1 UNK         0.3000 
    160 H160        0.5514  -16.7479  -38.9851 H         1 UNK         0.0600 
    161 H161        3.1731  -15.4413  -39.8895 H         1 UNK         0.0600 
    162 H162        1.7015  -14.5769  -39.4456 H         1 UNK         0.0600 
    163 H163        2.5637  -15.5251  -38.2440 H         1 UNK         0.0600 
    164 H164        1.5005  -16.0516  -41.6557 H         1 UNK         0.3000 
    165 H165       -0.8729  -18.0757  -43.3673 H         1 UNK         0.0600 
    166 H166       -1.6037  -15.8962  -44.3247 H         1 UNK         0.0600 
    167 H167       -2.2770  -16.1270  -42.7186 H         1 UNK         0.0600 
    168 H168       -0.9127  -15.0389  -42.9494 H         1 UNK         0.0600 
    169 H169        0.9570  -16.0426  -44.2331 H         1 UNK         0.3000 
    170 H170        3.8625  -18.0707  -44.4160 H         1 UNK         0.0600 
    171 H171        2.4571  -18.8333  -46.4521 H         1 UNK         0.0600 
    172 H172        2.1797  -17.1391  -46.7919 H         1 UNK         0.0600 
    173 H173        3.8162  -17.7866  -46.8280 H         1 UNK         0.0600 
    174 H174        3.3641  -15.5542  -45.5735 H         1 UNK         0.3000 
    175 H175        2.9984  -13.4243  -42.8931 H         1 UNK         0.0600 
    176 H176        5.6731  -13.7029  -44.3651 H         1 UNK         0.0600 
    177 H177        5.0884  -12.2605  -43.5336 H         1 UNK         0.0600 
    178 H178        5.4711  -13.7079  -42.6170 H         1 UNK         0.0600 
    179 H179        3.6684  -12.7169  -45.5031 H         1 UNK         0.3000 
    180 H180        1.3941  -11.7534  -46.6266 H         1 UNK         0.0600 
    181 H181        3.4851  -12.7021  -47.6120 H         1 UNK         0.0600 
    182 H182        2.6594  -14.2106  -47.9945 H         1 UNK         0.0600 
    183 H183        2.2291  -12.7234  -48.8316 H         1 UNK         0.0600 
    184 H184       -0.0985  -14.2118  -46.8066 H         1 UNK         0.3000 
    185 H185       -1.7041  -14.5701  -48.3778 H         1 UNK         0.0600 
    186 H186       -2.6949  -13.4829  -46.3449 H         1 UNK         0.0600 
    187 H187       -3.3931  -12.2276  -47.3617 H         1 UNK         0.0600 
    188 H188       -3.9237  -13.9029  -47.5259 H         1 UNK         0.0600 
    189 H189       -3.4876  -12.9951  -49.7652 H         1 UNK         0.3000 
    190 H190       -1.4179  -23.5363  -45.1149 H         1 UNK         0.3000 
    191 H191       -3.8952  -24.8328  -45.7877 H         1 UNK         0.0600 
    192 H192       -2.7883  -26.8092  -44.7231 H         1 UNK         0.0600 
    193 H193       -2.6223  -25.3736  -43.7230 H         1 UNK         0.0600 
    194 H194       -1.2563  -25.9424  -44.6799 H         1 UNK         0.0600 
    195 H195       -0.5989  -24.8295  -47.2044 H         1 UNK         0.3000 
    196 H196       -1.1885  -26.8726  -49.1971 H         1 UNK         0.0600 
    197 H197        1.0361  -26.2252  -50.0955 H         1 UNK         0.0600 
    198 H198        1.1184  -26.5294  -48.3675 H         1 UNK         0.0600 
    199 H199        1.1245  -24.8768  -48.9729 H         1 UNK         0.0600 
    200 H200       -1.7716  -23.4749  -48.8890 H         1 UNK         0.3000 
    201 H201       -2.3592  -23.0077  -51.7421 H         1 UNK         0.0600 
    202 H202       -1.3982  -21.1677  -50.2589 H         1 UNK         0.0600 
    203 H203       -2.8950  -21.1773  -49.3428 H         1 UNK         0.0600 
    204 H204       -2.9076  -20.7442  -51.0304 H         1 UNK         0.0600 
    205 H205       -3.8221  -24.8148  -49.4226 H         1 UNK         0.3000 
    206 H206       -5.8218  -25.6105  -48.9566 H         1 UNK         0.0600 
    207 H207       -5.8303  -26.2433  -51.3337 H         1 UNK         0.0600 
    208 H208       -7.4623  -25.8332  -50.8350 H         1 UNK         0.0600 
    209 H209       -6.5233  -24.6949  -51.7944 H         1 UNK         0.0600 
    210 H210       -5.3202  -23.2053  -47.8149 H         1 UNK         0.3000 
    211 H211       -6.1758  -21.5769  -46.6105 H         1 UNK         0.0600 
    212 H212       -8.9828  -22.6307  -47.2433 H         1 UNK         0.0600 
    213 H213       -8.5392  -21.5348  -45.9449 H         1 UNK         0.0600 
    214 H214       -7.9583  -23.1920  -45.9226 H         1 UNK         0.0600 
    215 H215       -5.2796  -20.9674  -49.0013 H         1 UNK         0.3000 
    216 H216       -4.9744  -19.2945  -50.3797 H         1 UNK         0.0600 
    217 H217       -5.9306  -17.0846  -49.9714 H         1 UNK         0.0600 
    218 H218       -5.6346  -17.8287  -48.4062 H         1 UNK         0.0600 
    219 H219       -7.2689  -17.7548  -49.0563 H         1 UNK         0.0600 
    220 H220       -6.8946  -21.4532  -51.0550 H         1 UNK         0.3000 
    221 H221       -8.7067  -20.2324  -53.0411 H         1 UNK         0.0600 
    222 H222       -8.1129  -23.1596  -52.3795 H         1 UNK         0.0600 
    223 H223       -9.4627  -22.2194  -51.7521 H         1 UNK         0.0600 
    224 H224       -9.3654  -22.5817  -53.4699 H         1 UNK         0.0600 
    225 H225       -5.5234  -21.7575  -52.8449 H         1 UNK         0.3000 
    226 H226       -5.1386  -21.5513  -55.8075 H         1 UNK         0.0600 
    227 H227       -4.9627  -23.8872  -54.8975 H         1 UNK         0.0600 
    228 H228       -3.4067  -23.3097  -55.4695 H         1 UNK         0.0600 
    229 H229       -3.7453  -23.3548  -53.7437 H         1 UNK         0.0600 
    230 H230       -2.9539  -20.9144  -56.4315 H         1 UNK         0.3000 
    231 H231       -1.9854  -18.6262  -54.8967 H         1 UNK         0.0600 
    232 H232       -1.1550  -19.7518  -57.6203 H         1 UNK         0.0600 
    233 H233       -2.3758  -18.5065  -57.3542 H         1 UNK         0.0600 
    234 H234       -0.6962  -18.1844  -56.9654 H         1 UNK         0.0600 
    235 H235       -1.3135  -21.7871  -54.4723 H         1 UNK         0.3000 
    236 H236        1.4561  -22.0788  -54.8064 H         1 UNK         0.0600 
    237 H237       -0.4657  -23.5990  -52.9727 H         1 UNK         0.0600 
    238 H238       -0.1308  -23.9714  -54.6622 H         1 UNK         0.0600 
    239 H239        1.1292  -24.1558  -53.4537 H         1 UNK         0.0600 
    240 H240       -0.1726  -20.4638  -52.1940 H         1 UNK         0.3000 
    241 H241        0.4967  -19.4147  -50.3961 H         1 UNK         0.0600 
    242 H242        1.1806  -22.7241  -48.6585 H         1 UNK         0.3800 
    243 H243        0.4719  -22.4908  -50.2474 H         1 UNK         0.3800 
    244 H244        2.3208  -18.6280  -52.1067 H         1 UNK         0.0800 
    245 H245        3.4275  -19.6153  -51.2017 H         1 UNK         0.0800 
    246 H246        1.8144  -15.4645  -50.1064 H         1 UNK         0.0800 
    247 H247        1.7390  -16.2790  -51.6475 H         1 UNK         0.0800 
@<TRIPOS>BOND
     1    1    2 1    
     2    1  127 1    
     3    1  128 1    
     4    1  129 1    
     5    2    3 2    
     6    2    4 am   BACKBONE|DICT|INTERRES
     7    4    5 1    
     8    4  130 1    
     9    5    6 1    
    10    5   65 1    
    11    5  131 1    
    12    6    7 1    
    13    6  132 1    
    14    6  133 1    
    15    7    8 1    
    16    8    9 1    
    17    8  134 1    
    18    8  135 1    
    19    9   10 ar   
    20    9   14 ar   
    21   10   11 ar   
    22   10  136 1    
    23   11   12 ar   
    24   11  126 1    
    25   12   13 ar   
    26   12  137 1    
    27   13   14 ar   
    28   13   15 1    
    29   14  138 1    
    30   15   16 1    
    31   15  139 1    
    32   15  140 1    
    33   16   17 1    
    34   17   18 1    
    35   17  141 1    
    36   17  142 1    
    37   18   19 1    
    38   18   67 1    
    39   18  143 1    
    40   19   20 am   BACKBONE|DICT|INTERRES
    41   19  144 1    
    42   20   21 2    
    43   20   22 1    
    44   22   23 1    
    45   22   24 1    
    46   22  145 1    
    47   23  146 1    
    48   23  147 1    
    49   23  148 1    
    50   24   25 am   BACKBONE|DICT|INTERRES
    51   24  149 1    
    52   25   26 2    
    53   25   27 1    
    54   27   28 1    
    55   27   29 1    
    56   27  150 1    
    57   28  151 1    
    58   28  152 1    
    59   28  153 1    
    60   29   30 am   BACKBONE|DICT|INTERRES
    61   29  154 1    
    62   30   31 2    
    63   30   32 1    
    64   32   33 1    
    65   32   34 1    
    66   32  155 1    
    67   33  156 1    
    68   33  157 1    
    69   33  158 1    
    70   34   35 am   BACKBONE|DICT|INTERRES
    71   34  159 1    
    72   35   36 2    
    73   35   37 1    
    74   37   38 1    
    75   37   39 1    
    76   37  160 1    
    77   38  161 1    
    78   38  162 1    
    79   38  163 1    
    80   39   40 am   BACKBONE|DICT|INTERRES
    81   39  164 1    
    82   40   41 2    
    83   40   42 1    
    84   42   43 1    
    85   42   44 1    
    86   42  165 1    
    87   43  166 1    
    88   43  167 1    
    89   43  168 1    
    90   44   45 am   BACKBONE|DICT|INTERRES
    91   44  169 1    
    92   45   46 2    
    93   45   47 1    
    94   47   48 1    
    95   47   49 1    
    96   47  170 1    
    97   48  171 1    
    98   48  172 1    
    99   48  173 1    
   100   49   50 am   BACKBONE|DICT|INTERRES
   101   49  174 1    
   102   50   51 2    
   103   50   52 1    
   104   52   53 1    
   105   52   54 1    
   106   52  175 1    
   107   53  176 1    
   108   53  177 1    
   109   53  178 1    
   110   54   55 am   BACKBONE|DICT|INTERRES
   111   54  179 1    
   112   55   56 2    
   113   55   57 1    
   114   57   58 1    
   115   57   59 1    
   116   57  180 1    
   117   58  181 1    
   118   58  182 1    
   119   58  183 1    
   120   59   60 am   BACKBONE|DICT|INTERRES
   121   59  184 1    
   122   60   61 2    
   123   60   62 1    
   124   62   63 1    
   125   62   64 1    
   126   62  185 1    
   127   63  186 1    
   128   63  187 1    
   129   63  188 1    
   130   64   65 am   BACKBONE|DICT|INTERRES
   131   64  189 1    
   132   65   66 2    
   133   67   68 2    
   134   67   69 am   BACKBONE|DICT|INTERRES
   135   69   70 1    
   136   69  190 1    
   137   70   71 1    
   138   70   72 1    
   139   70  191 1    
   140   71  192 1    
   141   71  193 1    
   142   71  194 1    
   143   72   73 2    
   144   72   74 am   BACKBONE|DICT|INTERRES
   145   74   75 1    
   146   74  195 1    
   147   75   76 1    
   148   75   77 1    
   149   75  196 1    
   150   76  197 1    
   151   76  198 1    
   152   76  199 1    
   153   77   78 2    
   154   77   79 am   BACKBONE|DICT|INTERRES
   155   79   80 1    
   156   79  200 1    
   157   80   81 1    
   158   80   82 1    
   159   80  201 1    
   160   81  202 1    
   161   81  203 1    
   162   81  204 1    
   163   82   83 2    
   164   82   84 am   BACKBONE|DICT|INTERRES
   165   84   85 1    
   166   84  205 1    
   167   85   86 1    
   168   85   87 1    
   169   85  206 1    
   170   86  207 1    
   171   86  208 1    
   172   86  209 1    
   173   87   88 2    
   174   87   89 am   BACKBONE|DICT|INTERRES
   175   89   90 1    
   176   89  210 1    
   177   90   91 1    
   178   90   92 1    
   179   90  211 1    
   180   91  212 1    
   181   91  213 1    
   182   91  214 1    
   183   92   93 2    
   184   92   94 am   BACKBONE|DICT|INTERRES
   185   94   95 1    
   186   94  215 1    
   187   95   96 1    
   188   95   97 1    
   189   95  216 1    
   190   96  217 1    
   191   96  218 1    
   192   96  219 1    
   193   97   98 2    
   194   97   99 am   BACKBONE|DICT|INTERRES
   195   99  100 1    
   196   99  220 1    
   197  100  101 1    
   198  100  102 1    
   199  100  221 1    
   200  101  222 1    
   201  101  223 1    
   202  101  224 1    
   203  102  103 2    
   204  102  104 am   BACKBONE|DICT|INTERRES
   205  104  105 1    
   206  104  225 1    
   207  105  106 1    
   208  105  107 1    
   209  105  226 1    
   210  106  227 1    
   211  106  228 1    
   212  106  229 1    
   213  107  108 2    
   214  107  109 am   BACKBONE|DICT|INTERRES
   215  109  110 1    
   216  109  230 1    
   217  110  111 1    
   218  110  112 1    
   219  110  231 1    
   220  111  232 1    
   221  111  233 1    
   222  111  234 1    
   223  112  113 2    
   224  112  114 am   BACKBONE|DICT|INTERRES
   225  114  115 1    
   226  114  235 1    
   227  115  116 1    
   228  115  117 1    
   229  115  236 1    
   230  116  237 1    
   231  116  238 1    
   232  116  239 1    
   233  117  118 2    
   234  117  119 am   BACKBONE|DICT|INTERRES
   235  119  120 1    
   236  119  240 1    
   237  120  121 1    
   238  120  124 1    
   239  120  241 1    
   240  121  122 am   BACKBONE|DICT|INTERRES
   241  121  123 2    
   242  122  242 1    
   243  122  243 1    
   244  124  125 1    
   245  124  244 1    
   246  124  245 1    
   247  125  126 1    
   248  126  246 1    
   249  126  247 1    
@<TRIPOS>SUBSTRUCTURE
     1 UNK         1 GROUP             0       ****    0 ROOT    
