@<TRIPOS>MOLECULE
3R540
247   249    1
SMALL
USER_CHARGES


@<TRIPOS>ATOM
      1 CA          1.6588   -7.6326  -46.2537 C.3       0 UNK        -0.1800 
      2 C           1.5032   -9.1442  -46.3269 C.2       0 UNK         0.5000 
      3 O           1.9408   -9.8494  -45.4195 O.2       0 UNK        -0.5000 
      4 N           0.8637   -9.6484  -47.3899 N.am      1 UNK        -0.5000 
      5 CA          0.6351  -11.0797  -47.6341 C.3       1 UNK         0.1400 
      6 C6          0.1042  -11.3201  -49.0692 C.3       23 UNK        -0.0398 
      7 S7          0.5411  -12.9626  -49.7297 S.3       23 UNK        -0.2404 
      8 C8         -1.0983  -13.7409  -49.8400 C.3       23 UNK        -0.0205 
      9 C9         -1.0194  -15.0720  -50.5689 C.ar      23 UNK        -0.0193 
     10 C10        -1.0697  -15.1088  -51.9658 C.ar      23 UNK        -0.1150 
     11 C11        -0.9933  -16.3267  -52.6471 C.ar      23 UNK        -0.0193 
     12 C12        -0.8678  -17.5135  -51.9192 C.ar      23 UNK        -0.1150 
     13 C13        -0.8199  -17.4902  -50.5234 C.ar      23 UNK        -0.0193 
     14 C14        -0.8948  -16.2658  -49.8522 C.ar      23 UNK        -0.1150 
     15 C15        -0.6725  -18.7830  -49.7392 C.3       23 UNK        -0.0205 
     16 S16        -2.2992  -19.4718  -49.2902 S.3       23 UNK        -0.2404 
     17 C17        -1.9489  -20.1585  -47.6420 C.3       23 UNK        -0.0398 
     18 CA         -1.5355  -21.6568  -47.6669 C.3       11 UNK         0.1400 
     19 N          -0.5748  -21.9205  -46.5965 N.am      11 UNK        -0.5000 
     20 C           0.4814  -22.7405  -46.6636 C.2       10 UNK         0.5000 
     21 O           0.7518  -23.4220  -47.6528 O.2       10 UNK        -0.5000 
     22 CA          1.4192  -22.7923  -45.4375 C.3       10 UNK         0.1400 
     23 CB          2.8610  -22.4357  -45.8369 C.3       10 UNK        -0.1800 
     24 N           1.0066  -21.8845  -44.3658 N.am      10 UNK        -0.5000 
     25 C           0.2050  -22.2031  -43.3417 C.2       9 UNK         0.5000 
     26 O          -0.2600  -23.3262  -43.1589 O.2       9 UNK        -0.5000 
     27 CA         -0.1591  -21.0709  -42.3613 C.3       9 UNK         0.1400 
     28 CB          0.7892  -21.0904  -41.1532 C.3       9 UNK        -0.1800 
     29 N          -0.1446  -19.7366  -42.9668 N.am      9 UNK        -0.5000 
     30 C          -0.9490  -19.3317  -43.9599 C.2       8 UNK         0.5000 
     31 O          -1.8139  -20.0455  -44.4685 O.2       8 UNK        -0.5000 
     32 CA         -0.6991  -17.9197  -44.5242 C.3       8 UNK         0.1400 
     33 CB         -1.3483  -16.8491  -43.6357 C.3       8 UNK        -0.1800 
     34 N           0.7246  -17.6216  -44.6923 N.am      8 UNK        -0.5000 
     35 C           1.5584  -18.2861  -45.5064 C.2       7 UNK         0.5000 
     36 O           1.2135  -19.2158  -46.2333 O.2       7 UNK        -0.5000 
     37 CA          3.0380  -17.8759  -45.4644 C.3       7 UNK         0.1400 
     38 CB          3.2912  -16.6346  -46.3343 C.3       7 UNK        -0.1800 
     39 N           3.4761  -17.6271  -44.0916 N.am      7 UNK        -0.5000 
     40 C           3.7376  -18.5955  -43.2016 C.2       6 UNK         0.5000 
     41 O           3.6981  -19.7967  -43.4686 O.2       6 UNK        -0.5000 
     42 CA          4.0760  -18.1508  -41.7654 C.3       6 UNK         0.1400 
     43 CB          5.5824  -17.8869  -41.6235 C.3       6 UNK        -0.1800 
     44 N           3.3366  -16.9598  -41.3430 N.am      6 UNK        -0.5000 
     45 C           2.0103  -16.9187  -41.1550 C.2       5 UNK         0.5000 
     46 O           1.2721  -17.8924  -41.2911 O.2       5 UNK        -0.5000 
     47 CA          1.3963  -15.5501  -40.8069 C.3       5 UNK         0.1400 
     48 CB          1.4123  -15.3227  -39.2885 C.3       5 UNK        -0.1800 
     49 N           2.0433  -14.4161  -41.4713 N.am      5 UNK        -0.5000 
     50 C           2.1998  -14.2664  -42.7926 C.2       4 UNK         0.5000 
     51 O           1.8529  -15.1137  -43.6172 O.2       4 UNK        -0.5000 
     52 CA          2.8410  -12.9424  -43.2534 C.3       4 UNK         0.1400 
     53 CB          3.3786  -13.0232  -44.6931 C.3       4 UNK        -0.1800 
     54 N           1.8891  -11.8378  -43.1698 N.am      4 UNK        -0.5000 
     55 C           1.4299  -11.2693  -42.0468 C.2       3 UNK         0.5000 
     56 O           1.8306  -11.5637  -40.9194 O.2       3 UNK        -0.5000 
     57 CA          0.3311  -10.2022  -42.2057 C.3       3 UNK         0.1400 
     58 CB          0.9384   -8.7907  -42.2002 C.3       3 UNK        -0.1800 
     59 N          -0.4560  -10.3860  -43.4274 N.am      3 UNK        -0.5000 
     60 C          -1.4358  -11.2901  -43.5736 C.2       2 UNK         0.5000 
     61 O          -1.8057  -12.0457  -42.6747 O.2       2 UNK        -0.5000 
     62 CA         -2.1239  -11.3604  -44.9514 C.3       2 UNK         0.1400 
     63 CB         -3.3803  -10.4763  -44.9688 C.3       2 UNK        -0.1800 
     64 N          -1.2412  -10.9547  -46.0470 N.am      2 UNK        -0.5000 
     65 C          -0.2764  -11.7282  -46.5659 C.2       1 UNK         0.5000 
     66 O          -0.0708  -12.8873  -46.2082 O.2       1 UNK        -0.5000 
     67 C          -2.7158  -22.6530  -47.5703 C.2       11 UNK         0.5000 
     68 O          -2.5024  -23.8390  -47.3032 O.2       11 UNK        -0.5000 
     69 N          -3.9561  -22.1718  -47.7416 N.am      12 UNK        -0.5000 
     70 CA         -5.1945  -22.9448  -47.5882 C.3       12 UNK         0.1400 
     71 CB         -6.3941  -22.0439  -47.9140 C.3       12 UNK        -0.1800 
     72 C          -5.3659  -23.5914  -46.1959 C.2       12 UNK         0.5000 
     73 O          -6.0301  -24.6212  -46.0884 O.2       12 UNK        -0.5000 
     74 N          -4.7129  -23.0241  -45.1708 N.am      13 UNK        -0.5000 
     75 CA         -4.6010  -23.5819  -43.8203 C.3       13 UNK         0.1400 
     76 CB         -3.9234  -22.5442  -42.9145 C.3       13 UNK        -0.1800 
     77 C          -3.8422  -24.9266  -43.7608 C.2       13 UNK         0.5000 
     78 O          -4.1145  -25.7291  -42.8677 O.2       13 UNK        -0.5000 
     79 N          -2.9391  -25.1649  -44.7226 N.am      14 UNK        -0.5000 
     80 CA         -2.2266  -26.4300  -44.9231 C.3       14 UNK         0.1400 
     81 CB         -0.7576  -26.1251  -45.2628 C.3       14 UNK        -0.1800 
     82 C          -2.8762  -27.2819  -46.0332 C.2       14 UNK         0.5000 
     83 O          -2.2867  -28.2799  -46.4494 O.2       14 UNK        -0.5000 
     84 N          -4.0592  -26.8648  -46.5111 N.am      15 UNK        -0.5000 
     85 CA         -4.8266  -27.4244  -47.6271 C.3       15 UNK         0.1400 
     86 CB         -5.2586  -28.8779  -47.3409 C.3       15 UNK        -0.1800 
     87 C          -4.1336  -27.2616  -48.9963 C.2       15 UNK         0.5000 
     88 O          -4.4708  -27.9840  -49.9369 O.2       15 UNK        -0.5000 
     89 N          -3.2087  -26.2961  -49.1173 N.am      16 UNK        -0.5000 
     90 CA         -2.5054  -25.9668  -50.3578 C.3       16 UNK         0.1400 
     91 CB         -1.1467  -25.3262  -50.0252 C.3       16 UNK        -0.1800 
     92 C          -3.3832  -25.0766  -51.2583 C.2       16 UNK         0.5000 
     93 O          -3.0442  -23.9223  -51.5239 O.2       16 UNK        -0.5000 
     94 N          -4.5159  -25.6329  -51.7060 N.am      17 UNK        -0.5000 
     95 CA         -5.5221  -24.9677  -52.5364 C.3       17 UNK         0.1400 
     96 CB         -6.7145  -25.9132  -52.7400 C.3       17 UNK        -0.1800 
     97 C          -4.9768  -24.4803  -53.8913 C.2       17 UNK         0.5000 
     98 O          -5.3877  -23.4224  -54.3646 O.2       17 UNK        -0.5000 
     99 N          -4.0302  -25.2350  -54.4670 N.am      18 UNK        -0.5000 
    100 CA        -3.3258  -24.8833  -55.7011 C.3       18 UNK         0.1400 
    101 CB        -2.5158  -26.0957  -56.1840 C.3       18 UNK        -0.1800 
    102 C         -2.4142  -23.6514  -55.5414 C.2       18 UNK         0.5000 
    103 O         -2.2843  -22.8701  -56.4843 O.2       18 UNK        -0.5000 
    104 N         -1.8224  -23.4858  -54.3491 N.am      19 UNK        -0.5000 
    105 CA        -1.0329  -22.3106  -53.9862 C.3       19 UNK         0.1400 
    106 CB        -0.1207  -22.6293  -52.7907 C.3       19 UNK        -0.1800 
    107 C         -1.9461  -21.1151  -53.6802 C.2       19 UNK         0.5000 
    108 O         -1.6999  -20.0253  -54.1918 O.2       19 UNK        -0.5000 
    109 N         -3.0071  -21.3546  -52.8958 N.am      20 UNK        -0.5000 
    110 CA        -4.0050  -20.3599  -52.4910 C.3       20 UNK         0.1400 
    111 CB        -4.9462  -20.9923  -51.4556 C.3       20 UNK        -0.1800 
    112 C         -4.8113  -19.7585  -53.6597 C.2       20 UNK         0.5000 
    113 O         -5.2857  -18.6281  -53.5480 O.2       20 UNK        -0.5000 
    114 N         -4.9399  -20.5093  -54.7622 N.am      21 UNK        -0.5000 
    115 CA        -5.5058  -20.0481  -56.0314 C.3       21 UNK         0.1400 
    116 CB        -5.7939  -21.2684  -56.9197 C.3       21 UNK        -0.1800 
    117 C         -4.5997  -19.0437  -56.7753 C.2       21 UNK         0.5000 
    118 O         -5.0967  -18.3054  -57.6269 O.2       21 UNK        -0.5000 
    119 N         -3.3007  -19.0336  -56.4449 N.am      22 UNK        -0.5000 
    120 CA        -2.2601  -18.1307  -56.9660 C.3       22 UNK         0.1400 
    121 C         -1.9314  -18.3123  -58.4795 C.2       22 UNK         0.5000 
    122 N         -2.2471  -19.4489  -59.0886 N.am      22 UNK        -0.7600 
    123 O         -1.3554  -17.4285  -59.1089 O.2       22 UNK        -0.5000 
    124 C124       -2.4796  -16.6423  -56.5665 C.3       23 UNK        -0.0398 
    125 S125       -2.7478  -16.4038  -54.7746 S.3       23 UNK        -0.2404 
    126 C126       -1.0354  -16.3603  -54.1666 C.3       23 UNK        -0.0205 
    127 H127        1.2205   -7.1370  -47.1202 H         1 UNK         0.0600 
    128 H128        2.7150   -7.3676  -46.2076 H         1 UNK         0.0600 
    129 H129        1.1708   -7.2486  -45.3580 H         1 UNK         0.0600 
    130 H130        0.5221   -9.0176  -48.1015 H         1 UNK         0.3000 
    131 H131        1.6128  -11.5599  -47.5483 H         1 UNK         0.0600 
    132 H132       -0.9718  -11.1473  -49.1320 H         1 UNK         0.0800 
    133 H133        0.5530  -10.5993  -49.7543 H         1 UNK         0.0800 
    134 H134       -1.7868  -13.0782  -50.3668 H         1 UNK         0.0800 
    135 H135       -1.5034  -13.8779  -48.8359 H         1 UNK         0.0800 
    136 H136       -1.1647  -14.1878  -52.5240 H         1 UNK         0.1150 
    137 H137       -0.8057  -18.4577  -52.4385 H         1 UNK         0.1150 
    138 H138       -0.8536  -16.2426  -48.7721 H         1 UNK         0.1150 
    139 H139       -0.1242  -19.5230  -50.3243 H         1 UNK         0.0800 
    140 H140       -0.0653  -18.5910  -48.8535 H         1 UNK         0.0800 
    141 H141       -2.7985  -19.9704  -46.9840 H         1 UNK         0.0800 
    142 H142       -1.1511  -19.5595  -47.2076 H         1 UNK         0.0800 
    143 H143       -1.0429  -21.8580  -48.6205 H         1 UNK         0.0600 
    144 H144       -0.7294  -21.4115  -45.7353 H         1 UNK         0.3000 
    145 H145        1.4159  -23.8198  -45.0691 H         1 UNK         0.0600 
    146 H146        3.5323  -22.4897  -44.9795 H         1 UNK         0.0600 
    147 H147        3.2433  -23.1241  -46.5915 H         1 UNK         0.0600 
    148 H148        2.9260  -21.4275  -46.2478 H         1 UNK         0.0600 
    149 H149        1.3326  -20.9304  -44.4437 H         1 UNK         0.3000 
    150 H150       -1.1712  -21.2602  -41.9996 H         1 UNK         0.0600 
    151 H151        0.8047  -22.0737  -40.6814 H         1 UNK         0.0600 
    152 H152        0.4757  -20.3731  -40.3947 H         1 UNK         0.0600 
    153 H153        1.8123  -20.8473  -41.4430 H         1 UNK         0.0600 
    154 H154        0.5028  -19.0667  -42.5586 H         1 UNK         0.3000 
    155 H155       -1.1650  -17.8644  -45.5096 H         1 UNK         0.0600 
    156 H156       -0.9526  -16.8743  -42.6210 H         1 UNK         0.0600 
    157 H157       -2.4263  -17.0005  -43.5698 H         1 UNK         0.0600 
    158 H158       -1.1825  -15.8482  -44.0357 H         1 UNK         0.0600 
    159 H159        1.0942  -16.8359  -44.1648 H         1 UNK         0.3000 
    160 H160        3.6279  -18.6983  -45.8751 H         1 UNK         0.0600 
    161 H161        2.6914  -15.7820  -46.0162 H         1 UNK         0.0600 
    162 H162        3.0392  -16.8358  -47.3763 H         1 UNK         0.0600 
    163 H163        4.3396  -16.3378  -46.3045 H         1 UNK         0.0600 
    164 H164        3.4470  -16.6671  -43.7765 H         1 UNK         0.3000 
    165 H165        3.8082  -18.9700  -41.0946 H         1 UNK         0.0600 
    166 H166        5.8459  -17.6491  -40.5928 H         1 UNK         0.0600 
    167 H167        6.1610  -18.7657  -41.9112 H         1 UNK         0.0600 
    168 H168        5.9080  -17.0585  -42.2540 H         1 UNK         0.0600 
    169 H169        3.8674  -16.1112  -41.2132 H         1 UNK         0.3000 
    170 H170        0.3559  -15.5640  -41.1354 H         1 UNK         0.0600 
    171 H171        0.9134  -16.1397  -38.7654 H         1 UNK         0.0600 
    172 H172        2.4300  -15.2570  -38.9020 H         1 UNK         0.0600 
    173 H173        0.8920  -14.4022  -39.0224 H         1 UNK         0.0600 
    174 H174        2.2822  -13.6251  -40.8841 H         1 UNK         0.3000 
    175 H175        3.6838  -12.7284  -42.5930 H         1 UNK         0.0600 
    176 H176        2.5802  -13.2071  -45.4129 H         1 UNK         0.0600 
    177 H177        3.8766  -12.0967  -44.9797 H         1 UNK         0.0600 
    178 H178        4.1060  -13.8294  -44.7949 H         1 UNK         0.0600 
    179 H179        1.5439  -11.4817  -44.0523 H         1 UNK         0.3000 
    180 H180       -0.3356  -10.2846  -41.3446 H         1 UNK         0.0600 
    181 H181        0.1644   -8.0270  -42.2777 H         1 UNK         0.0600 
    182 H182        1.6375   -8.6461  -43.0241 H         1 UNK         0.0600 
    183 H183        1.4842   -8.6066  -41.2739 H         1 UNK         0.0600 
    184 H184       -0.1836   -9.8322  -44.2258 H         1 UNK         0.3000 
    185 H185       -2.4348  -12.3947  -45.1146 H         1 UNK         0.0600 
    186 H186       -3.9126  -10.5663  -45.9159 H         1 UNK         0.0600 
    187 H187       -4.0736  -10.7681  -44.1788 H         1 UNK         0.0600 
    188 H188       -3.1357   -9.4240  -44.8187 H         1 UNK         0.0600 
    189 H189       -1.3462  -10.0124  -46.3943 H         1 UNK         0.3000 
    190 H190       -4.0672  -21.1975  -47.9836 H         1 UNK         0.3000 
    191 H191       -5.1665  -23.7551  -48.3200 H         1 UNK         0.0600 
    192 H192       -7.3321  -22.5932  -47.8227 H         1 UNK         0.0600 
    193 H193       -6.3411  -21.6670  -48.9349 H         1 UNK         0.0600 
    194 H194       -6.4483  -21.1873  -47.2410 H         1 UNK         0.0600 
    195 H195       -4.1945  -22.1763  -45.3473 H         1 UNK         0.3000 
    196 H196       -5.6114  -23.7584  -43.4457 H         1 UNK         0.0600 
    197 H197       -2.9251  -22.2993  -43.2757 H         1 UNK         0.0600 
    198 H198       -4.4994  -21.6198  -42.8693 H         1 UNK         0.0600 
    199 H199       -3.8229  -22.9167  -41.8942 H         1 UNK         0.0600 
    200 H200       -2.7901  -24.4677  -45.4452 H         1 UNK         0.3000 
    201 H201       -2.2451  -27.0242  -44.0077 H         1 UNK         0.0600 
    202 H202       -0.6686  -25.5471  -46.1830 H         1 UNK         0.0600 
    203 H203       -0.1825  -27.0422  -45.3953 H         1 UNK         0.0600 
    204 H204       -0.2784  -25.5651  -44.4621 H         1 UNK         0.0600 
    205 H205       -4.4731  -26.0424  -46.0887 H         1 UNK         0.3000 
    206 H206       -5.7366  -26.8267  -47.6893 H         1 UNK         0.0600 
    207 H207       -5.7393  -28.9620  -46.3663 H         1 UNK         0.0600 
    208 H208       -5.9759  -29.2257  -48.0851 H         1 UNK         0.0600 
    209 H209       -4.4134  -29.5661  -47.3601 H         1 UNK         0.0600 
    210 H210       -3.0028  -25.7051  -48.3202 H         1 UNK         0.3000 
    211 H211       -2.3014  -26.8890  -50.9058 H         1 UNK         0.0600 
    212 H212       -0.5496  -25.1954  -50.9280 H         1 UNK         0.0600 
    213 H213       -0.5699  -25.9499  -49.3421 H         1 UNK         0.0600 
    214 H214       -1.2560  -24.3448  -49.5658 H         1 UNK         0.0600 
    215 H215       -4.7217  -26.5796  -51.4044 H         1 UNK         0.3000 
    216 H216       -5.8739  -24.0931  -51.9873 H         1 UNK         0.0600 
    217 H217       -6.4194  -26.8284  -53.2548 H         1 UNK         0.0600 
    218 H218       -7.4938  -25.4366  -53.3362 H         1 UNK         0.0600 
    219 H219       -7.1621  -26.1941  -51.7864 H         1 UNK         0.0600 
    220 H220       -3.7558  -26.0924  -54.0106 H         1 UNK         0.3000 
    221 H221       -4.0728  -24.6456  -56.4616 H         1 UNK         0.0600 
    222 H222       -3.1628  -26.9524  -56.3730 H         1 UNK         0.0600 
    223 H223       -1.7643  -26.3962  -55.4528 H         1 UNK         0.0600 
    224 H224       -1.9956  -25.8709  -57.1161 H         1 UNK         0.0600 
    225 H225       -2.0311  -24.1371  -53.6060 H         1 UNK         0.3000 
    226 H226       -0.3946  -22.0433  -54.8314 H         1 UNK         0.0600 
    227 H227       -0.6884  -22.8459  -51.8861 H         1 UNK         0.0600 
    228 H228        0.5198  -23.4863  -52.9990 H         1 UNK         0.0600 
    229 H229        0.5303  -21.7832  -52.5670 H         1 UNK         0.0600 
    230 H230       -3.1088  -22.2835  -52.4955 H         1 UNK         0.3000 
    231 H231       -3.4688  -19.5368  -52.0154 H         1 UNK         0.0600 
    232 H232       -5.5589  -21.7758  -51.9002 H         1 UNK         0.0600 
    233 H233       -5.6210  -20.2450  -51.0367 H         1 UNK         0.0600 
    234 H234       -4.3886  -21.4307  -50.6279 H         1 UNK         0.0600 
    235 H235       -4.6177  -21.4693  -54.7302 H         1 UNK         0.3000 
    236 H236       -6.4521  -19.5451  -55.8227 H         1 UNK         0.0600 
    237 H237       -6.5091  -21.9405  -56.4453 H         1 UNK         0.0600 
    238 H238       -6.2202  -20.9658  -57.8770 H         1 UNK         0.0600 
    239 H239       -4.8868  -21.8372  -57.1274 H         1 UNK         0.0600 
    240 H240       -2.9868  -19.6449  -55.6994 H         1 UNK         0.3000 
    241 H241       -1.3459  -18.4526  -56.4675 H         1 UNK         0.0600 
    242 H242       -2.0258  -19.5693  -60.0646 H         1 UNK         0.3800 
    243 H243       -2.6984  -20.1923  -58.5791 H         1 UNK         0.3800 
    244 H244       -3.3432  -16.2357  -57.0943 H         1 UNK         0.0800 
    245 H245       -1.6278  -16.0314  -56.8697 H         1 UNK         0.0800 
    246 H246       -0.5239  -15.4877  -54.5756 H         1 UNK         0.0800 
    247 H247       -0.4971  -17.2365  -54.5312 H         1 UNK         0.0800 
@<TRIPOS>BOND
     1    1    2 1    
     2    1  127 1    
     3    1  128 1    
     4    1  129 1    
     5    2    3 2    
     6    2    4 am   BACKBONE|DICT|INTERRES
     7    4    5 1    
     8    4  130 1    
     9    5    6 1    
    10    5   65 1    
    11    5  131 1    
    12    6    7 1    
    13    6  132 1    
    14    6  133 1    
    15    7    8 1    
    16    8    9 1    
    17    8  134 1    
    18    8  135 1    
    19    9   10 ar   
    20    9   14 ar   
    21   10   11 ar   
    22   10  136 1    
    23   11   12 ar   
    24   11  126 1    
    25   12   13 ar   
    26   12  137 1    
    27   13   14 ar   
    28   13   15 1    
    29   14  138 1    
    30   15   16 1    
    31   15  139 1    
    32   15  140 1    
    33   16   17 1    
    34   17   18 1    
    35   17  141 1    
    36   17  142 1    
    37   18   19 1    
    38   18   67 1    
    39   18  143 1    
    40   19   20 am   BACKBONE|DICT|INTERRES
    41   19  144 1    
    42   20   21 2    
    43   20   22 1    
    44   22   23 1    
    45   22   24 1    
    46   22  145 1    
    47   23  146 1    
    48   23  147 1    
    49   23  148 1    
    50   24   25 am   BACKBONE|DICT|INTERRES
    51   24  149 1    
    52   25   26 2    
    53   25   27 1    
    54   27   28 1    
    55   27   29 1    
    56   27  150 1    
    57   28  151 1    
    58   28  152 1    
    59   28  153 1    
    60   29   30 am   BACKBONE|DICT|INTERRES
    61   29  154 1    
    62   30   31 2    
    63   30   32 1    
    64   32   33 1    
    65   32   34 1    
    66   32  155 1    
    67   33  156 1    
    68   33  157 1    
    69   33  158 1    
    70   34   35 am   BACKBONE|DICT|INTERRES
    71   34  159 1    
    72   35   36 2    
    73   35   37 1    
    74   37   38 1    
    75   37   39 1    
    76   37  160 1    
    77   38  161 1    
    78   38  162 1    
    79   38  163 1    
    80   39   40 am   BACKBONE|DICT|INTERRES
    81   39  164 1    
    82   40   41 2    
    83   40   42 1    
    84   42   43 1    
    85   42   44 1    
    86   42  165 1    
    87   43  166 1    
    88   43  167 1    
    89   43  168 1    
    90   44   45 am   BACKBONE|DICT|INTERRES
    91   44  169 1    
    92   45   46 2    
    93   45   47 1    
    94   47   48 1    
    95   47   49 1    
    96   47  170 1    
    97   48  171 1    
    98   48  172 1    
    99   48  173 1    
   100   49   50 am   BACKBONE|DICT|INTERRES
   101   49  174 1    
   102   50   51 2    
   103   50   52 1    
   104   52   53 1    
   105   52   54 1    
   106   52  175 1    
   107   53  176 1    
   108   53  177 1    
   109   53  178 1    
   110   54   55 am   BACKBONE|DICT|INTERRES
   111   54  179 1    
   112   55   56 2    
   113   55   57 1    
   114   57   58 1    
   115   57   59 1    
   116   57  180 1    
   117   58  181 1    
   118   58  182 1    
   119   58  183 1    
   120   59   60 am   BACKBONE|DICT|INTERRES
   121   59  184 1    
   122   60   61 2    
   123   60   62 1    
   124   62   63 1    
   125   62   64 1    
   126   62  185 1    
   127   63  186 1    
   128   63  187 1    
   129   63  188 1    
   130   64   65 am   BACKBONE|DICT|INTERRES
   131   64  189 1    
   132   65   66 2    
   133   67   68 2    
   134   67   69 am   BACKBONE|DICT|INTERRES
   135   69   70 1    
   136   69  190 1    
   137   70   71 1    
   138   70   72 1    
   139   70  191 1    
   140   71  192 1    
   141   71  193 1    
   142   71  194 1    
   143   72   73 2    
   144   72   74 am   BACKBONE|DICT|INTERRES
   145   74   75 1    
   146   74  195 1    
   147   75   76 1    
   148   75   77 1    
   149   75  196 1    
   150   76  197 1    
   151   76  198 1    
   152   76  199 1    
   153   77   78 2    
   154   77   79 am   BACKBONE|DICT|INTERRES
   155   79   80 1    
   156   79  200 1    
   157   80   81 1    
   158   80   82 1    
   159   80  201 1    
   160   81  202 1    
   161   81  203 1    
   162   81  204 1    
   163   82   83 2    
   164   82   84 am   BACKBONE|DICT|INTERRES
   165   84   85 1    
   166   84  205 1    
   167   85   86 1    
   168   85   87 1    
   169   85  206 1    
   170   86  207 1    
   171   86  208 1    
   172   86  209 1    
   173   87   88 2    
   174   87   89 am   BACKBONE|DICT|INTERRES
   175   89   90 1    
   176   89  210 1    
   177   90   91 1    
   178   90   92 1    
   179   90  211 1    
   180   91  212 1    
   181   91  213 1    
   182   91  214 1    
   183   92   93 2    
   184   92   94 am   BACKBONE|DICT|INTERRES
   185   94   95 1    
   186   94  215 1    
   187   95   96 1    
   188   95   97 1    
   189   95  216 1    
   190   96  217 1    
   191   96  218 1    
   192   96  219 1    
   193   97   98 2    
   194   97   99 am   BACKBONE|DICT|INTERRES
   195   99  100 1    
   196   99  220 1    
   197  100  101 1    
   198  100  102 1    
   199  100  221 1    
   200  101  222 1    
   201  101  223 1    
   202  101  224 1    
   203  102  103 2    
   204  102  104 am   BACKBONE|DICT|INTERRES
   205  104  105 1    
   206  104  225 1    
   207  105  106 1    
   208  105  107 1    
   209  105  226 1    
   210  106  227 1    
   211  106  228 1    
   212  106  229 1    
   213  107  108 2    
   214  107  109 am   BACKBONE|DICT|INTERRES
   215  109  110 1    
   216  109  230 1    
   217  110  111 1    
   218  110  112 1    
   219  110  231 1    
   220  111  232 1    
   221  111  233 1    
   222  111  234 1    
   223  112  113 2    
   224  112  114 am   BACKBONE|DICT|INTERRES
   225  114  115 1    
   226  114  235 1    
   227  115  116 1    
   228  115  117 1    
   229  115  236 1    
   230  116  237 1    
   231  116  238 1    
   232  116  239 1    
   233  117  118 2    
   234  117  119 am   BACKBONE|DICT|INTERRES
   235  119  120 1    
   236  119  240 1    
   237  120  121 1    
   238  120  124 1    
   239  120  241 1    
   240  121  122 am   BACKBONE|DICT|INTERRES
   241  121  123 2    
   242  122  242 1    
   243  122  243 1    
   244  124  125 1    
   245  124  244 1    
   246  124  245 1    
   247  125  126 1    
   248  126  246 1    
   249  126  247 1    
@<TRIPOS>SUBSTRUCTURE
     1 UNK         1 GROUP             0       ****    0 ROOT    
