@<TRIPOS>MOLECULE
3R540
247   249    1
SMALL
USER_CHARGES


@<TRIPOS>ATOM
      1 CA         -0.2074   -9.7694  -50.6153 C.3       0 UNK        -0.1800 
      2 C          -0.3388  -11.2413  -50.2509 C.2       0 UNK         0.5000 
      3 O           0.5990  -12.0096  -50.4617 O.2       0 UNK        -0.5000 
      4 N          -1.4952  -11.6329  -49.7043 N.am      1 UNK        -0.5000 
      5 CA         -1.8093  -13.0060  -49.2944 C.3       1 UNK         0.1400 
      6 C6         -2.4713  -13.8151  -50.4426 C.3       23 UNK        -0.0398 
      7 S7         -2.0984  -15.5949  -50.3404 S.3       23 UNK        -0.2404 
      8 C8         -0.5194  -15.6631  -51.2331 C.3       23 UNK        -0.0205 
      9 C9          0.2165  -16.9580  -50.9360 C.ar      23 UNK        -0.0193 
     10 C10         0.1119  -18.0493  -51.8022 C.ar      23 UNK        -0.1150 
     11 C11         0.8227  -19.2251  -51.5453 C.ar      23 UNK        -0.0193 
     12 C12         1.6289  -19.3083  -50.4076 C.ar      23 UNK        -0.1150 
     13 C13         1.7242  -18.2314  -49.5204 C.ar      23 UNK        -0.0193 
     14 C14         1.0179  -17.0572  -49.7954 C.ar      23 UNK        -0.1150 
     15 C15         2.6086  -18.3024  -48.2804 C.3       23 UNK        -0.0205 
     16 S16         2.5363  -19.8931  -47.3900 S.3       23 UNK        -0.2404 
     17 C17         0.7669  -20.0416  -46.9586 C.3       23 UNK        -0.0398 
     18 CA          0.2103  -21.4590  -47.2544 C.3       11 UNK         0.1400 
     19 N           0.9613  -22.4933  -46.5528 N.am      11 UNK        -0.5000 
     20 C           1.4282  -23.6214  -47.0988 C.2       10 UNK         0.5000 
     21 O           1.2663  -23.9284  -48.2798 O.2       10 UNK        -0.5000 
     22 CA          2.2244  -24.5705  -46.1773 C.3       10 UNK         0.1400 
     23 CB          3.7214  -24.5167  -46.5201 C.3       10 UNK        -0.1800 
     24 N           2.0620  -24.2883  -44.7482 N.am      10 UNK        -0.5000 
     25 C           0.9253  -24.4593  -44.0617 C.2       9 UNK         0.5000 
     26 O          -0.1126  -24.8916  -44.5596 O.2       9 UNK        -0.5000 
     27 CA          0.9295  -24.0018  -42.5914 C.3       9 UNK         0.1400 
     28 CB          1.4312  -25.1274  -41.6759 C.3       9 UNK        -0.1800 
     29 N           1.7098  -22.7840  -42.3449 N.am      9 UNK        -0.5000 
     30 C           1.4809  -21.5982  -42.9247 C.2       8 UNK         0.5000 
     31 O           0.6237  -21.4179  -43.7916 O.2       8 UNK        -0.5000 
     32 CA          2.3159  -20.4120  -42.4273 C.3       8 UNK         0.1400 
     33 CB          2.8814  -19.5797  -43.5894 C.3       8 UNK        -0.1800 
     34 N           1.4519  -19.5758  -41.6007 N.am      8 UNK        -0.5000 
     35 C           1.3421  -19.6897  -40.2700 C.2       7 UNK         0.5000 
     36 O           2.0378  -20.4606  -39.6062 O.2       7 UNK        -0.5000 
     37 CA          0.2614  -18.8552  -39.5453 C.3       7 UNK         0.1400 
     38 CB          0.8185  -18.1486  -38.2914 C.3       7 UNK        -0.1800 
     39 N          -0.4817  -17.9168  -40.3958 N.am      7 UNK        -0.5000 
     40 C          -0.0259  -16.8097  -40.9976 C.2       6 UNK         0.5000 
     41 O           1.1338  -16.3997  -40.9227 O.2       6 UNK        -0.5000 
     42 CA         -1.0578  -16.0423  -41.8470 C.3       6 UNK         0.1400 
     43 CB         -1.3079  -14.6437  -41.2631 C.3       6 UNK        -0.1800 
     44 N          -0.6623  -15.9154  -43.2499 N.am      6 UNK        -0.5000 
     45 C          -0.3171  -16.9243  -44.0631 C.2       5 UNK         0.5000 
     46 O          -0.2784  -18.1038  -43.7128 O.2       5 UNK        -0.5000 
     47 CA          0.0306  -16.5668  -45.5165 C.3       5 UNK         0.1400 
     48 CB         -1.2105  -16.7007  -46.4111 C.3       5 UNK        -0.1800 
     49 N           0.5684  -15.2121  -45.6426 N.am      5 UNK        -0.5000 
     50 C           1.8758  -14.9183  -45.6760 C.2       4 UNK         0.5000 
     51 O           2.7704  -15.7610  -45.6101 O.2       4 UNK        -0.5000 
     52 CA          2.2562  -13.4315  -45.8192 C.3       4 UNK         0.1400 
     53 CB          2.3399  -13.0467  -47.3049 C.3       4 UNK        -0.1800 
     54 N           1.3211  -12.5300  -45.1472 N.am      4 UNK        -0.5000 
     55 C           1.1630  -12.4374  -43.8194 C.2       3 UNK         0.5000 
     56 O           1.8540  -13.0477  -43.0045 O.2       3 UNK        -0.5000 
     57 CA          0.0265  -11.5236  -43.3147 C.3       3 UNK         0.1400 
     58 CB          0.5850  -10.1530  -42.9032 C.3       3 UNK        -0.1800 
     59 N          -1.0674  -11.3218  -44.2723 N.am      3 UNK        -0.5000 
     60 C          -1.8322  -12.2843  -44.8074 C.2       2 UNK         0.5000 
     61 O          -1.6602  -13.4855  -44.5957 O.2       2 UNK        -0.5000 
     62 CA         -2.9220  -11.8396  -45.7964 C.3       2 UNK         0.1400 
     63 CB         -3.3980  -10.3886  -45.5845 C.3       2 UNK        -0.1800 
     64 N          -2.3845  -11.9725  -47.1473 N.am      2 UNK        -0.5000 
     65 C          -2.5990  -13.0114  -47.9664 C.2       1 UNK         0.5000 
     66 O          -3.3735  -13.9318  -47.7048 O.2       1 UNK        -0.5000 
     67 C          -1.2704  -21.5798  -46.8551 C.2       11 UNK         0.5000 
     68 O          -2.1127  -21.8642  -47.7085 O.2       11 UNK        -0.5000 
     69 N          -1.5586  -21.3558  -45.5661 N.am      12 UNK        -0.5000 
     70 CA         -2.9080  -21.2447  -45.0218 C.3       12 UNK         0.1400 
     71 CB         -2.8705  -20.4180  -43.7264 C.3       12 UNK        -0.1800 
     72 C          -3.5759  -22.6071  -44.7890 C.2       12 UNK         0.5000 
     73 O          -4.6429  -22.8558  -45.3491 O.2       12 UNK        -0.5000 
     74 N          -2.9535  -23.4635  -43.9654 N.am      13 UNK        -0.5000 
     75 CA         -3.5257  -24.7486  -43.5386 C.3       13 UNK         0.1400 
     76 CB         -2.7273  -25.3185  -42.3559 C.3       13 UNK        -0.1800 
     77 C          -3.6315  -25.7733  -44.6832 C.2       13 UNK         0.5000 
     78 O          -4.5930  -26.5409  -44.7305 O.2       13 UNK        -0.5000 
     79 N          -2.6674  -25.7269  -45.6107 N.am      14 UNK        -0.5000 
     80 CA         -2.6574  -26.4826  -46.8639 C.3       14 UNK         0.1400 
     81 CB         -1.2400  -26.4242  -47.4530 C.3       14 UNK        -0.1800 
     82 C          -3.6841  -25.9749  -47.8999 C.2       14 UNK         0.5000 
     83 O          -3.9120  -26.6595  -48.8973 O.2       14 UNK        -0.5000 
     84 N          -4.2590  -24.7845  -47.6632 N.am      15 UNK        -0.5000 
     85 CA         -5.2332  -24.0653  -48.4920 C.3       15 UNK         0.1400 
     86 CB         -6.5360  -24.8747  -48.6550 C.3       15 UNK        -0.1800 
     87 C          -4.6732  -23.5720  -49.8412 C.2       15 UNK         0.5000 
     88 O          -5.4485  -23.1669  -50.7071 O.2       15 UNK        -0.5000 
     89 N          -3.3425  -23.5622  -49.9922 N.am      16 UNK        -0.5000 
     90 CA         -2.6405  -23.0907  -51.1852 C.3       16 UNK         0.1400 
     91 CB         -1.1601  -23.4821  -51.0851 C.3       16 UNK        -0.1800 
     92 C          -2.8014  -21.5750  -51.3956 C.2       16 UNK         0.5000 
     93 O          -2.9393  -21.1317  -52.5359 O.2       16 UNK        -0.5000 
     94 N          -2.8300  -20.8190  -50.2898 N.am      17 UNK        -0.5000 
     95 CA         -3.1264  -19.3878  -50.2621 C.3       17 UNK         0.1400 
     96 CB         -2.7878  -18.8319  -48.8717 C.3       17 UNK        -0.1800 
     97 C          -4.5916  -19.0861  -50.6206 C.2       17 UNK         0.5000 
     98 O          -4.8543  -18.1403  -51.3620 O.2       17 UNK        -0.5000 
     99 N          -5.5150  -19.9139  -50.1105 N.am      18 UNK        -0.5000 
    100 CA        -6.9552  -19.8083  -50.3556 C.3       18 UNK         0.1400 
    101 CB        -7.7110  -20.7131  -49.3701 C.3       18 UNK        -0.1800 
    102 C         -7.3287  -20.1432  -51.8109 C.2       18 UNK         0.5000 
    103 O         -8.1591  -19.4534  -52.4031 O.2       18 UNK        -0.5000 
    104 N         -6.6804  -21.1742  -52.3686 N.am      19 UNK        -0.5000 
    105 CA        -6.7934  -21.5760  -53.7711 C.3       19 UNK         0.1400 
    106 CB        -6.2292  -22.9982  -53.9188 C.3       19 UNK        -0.1800 
    107 C         -6.0696  -20.6197  -54.7403 C.2       19 UNK         0.5000 
    108 O         -6.3553  -20.6540  -55.9378 O.2       19 UNK        -0.5000 
    109 N         -5.1333  -19.8156  -54.2120 N.am      20 UNK        -0.5000 
    110 CA        -4.1968  -18.9393  -54.9237 C.3       20 UNK         0.1400 
    111 CB        -4.9386  -17.7827  -55.6238 C.3       20 UNK        -0.1800 
    112 C         -3.2711  -19.7346  -55.8686 C.2       20 UNK         0.5000 
    113 O         -2.9728  -19.2905  -56.9794 O.2       20 UNK        -0.5000 
    114 N         -2.8296  -20.9094  -55.3965 N.am      21 UNK        -0.5000 
    115 CA        -2.0471  -21.8997  -56.1418 C.3       21 UNK         0.1400 
    116 CB        -1.9217  -23.1687  -55.2848 C.3       21 UNK        -0.1800 
    117 C         -0.6551  -21.4006  -56.5732 C.2       21 UNK         0.5000 
    118 O         -0.1010  -21.9041  -57.5511 O.2       21 UNK        -0.5000 
    119 N         -0.1318  -20.4124  -55.8415 N.am      22 UNK        -0.5000 
    120 CA         1.1289  -19.7141  -56.1245 C.3       22 UNK         0.1400 
    121 C          0.9947  -18.5831  -57.1884 C.2       22 UNK         0.5000 
    122 N         -0.1943  -18.2604  -57.6875 N.am      22 UNK        -0.7600 
    123 O          1.9958  -17.9893  -57.5797 O.2       22 UNK        -0.5000 
    124 C124        1.7825  -19.1854  -54.8218 C.3       23 UNK        -0.0398 
    125 S125        2.1399  -20.5175  -53.6223 S.3       23 UNK        -0.2404 
    126 C126        0.7207  -20.4149  -52.4842 C.3       23 UNK        -0.0205 
    127 H127       -1.1099   -9.2081  -50.3717 H         1 UNK         0.0600 
    128 H128       -0.0192   -9.6634  -51.6837 H         1 UNK         0.0600 
    129 H129        0.6272   -9.3226  -50.0751 H         1 UNK         0.0600 
    130 H130       -2.2398  -10.9605  -49.5756 H         1 UNK         0.3000 
    131 H131       -0.8669  -13.4946  -49.0376 H         1 UNK         0.0600 
    132 H132       -3.5534  -13.6745  -50.4536 H         1 UNK         0.0800 
    133 H133       -2.1212  -13.4602  -51.4130 H         1 UNK         0.0800 
    134 H134        0.1066  -14.8167  -50.9454 H         1 UNK         0.0800 
    135 H135       -0.7030  -15.5612  -52.3037 H         1 UNK         0.0800 
    136 H136       -0.5178  -17.9790  -52.6777 H         1 UNK         0.1150 
    137 H137        2.1838  -20.2157  -50.2154 H         1 UNK         0.1150 
    138 H138        1.0947  -16.2127  -49.1244 H         1 UNK         0.1150 
    139 H139        2.3520  -17.5053  -47.5837 H         1 UNK         0.0800 
    140 H140        3.6405  -18.1216  -48.5831 H         1 UNK         0.0800 
    141 H141        0.1970  -19.2917  -47.5057 H         1 UNK         0.0800 
    142 H142        0.6598  -19.7877  -45.9042 H         1 UNK         0.0800 
    143 H143        0.2710  -21.6149  -48.3337 H         1 UNK         0.0600 
    144 H144        1.1060  -22.3337  -45.5635 H         1 UNK         0.3000 
    145 H145        1.8641  -25.5838  -46.3665 H         1 UNK         0.0600 
    146 H146        3.8918  -24.7604  -47.5696 H         1 UNK         0.0600 
    147 H147        4.2894  -25.2328  -45.9259 H         1 UNK         0.0600 
    148 H148        4.1380  -23.5243  -46.3424 H         1 UNK         0.0600 
    149 H149        2.8630  -23.9083  -44.2655 H         1 UNK         0.3000 
    150 H150       -0.1034  -23.7798  -42.3179 H         1 UNK         0.0600 
    151 H151        2.4777  -25.3673  -41.8682 H         1 UNK         0.0600 
    152 H152        0.8520  -26.0399  -41.8249 H         1 UNK         0.0600 
    153 H153        1.3365  -24.8531  -40.6251 H         1 UNK         0.0600 
    154 H154        2.4142  -22.8422  -41.6231 H         1 UNK         0.3000 
    155 H155        3.1629  -20.7855  -41.8480 H         1 UNK         0.0600 
    156 H156        3.5109  -18.7700  -43.2204 H         1 UNK         0.0600 
    157 H157        2.0957  -19.1323  -44.1958 H         1 UNK         0.0600 
    158 H158        3.4938  -20.1949  -44.2496 H         1 UNK         0.0600 
    159 H159        0.8104  -18.9718  -42.1036 H         1 UNK         0.3000 
    160 H160       -0.4783  -19.5796  -39.2017 H         1 UNK         0.0600 
    161 H161        1.6273  -17.4602  -38.5373 H         1 UNK         0.0600 
    162 H162        1.2159  -18.8720  -37.5785 H         1 UNK         0.0600 
    163 H163        0.0406  -17.5842  -37.7773 H         1 UNK         0.0600 
    164 H164       -1.4459  -18.1727  -40.5581 H         1 UNK         0.3000 
    165 H165       -2.0041  -16.5866  -41.8330 H         1 UNK         0.0600 
    166 H166       -2.0589  -14.1005  -41.8370 H         1 UNK         0.0600 
    167 H167       -1.6677  -14.7093  -40.2356 H         1 UNK         0.0600 
    168 H168       -0.3941  -14.0491  -41.2518 H         1 UNK         0.0600 
    169 H169       -0.7262  -14.9856  -43.6474 H         1 UNK         0.3000 
    170 H170        0.7685  -17.2938  -45.8577 H         1 UNK         0.0600 
    171 H171       -0.9609  -16.5385  -47.4597 H         1 UNK         0.0600 
    172 H172       -1.9847  -15.9825  -46.1375 H         1 UNK         0.0600 
    173 H173       -1.6446  -17.6980  -46.3295 H         1 UNK         0.0600 
    174 H174       -0.1072  -14.4579  -45.6297 H         1 UNK         0.3000 
    175 H175        3.2432  -13.2948  -45.3722 H         1 UNK         0.0600 
    176 H176        3.0479  -13.6855  -47.8346 H         1 UNK         0.0600 
    177 H177        1.3750  -13.1457  -47.8037 H         1 UNK         0.0600 
    178 H178        2.6774  -12.0176  -47.4293 H         1 UNK         0.0600 
    179 H179        0.7232  -11.9714  -45.7364 H         1 UNK         0.3000 
    180 H180       -0.4005  -11.9943  -42.4281 H         1 UNK         0.0600 
    181 H181        0.9975   -9.6142  -43.7571 H         1 UNK         0.0600 
    182 H182        1.3825  -10.2604  -42.1664 H         1 UNK         0.0600 
    183 H183       -0.1880   -9.5300  -42.4529 H         1 UNK         0.0600 
    184 H184       -1.2724  -10.3631  -44.5138 H         1 UNK         0.3000 
    185 H185       -3.7806  -12.4988  -45.6522 H         1 UNK         0.0600 
    186 H186       -3.7376  -10.2316  -44.5597 H         1 UNK         0.0600 
    187 H187       -2.6165   -9.6578  -45.7956 H         1 UNK         0.0600 
    188 H188       -4.2402  -10.1615  -46.2384 H         1 UNK         0.0600 
    189 H189       -1.7149  -11.2734  -47.4342 H         1 UNK         0.3000 
    190 H190       -0.7952  -21.2060  -44.9086 H         1 UNK         0.3000 
    191 H191       -3.5247  -20.6990  -45.7396 H         1 UNK         0.0600 
    192 H192       -2.5840  -19.3875  -43.9334 H         1 UNK         0.0600 
    193 H193       -3.8504  -20.3884  -43.2482 H         1 UNK         0.0600 
    194 H194       -2.1606  -20.8222  -43.0037 H         1 UNK         0.0600 
    195 H195       -2.0553  -23.2088  -43.5837 H         1 UNK         0.3000 
    196 H196       -4.5404  -24.5519  -43.1855 H         1 UNK         0.0600 
    197 H197       -3.2244  -26.1984  -41.9459 H         1 UNK         0.0600 
    198 H198       -2.6378  -24.5917  -41.5484 H         1 UNK         0.0600 
    199 H199       -1.7246  -25.6257  -42.6490 H         1 UNK         0.0600 
    200 H200       -1.8601  -25.1386  -45.4257 H         1 UNK         0.3000 
    201 H201       -2.8981  -27.5240  -46.6414 H         1 UNK         0.0600 
    202 H202       -1.1645  -27.0265  -48.3591 H         1 UNK         0.0600 
    203 H203       -0.5010  -26.8042  -46.7473 H         1 UNK         0.0600 
    204 H204       -0.9622  -25.4030  -47.7140 H         1 UNK         0.0600 
    205 H205       -4.0151  -24.3085  -46.8029 H         1 UNK         0.3000 
    206 H206       -5.4831  -23.1617  -47.9348 H         1 UNK         0.0600 
    207 H207       -6.9201  -25.2008  -47.6884 H         1 UNK         0.0600 
    208 H208       -7.3150  -24.2741  -49.1256 H         1 UNK         0.0600 
    209 H209       -6.3908  -25.7589  -49.2758 H         1 UNK         0.0600 
    210 H210       -2.7732  -23.8462  -49.2084 H         1 UNK         0.3000 
    211 H211       -3.0713  -23.5963  -52.0520 H         1 UNK         0.0600 
    212 H212       -0.6580  -22.9629  -50.2677 H         1 UNK         0.0600 
    213 H213       -0.6318  -23.2429  -52.0077 H         1 UNK         0.0600 
    214 H214       -1.0451  -24.5534  -50.9189 H         1 UNK         0.0600 
    215 H215       -2.6795  -21.2705  -49.3906 H         1 UNK         0.3000 
    216 H216       -2.4952  -18.8866  -50.9980 H         1 UNK         0.0600 
    217 H217       -3.1061  -17.7948  -48.7688 H         1 UNK         0.0600 
    218 H218       -1.7133  -18.8588  -48.7000 H         1 UNK         0.0600 
    219 H219       -3.2765  -19.3960  -48.0771 H         1 UNK         0.0600 
    220 H220       -5.2057  -20.6847  -49.5389 H         1 UNK         0.3000 
    221 H221       -7.2547  -18.7755  -50.1647 H         1 UNK         0.0600 
    222 H222       -7.4573  -21.7641  -49.5075 H         1 UNK         0.0600 
    223 H223       -7.4877  -20.4459  -48.3370 H         1 UNK         0.0600 
    224 H224       -8.7892  -20.6178  -49.5042 H         1 UNK         0.0600 
    225 H225       -6.0749  -21.7454  -51.7839 H         1 UNK         0.3000 
    226 H226       -7.8501  -21.5925  -54.0455 H         1 UNK         0.0600 
    227 H227       -6.3193  -23.3528  -54.9463 H         1 UNK         0.0600 
    228 H228       -5.1734  -23.0399  -53.6475 H         1 UNK         0.0600 
    229 H229       -6.7651  -23.7032  -53.2830 H         1 UNK         0.0600 
    230 H230       -4.9738  -19.8908  -53.2167 H         1 UNK         0.3000 
    231 H231       -3.5511  -18.5027  -54.1602 H         1 UNK         0.0600 
    232 H232       -5.5614  -18.1362  -56.4458 H         1 UNK         0.0600 
    233 H233       -4.2330  -17.0608  -56.0363 H         1 UNK         0.0600 
    234 H234       -5.5789  -17.2464  -54.9233 H         1 UNK         0.0600 
    235 H235       -3.0597  -21.1458  -54.4346 H         1 UNK         0.3000 
    236 H236       -2.6025  -22.1475  -57.0485 H         1 UNK         0.0600 
    237 H237       -1.3854  -22.9715  -54.3561 H         1 UNK         0.0600 
    238 H238       -2.9019  -23.5707  -55.0274 H         1 UNK         0.0600 
    239 H239       -1.3794  -23.9502  -55.8184 H         1 UNK         0.0600 
    240 H240       -0.6767  -20.0597  -55.0708 H         1 UNK         0.3000 
    241 H241        1.8207  -20.4385  -56.5586 H         1 UNK         0.0600 
    242 H242       -1.0401  -18.7386  -57.3983 H         1 UNK         0.3800 
    243 H243       -0.2534  -17.5298  -58.3789 H         1 UNK         0.3800 
    244 H244        1.1585  -18.4200  -54.3615 H         1 UNK         0.0800 
    245 H245        2.7325  -18.6980  -55.0474 H         1 UNK         0.0800 
    246 H246       -0.2160  -20.3911  -53.0413 H         1 UNK         0.0800 
    247 H247        0.6957  -21.3276  -51.8895 H         1 UNK         0.0800 
@<TRIPOS>BOND
     1    1    2 1    
     2    1  127 1    
     3    1  128 1    
     4    1  129 1    
     5    2    3 2    
     6    2    4 am   BACKBONE|DICT|INTERRES
     7    4    5 1    
     8    4  130 1    
     9    5    6 1    
    10    5   65 1    
    11    5  131 1    
    12    6    7 1    
    13    6  132 1    
    14    6  133 1    
    15    7    8 1    
    16    8    9 1    
    17    8  134 1    
    18    8  135 1    
    19    9   10 ar   
    20    9   14 ar   
    21   10   11 ar   
    22   10  136 1    
    23   11   12 ar   
    24   11  126 1    
    25   12   13 ar   
    26   12  137 1    
    27   13   14 ar   
    28   13   15 1    
    29   14  138 1    
    30   15   16 1    
    31   15  139 1    
    32   15  140 1    
    33   16   17 1    
    34   17   18 1    
    35   17  141 1    
    36   17  142 1    
    37   18   19 1    
    38   18   67 1    
    39   18  143 1    
    40   19   20 am   BACKBONE|DICT|INTERRES
    41   19  144 1    
    42   20   21 2    
    43   20   22 1    
    44   22   23 1    
    45   22   24 1    
    46   22  145 1    
    47   23  146 1    
    48   23  147 1    
    49   23  148 1    
    50   24   25 am   BACKBONE|DICT|INTERRES
    51   24  149 1    
    52   25   26 2    
    53   25   27 1    
    54   27   28 1    
    55   27   29 1    
    56   27  150 1    
    57   28  151 1    
    58   28  152 1    
    59   28  153 1    
    60   29   30 am   BACKBONE|DICT|INTERRES
    61   29  154 1    
    62   30   31 2    
    63   30   32 1    
    64   32   33 1    
    65   32   34 1    
    66   32  155 1    
    67   33  156 1    
    68   33  157 1    
    69   33  158 1    
    70   34   35 am   BACKBONE|DICT|INTERRES
    71   34  159 1    
    72   35   36 2    
    73   35   37 1    
    74   37   38 1    
    75   37   39 1    
    76   37  160 1    
    77   38  161 1    
    78   38  162 1    
    79   38  163 1    
    80   39   40 am   BACKBONE|DICT|INTERRES
    81   39  164 1    
    82   40   41 2    
    83   40   42 1    
    84   42   43 1    
    85   42   44 1    
    86   42  165 1    
    87   43  166 1    
    88   43  167 1    
    89   43  168 1    
    90   44   45 am   BACKBONE|DICT|INTERRES
    91   44  169 1    
    92   45   46 2    
    93   45   47 1    
    94   47   48 1    
    95   47   49 1    
    96   47  170 1    
    97   48  171 1    
    98   48  172 1    
    99   48  173 1    
   100   49   50 am   BACKBONE|DICT|INTERRES
   101   49  174 1    
   102   50   51 2    
   103   50   52 1    
   104   52   53 1    
   105   52   54 1    
   106   52  175 1    
   107   53  176 1    
   108   53  177 1    
   109   53  178 1    
   110   54   55 am   BACKBONE|DICT|INTERRES
   111   54  179 1    
   112   55   56 2    
   113   55   57 1    
   114   57   58 1    
   115   57   59 1    
   116   57  180 1    
   117   58  181 1    
   118   58  182 1    
   119   58  183 1    
   120   59   60 am   BACKBONE|DICT|INTERRES
   121   59  184 1    
   122   60   61 2    
   123   60   62 1    
   124   62   63 1    
   125   62   64 1    
   126   62  185 1    
   127   63  186 1    
   128   63  187 1    
   129   63  188 1    
   130   64   65 am   BACKBONE|DICT|INTERRES
   131   64  189 1    
   132   65   66 2    
   133   67   68 2    
   134   67   69 am   BACKBONE|DICT|INTERRES
   135   69   70 1    
   136   69  190 1    
   137   70   71 1    
   138   70   72 1    
   139   70  191 1    
   140   71  192 1    
   141   71  193 1    
   142   71  194 1    
   143   72   73 2    
   144   72   74 am   BACKBONE|DICT|INTERRES
   145   74   75 1    
   146   74  195 1    
   147   75   76 1    
   148   75   77 1    
   149   75  196 1    
   150   76  197 1    
   151   76  198 1    
   152   76  199 1    
   153   77   78 2    
   154   77   79 am   BACKBONE|DICT|INTERRES
   155   79   80 1    
   156   79  200 1    
   157   80   81 1    
   158   80   82 1    
   159   80  201 1    
   160   81  202 1    
   161   81  203 1    
   162   81  204 1    
   163   82   83 2    
   164   82   84 am   BACKBONE|DICT|INTERRES
   165   84   85 1    
   166   84  205 1    
   167   85   86 1    
   168   85   87 1    
   169   85  206 1    
   170   86  207 1    
   171   86  208 1    
   172   86  209 1    
   173   87   88 2    
   174   87   89 am   BACKBONE|DICT|INTERRES
   175   89   90 1    
   176   89  210 1    
   177   90   91 1    
   178   90   92 1    
   179   90  211 1    
   180   91  212 1    
   181   91  213 1    
   182   91  214 1    
   183   92   93 2    
   184   92   94 am   BACKBONE|DICT|INTERRES
   185   94   95 1    
   186   94  215 1    
   187   95   96 1    
   188   95   97 1    
   189   95  216 1    
   190   96  217 1    
   191   96  218 1    
   192   96  219 1    
   193   97   98 2    
   194   97   99 am   BACKBONE|DICT|INTERRES
   195   99  100 1    
   196   99  220 1    
   197  100  101 1    
   198  100  102 1    
   199  100  221 1    
   200  101  222 1    
   201  101  223 1    
   202  101  224 1    
   203  102  103 2    
   204  102  104 am   BACKBONE|DICT|INTERRES
   205  104  105 1    
   206  104  225 1    
   207  105  106 1    
   208  105  107 1    
   209  105  226 1    
   210  106  227 1    
   211  106  228 1    
   212  106  229 1    
   213  107  108 2    
   214  107  109 am   BACKBONE|DICT|INTERRES
   215  109  110 1    
   216  109  230 1    
   217  110  111 1    
   218  110  112 1    
   219  110  231 1    
   220  111  232 1    
   221  111  233 1    
   222  111  234 1    
   223  112  113 2    
   224  112  114 am   BACKBONE|DICT|INTERRES
   225  114  115 1    
   226  114  235 1    
   227  115  116 1    
   228  115  117 1    
   229  115  236 1    
   230  116  237 1    
   231  116  238 1    
   232  116  239 1    
   233  117  118 2    
   234  117  119 am   BACKBONE|DICT|INTERRES
   235  119  120 1    
   236  119  240 1    
   237  120  121 1    
   238  120  124 1    
   239  120  241 1    
   240  121  122 am   BACKBONE|DICT|INTERRES
   241  121  123 2    
   242  122  242 1    
   243  122  243 1    
   244  124  125 1    
   245  124  244 1    
   246  124  245 1    
   247  125  126 1    
   248  126  246 1    
   249  126  247 1    
@<TRIPOS>SUBSTRUCTURE
     1 UNK         1 GROUP             0       ****    0 ROOT    
