@<TRIPOS>MOLECULE
3R540
247   249    1
SMALL
USER_CHARGES


@<TRIPOS>ATOM
      1 CA         -0.0713   -9.7126  -47.4099 C.3       0 UNK        -0.1800 
      2 C           0.9387  -10.4857  -48.2460 C.2       0 UNK         0.5000 
      3 O           0.7766  -10.5928  -49.4615 O.2       0 UNK        -0.5000 
      4 N           1.9770  -11.0219  -47.6012 N.am      1 UNK        -0.5000 
      5 CA          3.0431  -11.8173  -48.2048 C.3       1 UNK         0.1400 
      6 C6          2.5705  -13.2363  -48.6340 C.3       23 UNK        -0.0398 
      7 S7          1.9274  -14.2447  -47.2503 S.3       23 UNK        -0.2404 
      8 C8          0.2352  -14.6234  -47.7954 C.3       23 UNK        -0.0205 
      9 C9          0.1813  -15.7634  -48.8032 C.ar      23 UNK        -0.0193 
     10 C10        -0.5579  -15.6236  -49.9798 C.ar      23 UNK        -0.1150 
     11 C11        -0.6509  -16.6817  -50.8867 C.ar      23 UNK        -0.0193 
     12 C12        -0.0023  -17.8877  -50.6064 C.ar      23 UNK        -0.1150 
     13 C13         0.7430  -18.0492  -49.4340 C.ar      23 UNK        -0.0193 
     14 C14         0.8323  -16.9737  -48.5411 C.ar      23 UNK        -0.1150 
     15 C15         1.4301  -19.3979  -49.2015 C.3       23 UNK        -0.0205 
     16 S16         2.2775  -19.6487  -47.5967 S.3       23 UNK        -0.2404 
     17 C17         0.9236  -19.5793  -46.3736 C.3       23 UNK        -0.0398 
     18 CA          0.2470  -20.9490  -46.1211 C.3       11 UNK         0.1400 
     19 N          -0.3007  -21.0462  -44.7658 N.am      11 UNK        -0.5000 
     20 C          -0.8832  -22.1350  -44.2425 C.2       10 UNK         0.5000 
     21 O          -0.9560  -23.2207  -44.8161 O.2       10 UNK        -0.5000 
     22 CA         -1.5555  -21.9624  -42.8711 C.3       10 UNK         0.1400 
     23 CB         -0.5326  -22.1072  -41.7358 C.3       10 UNK        -0.1800 
     24 N          -2.2456  -20.6756  -42.7669 N.am      10 UNK        -0.5000 
     25 C          -3.3554  -20.3635  -43.4526 C.2       9 UNK         0.5000 
     26 O          -3.9334  -21.1442  -44.2082 O.2       9 UNK        -0.5000 
     27 CA         -3.8836  -18.9255  -43.3026 C.3       9 UNK         0.1400 
     28 CB         -4.7387  -18.7915  -42.0339 C.3       9 UNK        -0.1800 
     29 N          -2.8112  -17.9302  -43.2734 N.am      9 UNK        -0.5000 
     30 C          -2.0009  -17.6559  -44.3057 C.2       8 UNK         0.5000 
     31 O          -2.0875  -18.1976  -45.4069 O.2       8 UNK        -0.5000 
     32 CA         -0.8713  -16.6417  -44.0444 C.3       8 UNK         0.1400 
     33 CB         -1.3771  -15.2063  -44.2532 C.3       8 UNK        -0.1800 
     34 N          -0.2890  -16.7527  -42.7037 N.am      8 UNK        -0.5000 
     35 C           0.3077  -17.8460  -42.2105 C.2       7 UNK         0.5000 
     36 O           0.4220  -18.8998  -42.8391 O.2       7 UNK        -0.5000 
     37 CA          0.8221  -17.7336  -40.7657 C.3       7 UNK         0.1400 
     38 CB          0.1026  -18.7051  -39.8100 C.3       7 UNK        -0.1800 
     39 N           2.2800  -17.8437  -40.7032 N.am      7 UNK        -0.5000 
     40 C           3.0663  -18.9229  -40.8446 C.2       6 UNK         0.5000 
     41 O           2.6498  -20.0775  -40.9385 O.2       6 UNK        -0.5000 
     42 CA          4.5908  -18.6720  -40.8776 C.3       6 UNK         0.1400 
     43 CB          5.2740  -19.4974  -41.9826 C.3       6 UNK        -0.1800 
     44 N           4.9077  -17.2572  -41.0881 N.am      6 UNK        -0.5000 
     45 C           5.2237  -16.3766  -40.1274 C.2       5 UNK         0.5000 
     46 O           5.3618  -16.6820  -38.9428 O.2       5 UNK        -0.5000 
     47 CA          5.3822  -14.8983  -40.5473 C.3       5 UNK         0.1400 
     48 CB          6.8662  -14.5509  -40.7394 C.3       5 UNK        -0.1800 
     49 N           4.6558  -14.5524  -41.7714 N.am      5 UNK        -0.5000 
     50 C           3.3242  -14.5945  -41.9234 C.2       4 UNK         0.5000 
     51 O           2.5426  -14.8426  -41.0054 O.2       4 UNK        -0.5000 
     52 CA          2.7734  -14.3952  -43.3493 C.3       4 UNK         0.1400 
     53 CB          2.2417  -12.9664  -43.5284 C.3       4 UNK        -0.1800 
     54 N           3.7389  -14.6936  -44.4121 N.am      4 UNK        -0.5000 
     55 C           4.3221  -15.8848  -44.6201 C.2       3 UNK         0.5000 
     56 O           4.1278  -16.8611  -43.8966 O.2       3 UNK        -0.5000 
     57 CA          5.2999  -16.0181  -45.8051 C.3       3 UNK         0.1400 
     58 CB          4.7527  -16.9997  -46.8519 C.3       3 UNK        -0.1800 
     59 N           5.6105  -14.7501  -46.4666 N.am      3 UNK        -0.5000 
     60 C           6.4221  -13.7979  -45.9850 C.2       2 UNK         0.5000 
     61 O           7.0110  -13.8853  -44.9074 O.2       2 UNK        -0.5000 
     62 CA          6.5768  -12.5250  -46.8443 C.3       2 UNK         0.1400 
     63 CB          7.8230  -12.6274  -47.7366 C.3       2 UNK        -0.1800 
     64 N           5.4032  -12.2605  -47.6853 N.am      2 UNK        -0.5000 
     65 C           4.2132  -11.8772  -47.2044 C.2       1 UNK         0.5000 
     66 O           4.0144  -11.6251  -46.0123 O.2       1 UNK        -0.5000 
     67 C          -0.8329  -21.2396  -47.1827 C.2       11 UNK         0.5000 
     68 O          -0.6317  -22.1043  -48.0350 O.2       11 UNK        -0.5000 
     69 N          -1.9739  -20.5420  -47.0823 N.am      12 UNK        -0.5000 
     70 CA         -3.1311  -20.7037  -47.9610 C.3       12 UNK         0.1400 
     71 CB         -4.1923  -19.6510  -47.6101 C.3       12 UNK        -0.1800 
     72 C          -3.7263  -22.1218  -47.9151 C.2       12 UNK         0.5000 
     73 O          -4.0556  -22.6683  -48.9675 O.2       12 UNK        -0.5000 
     74 N          -3.8152  -22.7068  -46.7120 N.am      13 UNK        -0.5000 
     75 CA         -4.2545  -24.0848  -46.4934 C.3       13 UNK         0.1400 
     76 CB         -4.4397  -24.3412  -44.9904 C.3       13 UNK        -0.1800 
     77 C          -3.2981  -25.1194  -47.1141 C.2       13 UNK         0.5000 
     78 O          -3.7641  -26.0424  -47.7818 O.2       13 UNK        -0.5000 
     79 N          -1.9845  -24.9305  -46.9204 N.am      14 UNK        -0.5000 
     80 CA         -0.9276  -25.7734  -47.4872 C.3       14 UNK         0.1400 
     81 CB          0.4242  -25.3929  -46.8645 C.3       14 UNK        -0.1800 
     82 C          -0.8591  -25.6991  -49.0240 C.2       14 UNK         0.5000 
     83 O          -0.6479  -26.7231  -49.6748 O.2       14 UNK        -0.5000 
     84 N          -1.0725  -24.4972  -49.5751 N.am      15 UNK        -0.5000 
     85 CA         -1.1675  -24.2355  -51.0124 C.3       15 UNK         0.1400 
     86 CB         -1.0104  -22.7235  -51.2463 C.3       15 UNK        -0.1800 
     87 C          -2.4829  -24.7363  -51.6449 C.2       15 UNK         0.5000 
     88 O          -2.5624  -24.8158  -52.8711 O.2       15 UNK        -0.5000 
     89 N          -3.4899  -25.0304  -50.8067 N.am      16 UNK        -0.5000 
     90 CA         -4.8782  -25.3598  -51.1483 C.3       16 UNK         0.1400 
     91 CB         -4.9646  -26.6984  -51.9094 C.3       16 UNK        -0.1800 
     92 C          -5.5884  -24.2050  -51.8846 C.2       16 UNK         0.5000 
     93 O          -6.4483  -24.4429  -52.7352 O.2       16 UNK        -0.5000 
     94 N          -5.2227  -22.9631  -51.5365 N.am      17 UNK        -0.5000 
     95 CA         -5.6245  -21.7267  -52.2101 C.3       17 UNK         0.1400 
     96 CB         -4.8114  -20.5551  -51.6423 C.3       17 UNK        -0.1800 
     97 C          -7.1327  -21.4272  -52.1447 C.2       17 UNK         0.5000 
     98 O          -7.6295  -20.6630  -52.9699 O.2       17 UNK        -0.5000 
     99 N          -7.8444  -22.0628  -51.2053 N.am      18 UNK        -0.5000 
    100 CA        -9.3041  -22.0421  -51.1075 C.3       18 UNK         0.1400 
    101 CB        -9.7206  -22.7061  -49.7863 C.3       18 UNK        -0.1800 
    102 C        -10.0101  -22.7230  -52.3003 C.2       18 UNK         0.5000 
    103 O        -11.1580  -22.3811  -52.5871 O.2       18 UNK        -0.5000 
    104 N         -9.3221  -23.6610  -52.9674 N.am      19 UNK        -0.5000 
    105 CA        -9.8151  -24.3888  -54.1365 C.3       19 UNK         0.1400 
    106 CB        -9.7954  -25.8955  -53.8321 C.3       19 UNK        -0.1800 
    107 C         -8.9730  -24.0843  -55.3863 C.2       19 UNK         0.5000 
    108 O         -9.5359  -23.8949  -56.4649 O.2       19 UNK        -0.5000 
    109 N         -7.6434  -24.0498  -55.2286 N.am      20 UNK        -0.5000 
    110 CA        -6.6767  -23.9031  -56.3187 C.3       20 UNK         0.1400 
    111 CB        -5.3532  -24.5519  -55.8797 C.3       20 UNK        -0.1800 
    112 C         -6.4333  -22.4444  -56.7524 C.2       20 UNK         0.5000 
    113 O         -5.8104  -22.2377  -57.7948 O.2       20 UNK        -0.5000 
    114 N         -6.9027  -21.4785  -55.9465 N.am      21 UNK        -0.5000 
    115 CA        -6.6176  -20.0371  -55.9866 C.3       21 UNK         0.1400 
    116 CB        -6.9267  -19.4195  -57.3661 C.3       21 UNK        -0.1800 
    117 C         -5.1827  -19.7102  -55.5205 C.2       21 UNK         0.5000 
    118 O         -4.3053  -20.5765  -55.5184 O.2       21 UNK        -0.5000 
    119 N         -4.9697  -18.4525  -55.1156 N.am      22 UNK        -0.5000 
    120 CA        -3.6632  -17.9371  -54.6635 C.3       22 UNK         0.1400 
    121 C         -2.6874  -17.5582  -55.8205 C.2       22 UNK         0.5000 
    122 N         -3.1014  -17.5847  -57.0818 N.am      22 UNK        -0.7600 
    123 O         -1.5284  -17.2395  -55.5721 O.2       22 UNK        -0.5000 
    124 C124       -3.8284  -16.7764  -53.6358 C.3       23 UNK        -0.0398 
    125 S125       -3.1313  -17.1766  -51.9969 S.3       23 UNK        -0.2404 
    126 C126       -1.4447  -16.5207  -52.1726 C.3       23 UNK        -0.0205 
    127 H127        0.1986   -9.7053  -46.3535 H         1 UNK         0.0600 
    128 H128       -1.0592  -10.1634  -47.5047 H         1 UNK         0.0600 
    129 H129       -0.1315   -8.6799  -47.7532 H         1 UNK         0.0600 
    130 H130        2.0958  -10.8930  -46.6034 H         1 UNK         0.3000 
    131 H131        3.4015  -11.2840  -49.0877 H         1 UNK         0.0600 
    132 H132        1.8057  -13.1512  -49.4065 H         1 UNK         0.0800 
    133 H133        3.3867  -13.7862  -49.1040 H         1 UNK         0.0800 
    134 H134       -0.3477  -14.9172  -46.9248 H         1 UNK         0.0800 
    135 H135       -0.2317  -13.7186  -48.1879 H         1 UNK         0.0800 
    136 H136       -1.0688  -14.6939  -50.1882 H         1 UNK         0.1150 
    137 H137       -0.0799  -18.7066  -51.3083 H         1 UNK         0.1150 
    138 H138        1.4046  -17.0638  -47.6306 H         1 UNK         0.1150 
    139 H139        0.7059  -20.1979  -49.3518 H         1 UNK         0.0800 
    140 H140        2.1782  -19.5268  -49.9848 H         1 UNK         0.0800 
    141 H141        1.3818  -19.2223  -45.4498 H         1 UNK         0.0800 
    142 H142        0.1961  -18.8146  -46.6449 H         1 UNK         0.0800 
    143 H143        1.0054  -21.7311  -46.1984 H         1 UNK         0.0600 
    144 H144       -0.2397  -20.2135  -44.1879 H         1 UNK         0.3000 
    145 H145       -2.2982  -22.7549  -42.7577 H         1 UNK         0.0600 
    146 H146       -0.9996  -21.9734  -40.7601 H         1 UNK         0.0600 
    147 H147       -0.0812  -23.1000  -41.7473 H         1 UNK         0.0600 
    148 H148        0.2776  -21.3835  -41.8262 H         1 UNK         0.0600 
    149 H149       -1.7964  -19.9627  -42.2121 H         1 UNK         0.3000 
    150 H150       -4.5180  -18.7131  -44.1657 H         1 UNK         0.0600 
    151 H151       -5.5571  -19.5128  -42.0377 H         1 UNK         0.0600 
    152 H152       -5.1830  -17.7987  -41.9610 H         1 UNK         0.0600 
    153 H153       -4.1525  -18.9648  -41.1305 H         1 UNK         0.0600 
    154 H154       -2.6688  -17.4368  -42.4047 H         1 UNK         0.3000 
    155 H155       -0.0805  -16.8370  -44.7720 H         1 UNK         0.0600 
    156 H156       -0.5517  -14.4939  -44.2588 H         1 UNK         0.0600 
    157 H157       -2.0748  -14.9070  -43.4703 H         1 UNK         0.0600 
    158 H158       -1.9005  -15.1068  -45.2047 H         1 UNK         0.0600 
    159 H159       -0.3520  -15.9298  -42.1215 H         1 UNK         0.3000 
    160 H160        0.5987  -16.7270  -40.4088 H         1 UNK         0.0600 
    161 H161        0.2342  -19.7463  -40.0994 H         1 UNK         0.0600 
    162 H162       -0.9700  -18.5090  -39.7951 H         1 UNK         0.0600 
    163 H163        0.4674  -18.5940  -38.7890 H         1 UNK         0.0600 
    164 H164        2.7492  -16.9479  -40.6500 H         1 UNK         0.3000 
    165 H165        4.9900  -19.0048  -39.9177 H         1 UNK         0.0600 
    166 H166        4.8585  -19.2761  -42.9660 H         1 UNK         0.0600 
    167 H167        6.3453  -19.2995  -42.0182 H         1 UNK         0.0600 
    168 H168        5.1491  -20.5667  -41.8082 H         1 UNK         0.0600 
    169 H169        4.7741  -16.9259  -42.0393 H         1 UNK         0.3000 
    170 H170        4.9861  -14.2828  -39.7370 H         1 UNK         0.0600 
    171 H171        7.4402  -14.7720  -39.8385 H         1 UNK         0.0600 
    172 H172        7.3087  -15.1185  -41.5592 H         1 UNK         0.0600 
    173 H173        6.9988  -13.4907  -40.9557 H         1 UNK         0.0600 
    174 H174        5.2177  -14.3422  -42.5844 H         1 UNK         0.3000 
    175 H175        1.9375  -15.0861  -43.4713 H         1 UNK         0.0600 
    176 H176        3.0404  -12.2283  -43.4447 H         1 UNK         0.0600 
    177 H177        1.7682  -12.8392  -44.5019 H         1 UNK         0.0600 
    178 H178        1.4930  -12.7290  -42.7717 H         1 UNK         0.0600 
    179 H179        3.9462  -13.9389  -45.0516 H         1 UNK         0.3000 
    180 H180        6.2280  -16.4332  -45.4069 H         1 UNK         0.0600 
    181 H181        3.8192  -16.6463  -47.2900 H         1 UNK         0.0600 
    182 H182        4.5564  -17.9752  -46.4053 H         1 UNK         0.0600 
    183 H183        5.4659  -17.1544  -47.6615 H         1 UNK         0.0600 
    184 H184        5.1600  -14.5886  -47.3544 H         1 UNK         0.3000 
    185 H185        6.7123  -11.6813  -46.1641 H         1 UNK         0.0600 
    186 H186        7.9824  -11.7071  -48.2988 H         1 UNK         0.0600 
    187 H187        8.7184  -12.7999  -47.1380 H         1 UNK         0.0600 
    188 H188        7.7422  -13.4485  -48.4501 H         1 UNK         0.0600 
    189 H189        5.5103  -12.4320  -48.6751 H         1 UNK         0.3000 
    190 H190       -2.0487  -19.8207  -46.3689 H         1 UNK         0.3000 
    191 H191       -2.7956  -20.5199  -48.9838 H         1 UNK         0.0600 
    192 H192       -5.0728  -19.7504  -48.2455 H         1 UNK         0.0600 
    193 H193       -3.8035  -18.6417  -47.7478 H         1 UNK         0.0600 
    194 H194       -4.5229  -19.7430  -46.5752 H         1 UNK         0.0600 
    195 H195       -3.5760  -22.1686  -45.8851 H         1 UNK         0.3000 
    196 H196       -5.2269  -24.2022  -46.9764 H         1 UNK         0.0600 
    197 H197       -4.7861  -25.3591  -44.8075 H         1 UNK         0.0600 
    198 H198       -5.1801  -23.6642  -44.5641 H         1 UNK         0.0600 
    199 H199       -3.5085  -24.2072  -44.4401 H         1 UNK         0.0600 
    200 H200       -1.6791  -24.1637  -46.3264 H         1 UNK         0.3000 
    201 H201       -1.1459  -26.8083  -47.2161 H         1 UNK         0.0600 
    202 H202        0.4115  -25.5298  -45.7831 H         1 UNK         0.0600 
    203 H203        0.6820  -24.3527  -47.0659 H         1 UNK         0.0600 
    204 H204        1.2275  -26.0145  -47.2618 H         1 UNK         0.0600 
    205 H205       -1.1580  -23.6903  -48.9616 H         1 UNK         0.3000 
    206 H206       -0.3443  -24.7485  -51.5136 H         1 UNK         0.0600 
    207 H207       -0.0540  -22.3629  -50.8674 H         1 UNK         0.0600 
    208 H208       -1.0510  -22.4823  -52.3092 H         1 UNK         0.0600 
    209 H209       -1.8003  -22.1579  -50.7508 H         1 UNK         0.0600 
    210 H210       -3.3116  -24.9153  -49.8175 H         1 UNK         0.3000 
    211 H211       -5.4020  -25.4833  -50.1997 H         1 UNK         0.0600 
    212 H212       -4.5322  -26.6274  -52.9078 H         1 UNK         0.0600 
    213 H213       -6.0021  -27.0134  -52.0270 H         1 UNK         0.0600 
    214 H214       -4.4438  -27.4910  -51.3722 H         1 UNK         0.0600 
    215 H215       -4.5897  -22.8613  -50.7463 H         1 UNK         0.3000 
    216 H216       -5.3672  -21.8390  -53.2646 H         1 UNK         0.0600 
    217 H217       -5.0628  -19.6233  -52.1504 H         1 UNK         0.0600 
    218 H218       -3.7411  -20.7150  -51.7730 H         1 UNK         0.0600 
    219 H219       -5.0041  -20.4117  -50.5796 H         1 UNK         0.0600 
    220 H220       -7.3518  -22.6670  -50.5645 H         1 UNK         0.3000 
    221 H221       -9.6266  -20.9991  -51.0853 H         1 UNK         0.0600 
    222 H222       -9.4067  -23.7498  -49.7443 H         1 UNK         0.0600 
    223 H223       -9.2866  -22.1890  -48.9303 H         1 UNK         0.0600 
    224 H224      -10.8041  -22.6840  -49.6625 H         1 UNK         0.0600 
    225 H225       -8.3739  -23.8702  -52.6750 H         1 UNK         0.3000 
    226 H226      -10.8451  -24.1059  -54.3626 H         1 UNK         0.0600 
    227 H227      -10.4466  -26.1336  -52.9911 H         1 UNK         0.0600 
    228 H228      -10.1458  -26.4729  -54.6885 H         1 UNK         0.0600 
    229 H229       -8.7917  -26.2453  -53.5865 H         1 UNK         0.0600 
    230 H230       -7.2457  -24.2315  -54.3089 H         1 UNK         0.3000 
    231 H231       -7.0454  -24.4468  -57.1911 H         1 UNK         0.0600 
    232 H232       -4.6249  -24.5449  -56.6914 H         1 UNK         0.0600 
    233 H233       -5.4990  -25.5908  -55.5830 H         1 UNK         0.0600 
    234 H234       -4.9063  -24.0228  -55.0367 H         1 UNK         0.0600 
    235 H235       -7.4006  -21.7804  -55.1207 H         1 UNK         0.3000 
    236 H236       -7.3015  -19.5798  -55.2716 H         1 UNK         0.0600 
    237 H237       -7.9122  -19.7203  -57.7220 H         1 UNK         0.0600 
    238 H238       -6.9215  -18.3303  -57.3141 H         1 UNK         0.0600 
    239 H239       -6.1937  -19.7069  -58.1200 H         1 UNK         0.0600 
    240 H240       -5.7277  -17.7861  -55.1490 H         1 UNK         0.3000 
    241 H241       -3.1606  -18.7632  -54.1561 H         1 UNK         0.0600 
    242 H242       -4.0457  -17.8502  -57.3089 H         1 UNK         0.3800 
    243 H243       -2.4576  -17.3413  -57.8186 H         1 UNK         0.3800 
    244 H244       -3.3944  -15.8393  -53.9903 H         1 UNK         0.0800 
    245 H245       -4.8830  -16.5469  -53.4772 H         1 UNK         0.0800 
    246 H246       -1.4881  -15.4688  -52.4596 H         1 UNK         0.0800 
    247 H247       -0.9339  -17.0418  -52.9830 H         1 UNK         0.0800 
@<TRIPOS>BOND
     1    1    2 1    
     2    1  127 1    
     3    1  128 1    
     4    1  129 1    
     5    2    3 2    
     6    2    4 am   BACKBONE|DICT|INTERRES
     7    4    5 1    
     8    4  130 1    
     9    5    6 1    
    10    5   65 1    
    11    5  131 1    
    12    6    7 1    
    13    6  132 1    
    14    6  133 1    
    15    7    8 1    
    16    8    9 1    
    17    8  134 1    
    18    8  135 1    
    19    9   10 ar   
    20    9   14 ar   
    21   10   11 ar   
    22   10  136 1    
    23   11   12 ar   
    24   11  126 1    
    25   12   13 ar   
    26   12  137 1    
    27   13   14 ar   
    28   13   15 1    
    29   14  138 1    
    30   15   16 1    
    31   15  139 1    
    32   15  140 1    
    33   16   17 1    
    34   17   18 1    
    35   17  141 1    
    36   17  142 1    
    37   18   19 1    
    38   18   67 1    
    39   18  143 1    
    40   19   20 am   BACKBONE|DICT|INTERRES
    41   19  144 1    
    42   20   21 2    
    43   20   22 1    
    44   22   23 1    
    45   22   24 1    
    46   22  145 1    
    47   23  146 1    
    48   23  147 1    
    49   23  148 1    
    50   24   25 am   BACKBONE|DICT|INTERRES
    51   24  149 1    
    52   25   26 2    
    53   25   27 1    
    54   27   28 1    
    55   27   29 1    
    56   27  150 1    
    57   28  151 1    
    58   28  152 1    
    59   28  153 1    
    60   29   30 am   BACKBONE|DICT|INTERRES
    61   29  154 1    
    62   30   31 2    
    63   30   32 1    
    64   32   33 1    
    65   32   34 1    
    66   32  155 1    
    67   33  156 1    
    68   33  157 1    
    69   33  158 1    
    70   34   35 am   BACKBONE|DICT|INTERRES
    71   34  159 1    
    72   35   36 2    
    73   35   37 1    
    74   37   38 1    
    75   37   39 1    
    76   37  160 1    
    77   38  161 1    
    78   38  162 1    
    79   38  163 1    
    80   39   40 am   BACKBONE|DICT|INTERRES
    81   39  164 1    
    82   40   41 2    
    83   40   42 1    
    84   42   43 1    
    85   42   44 1    
    86   42  165 1    
    87   43  166 1    
    88   43  167 1    
    89   43  168 1    
    90   44   45 am   BACKBONE|DICT|INTERRES
    91   44  169 1    
    92   45   46 2    
    93   45   47 1    
    94   47   48 1    
    95   47   49 1    
    96   47  170 1    
    97   48  171 1    
    98   48  172 1    
    99   48  173 1    
   100   49   50 am   BACKBONE|DICT|INTERRES
   101   49  174 1    
   102   50   51 2    
   103   50   52 1    
   104   52   53 1    
   105   52   54 1    
   106   52  175 1    
   107   53  176 1    
   108   53  177 1    
   109   53  178 1    
   110   54   55 am   BACKBONE|DICT|INTERRES
   111   54  179 1    
   112   55   56 2    
   113   55   57 1    
   114   57   58 1    
   115   57   59 1    
   116   57  180 1    
   117   58  181 1    
   118   58  182 1    
   119   58  183 1    
   120   59   60 am   BACKBONE|DICT|INTERRES
   121   59  184 1    
   122   60   61 2    
   123   60   62 1    
   124   62   63 1    
   125   62   64 1    
   126   62  185 1    
   127   63  186 1    
   128   63  187 1    
   129   63  188 1    
   130   64   65 am   BACKBONE|DICT|INTERRES
   131   64  189 1    
   132   65   66 2    
   133   67   68 2    
   134   67   69 am   BACKBONE|DICT|INTERRES
   135   69   70 1    
   136   69  190 1    
   137   70   71 1    
   138   70   72 1    
   139   70  191 1    
   140   71  192 1    
   141   71  193 1    
   142   71  194 1    
   143   72   73 2    
   144   72   74 am   BACKBONE|DICT|INTERRES
   145   74   75 1    
   146   74  195 1    
   147   75   76 1    
   148   75   77 1    
   149   75  196 1    
   150   76  197 1    
   151   76  198 1    
   152   76  199 1    
   153   77   78 2    
   154   77   79 am   BACKBONE|DICT|INTERRES
   155   79   80 1    
   156   79  200 1    
   157   80   81 1    
   158   80   82 1    
   159   80  201 1    
   160   81  202 1    
   161   81  203 1    
   162   81  204 1    
   163   82   83 2    
   164   82   84 am   BACKBONE|DICT|INTERRES
   165   84   85 1    
   166   84  205 1    
   167   85   86 1    
   168   85   87 1    
   169   85  206 1    
   170   86  207 1    
   171   86  208 1    
   172   86  209 1    
   173   87   88 2    
   174   87   89 am   BACKBONE|DICT|INTERRES
   175   89   90 1    
   176   89  210 1    
   177   90   91 1    
   178   90   92 1    
   179   90  211 1    
   180   91  212 1    
   181   91  213 1    
   182   91  214 1    
   183   92   93 2    
   184   92   94 am   BACKBONE|DICT|INTERRES
   185   94   95 1    
   186   94  215 1    
   187   95   96 1    
   188   95   97 1    
   189   95  216 1    
   190   96  217 1    
   191   96  218 1    
   192   96  219 1    
   193   97   98 2    
   194   97   99 am   BACKBONE|DICT|INTERRES
   195   99  100 1    
   196   99  220 1    
   197  100  101 1    
   198  100  102 1    
   199  100  221 1    
   200  101  222 1    
   201  101  223 1    
   202  101  224 1    
   203  102  103 2    
   204  102  104 am   BACKBONE|DICT|INTERRES
   205  104  105 1    
   206  104  225 1    
   207  105  106 1    
   208  105  107 1    
   209  105  226 1    
   210  106  227 1    
   211  106  228 1    
   212  106  229 1    
   213  107  108 2    
   214  107  109 am   BACKBONE|DICT|INTERRES
   215  109  110 1    
   216  109  230 1    
   217  110  111 1    
   218  110  112 1    
   219  110  231 1    
   220  111  232 1    
   221  111  233 1    
   222  111  234 1    
   223  112  113 2    
   224  112  114 am   BACKBONE|DICT|INTERRES
   225  114  115 1    
   226  114  235 1    
   227  115  116 1    
   228  115  117 1    
   229  115  236 1    
   230  116  237 1    
   231  116  238 1    
   232  116  239 1    
   233  117  118 2    
   234  117  119 am   BACKBONE|DICT|INTERRES
   235  119  120 1    
   236  119  240 1    
   237  120  121 1    
   238  120  124 1    
   239  120  241 1    
   240  121  122 am   BACKBONE|DICT|INTERRES
   241  121  123 2    
   242  122  242 1    
   243  122  243 1    
   244  124  125 1    
   245  124  244 1    
   246  124  245 1    
   247  125  126 1    
   248  126  246 1    
   249  126  247 1    
@<TRIPOS>SUBSTRUCTURE
     1 UNK         1 GROUP             0       ****    0 ROOT    
