@<TRIPOS>MOLECULE
3R540
247   249    1
SMALL
USER_CHARGES


@<TRIPOS>ATOM
      1 CA          5.2810   -8.0139  -49.6927 C.3       0 UNK        -0.1800 
      2 C           5.0725   -9.0791  -48.6253 C.2       0 UNK         0.5000 
      3 O           5.8664   -9.1711  -47.6883 O.2       0 UNK        -0.5000 
      4 N           4.0157   -9.8875  -48.7682 N.am      1 UNK        -0.5000 
      5 CA          3.6234  -10.9368  -47.8227 C.3       1 UNK         0.1400 
      6 C6          2.5298  -11.8643  -48.4148 C.3       23 UNK        -0.0398 
      7 S7          3.1667  -12.8829  -49.7887 S.3       23 UNK        -0.2404 
      8 C8          2.8073  -14.5732  -49.2096 C.3       23 UNK        -0.0205 
      9 C9          1.4356  -15.0499  -49.6657 C.ar      23 UNK        -0.0193 
     10 C10         1.2957  -15.6571  -50.9177 C.ar      23 UNK        -0.1150 
     11 C11         0.0502  -16.1230  -51.3453 C.ar      23 UNK        -0.0193 
     12 C12        -1.0624  -15.9728  -50.5154 C.ar      23 UNK        -0.1150 
     13 C13        -0.9382  -15.3770  -49.2582 C.ar      23 UNK        -0.0193 
     14 C14         0.3149  -14.9131  -48.8382 C.ar      23 UNK        -0.1150 
     15 C15        -2.1599  -15.2322  -48.3626 C.3       23 UNK        -0.0205 
     16 S16        -2.5534  -16.7859  -47.4953 S.3       23 UNK        -0.2404 
     17 C17        -3.8533  -17.5102  -48.5550 C.3       23 UNK        -0.0398 
     18 CA         -3.9573  -19.0521  -48.4683 C.3       11 UNK         0.1400 
     19 N          -2.7099  -19.7271  -48.8330 N.am      11 UNK        -0.5000 
     20 C          -2.5800  -21.0531  -48.9758 C.2       10 UNK         0.5000 
     21 O          -3.5254  -21.8373  -48.8948 O.2       10 UNK        -0.5000 
     22 CA         -1.1616  -21.6124  -49.1877 C.3       10 UNK         0.1400 
     23 CB         -0.9222  -21.9105  -50.6738 C.3       10 UNK        -0.1800 
     24 N          -0.0807  -20.7554  -48.6887 N.am      10 UNK        -0.5000 
     25 C           0.0662  -20.3318  -47.4258 C.2       9 UNK         0.5000 
     26 O          -0.7582  -20.5369  -46.5296 O.2       9 UNK        -0.5000 
     27 CA          1.3227  -19.4956  -47.1391 C.3       9 UNK         0.1400 
     28 CB          1.0858  -18.0328  -47.5382 C.3       9 UNK        -0.1800 
     29 N           1.6911  -19.5603  -45.7257 N.am      9 UNK        -0.5000 
     30 C           2.2796  -20.6184  -45.1496 C.2       8 UNK         0.5000 
     31 O           2.6269  -21.6206  -45.7763 O.2       8 UNK        -0.5000 
     32 CA          2.5369  -20.5693  -43.6330 C.3       8 UNK         0.1400 
     33 CB          4.0003  -20.1956  -43.3512 C.3       8 UNK        -0.1800 
     34 N           1.6628  -19.6192  -42.9444 N.am      8 UNK        -0.5000 
     35 C           0.8763  -19.9072  -41.9018 C.2       7 UNK         0.5000 
     36 O           0.7955  -21.0264  -41.3914 O.2       7 UNK        -0.5000 
     37 CA          0.0457  -18.7330  -41.3399 C.3       7 UNK         0.1400 
     38 CB         -0.7013  -19.0817  -40.0362 C.3       7 UNK        -0.1800 
     39 N           0.8255  -17.4995  -41.1763 N.am      7 UNK        -0.5000 
     40 C           1.9161  -17.3092  -40.4171 C.2       6 UNK         0.5000 
     41 O           2.4218  -18.1737  -39.6993 O.2       6 UNK        -0.5000 
     42 CA          2.5317  -15.8955  -40.4912 C.3       6 UNK         0.1400 
     43 CB          3.8549  -15.7471  -39.7100 C.3       6 UNK        -0.1800 
     44 N           2.6598  -15.4370  -41.8791 N.am      6 UNK        -0.5000 
     45 C           3.4656  -15.9338  -42.8314 C.2       5 UNK         0.5000 
     46 O           4.3375  -16.7766  -42.6210 O.2       5 UNK        -0.5000 
     47 CA          3.2311  -15.4109  -44.2689 C.3       5 UNK         0.1400 
     48 CB          3.8553  -16.3234  -45.3447 C.3       5 UNK        -0.1800 
     49 N           1.8143  -15.1534  -44.5604 N.am      5 UNK        -0.5000 
     50 C           0.8063  -16.0352  -44.4828 C.2       4 UNK         0.5000 
     51 O           0.9721  -17.2336  -44.2545 O.2       4 UNK        -0.5000 
     52 CA         -0.6245  -15.4758  -44.6368 C.3       4 UNK         0.1400 
     53 CB         -1.6967  -16.4004  -44.0312 C.3       4 UNK        -0.1800 
     54 N          -0.7848  -14.1090  -44.1315 N.am      4 UNK        -0.5000 
     55 C          -0.4744  -13.6467  -42.9121 C.2       3 UNK         0.5000 
     56 O          -0.0705  -14.3545  -41.9868 O.2       3 UNK        -0.5000 
     57 CA         -0.5279  -12.1131  -42.7472 C.3       3 UNK         0.1400 
     58 CB         -1.0263  -11.7187  -41.3469 C.3       3 UNK        -0.1800 
     59 N           0.7690  -11.4631  -42.9869 N.am      3 UNK        -0.5000 
     60 C           1.5583  -11.6154  -44.0605 C.2       2 UNK         0.5000 
     61 O           1.2951  -12.3655  -45.0049 O.2       2 UNK        -0.5000 
     62 CA          2.8820  -10.8225  -44.0748 C.3       2 UNK         0.1400 
     63 CB          3.8415  -11.3379  -42.9886 C.3       2 UNK        -0.1800 
     64 N           3.5342  -10.9576  -45.3793 N.am      2 UNK        -0.5000 
     65 C           3.1299  -10.3324  -46.4924 C.2       1 UNK         0.5000 
     66 O           2.3520   -9.3744  -46.5016 O.2       1 UNK        -0.5000 
     67 C          -4.5265  -19.5306  -47.1107 C.2       11 UNK         0.5000 
     68 O          -5.7449  -19.6602  -46.9847 O.2       11 UNK        -0.5000 
     69 N          -3.6426  -19.8434  -46.1538 N.am      12 UNK        -0.5000 
     70 CA         -3.9945  -20.4460  -44.8708 C.3       12 UNK         0.1400 
     71 CB         -3.1749  -19.7839  -43.7510 C.3       12 UNK        -0.1800 
     72 C          -3.7455  -21.9610  -44.8945 C.2       12 UNK         0.5000 
     73 O          -4.6265  -22.7296  -44.5088 O.2       12 UNK        -0.5000 
     74 N          -2.5487  -22.3632  -45.3433 N.am      13 UNK        -0.5000 
     75 CA         -2.0370  -23.7315  -45.2485 C.3       13 UNK         0.1400 
     76 CB         -0.5221  -23.7137  -45.5072 C.3       13 UNK        -0.1800 
     77 C          -2.7324  -24.7463  -46.1748 C.2       13 UNK         0.5000 
     78 O          -2.6760  -25.9438  -45.8926 O.2       13 UNK        -0.5000 
     79 N          -3.3649  -24.2673  -47.2525 N.am      14 UNK        -0.5000 
     80 CA         -4.0435  -25.0847  -48.2570 C.3       14 UNK         0.1400 
     81 CB         -3.1493  -25.1974  -49.5038 C.3       14 UNK        -0.1800 
     82 C          -5.4524  -24.5482  -48.5708 C.2       14 UNK         0.5000 
     83 O          -5.9589  -24.8010  -49.6651 O.2       14 UNK        -0.5000 
     84 N          -6.0569  -23.8424  -47.5987 N.am      15 UNK        -0.5000 
     85 CA         -7.4385  -23.3447  -47.5675 C.3       15 UNK         0.1400 
     86 CB         -8.4131  -24.5260  -47.3844 C.3       15 UNK        -0.1800 
     87 C          -7.7971  -22.4846  -48.7946 C.2       15 UNK         0.5000 
     88 O          -8.4193  -22.9794  -49.7354 O.2       15 UNK        -0.5000 
     89 N          -7.3458  -21.2217  -48.7892 N.am      16 UNK        -0.5000 
     90 CA         -7.4559  -20.2545  -49.8924 C.3       16 UNK         0.1400 
     91 CB         -8.9300  -19.8909  -50.1700 C.3       16 UNK        -0.1800 
     92 C          -6.7008  -20.7108  -51.1618 C.2       16 UNK         0.5000 
     93 O          -7.0694  -20.3257  -52.2719 O.2       16 UNK        -0.5000 
     94 N          -5.6672  -21.5433  -50.9612 N.am      17 UNK        -0.5000 
     95 CA         -4.8525  -22.2349  -51.9611 C.3       17 UNK         0.1400 
     96 CB         -4.0182  -21.2293  -52.7779 C.3       17 UNK        -0.1800 
     97 C          -5.6405  -23.2231  -52.8472 C.2       17 UNK         0.5000 
     98 O          -5.1497  -23.5964  -53.9120 O.2       17 UNK        -0.5000 
     99 N          -6.8283  -23.6572  -52.4002 N.am      18 UNK        -0.5000 
    100 CA        -7.6906  -24.5922  -53.1240 C.3       18 UNK         0.1400 
    101 CB        -9.0974  -24.5693  -52.5092 C.3       18 UNK        -0.1800 
    102 C         -7.1361  -26.0276  -53.1418 C.2       18 UNK         0.5000 
    103 O         -7.3536  -26.7465  -54.1177 O.2       18 UNK        -0.5000 
    104 N         -6.4243  -26.4162  -52.0754 N.am      19 UNK        -0.5000 
    105 CA        -5.8102  -27.7372  -51.9259 C.3       19 UNK         0.1400 
    106 CB        -5.8502  -28.1355  -50.4405 C.3       19 UNK        -0.1800 
    107 C         -4.3728  -27.8050  -52.4844 C.2       19 UNK         0.5000 
    108 O         -3.7429  -28.8588  -52.3802 O.2       19 UNK        -0.5000 
    109 N         -3.8653  -26.7015  -53.0490 N.am      20 UNK        -0.5000 
    110 CA        -2.5161  -26.5840  -53.5954 C.3       20 UNK         0.1400 
    111 CB        -1.5170  -26.2529  -52.4636 C.3       20 UNK        -0.1800 
    112 C         -2.5258  -25.5717  -54.7549 C.2       20 UNK         0.5000 
    113 O         -3.3435  -25.7053  -55.6671 O.2       20 UNK        -0.5000 
    114 N         -1.6207  -24.5907  -54.7071 N.am      21 UNK        -0.5000 
    115 CA        -1.4714  -23.4811  -55.6398 C.3       21 UNK         0.1400 
    116 CB        -0.7400  -23.9522  -56.9107 C.3       21 UNK        -0.1800 
    117 C         -0.6886  -22.3720  -54.9190 C.2       21 UNK         0.5000 
    118 O         -0.1247  -22.6205  -53.8492 O.2       21 UNK        -0.5000 
    119 N         -0.6614  -21.1736  -55.5073 N.am      22 UNK        -0.5000 
    120 CA         0.0369  -19.9971  -54.9743 C.3       22 UNK         0.1400 
    121 C          0.4725  -19.0404  -56.1152 C.2       22 UNK         0.5000 
    122 N          1.4364  -18.1662  -55.8639 N.am      22 UNK        -0.7600 
    123 O         -0.0642  -19.0710  -57.2214 O.2       22 UNK        -0.5000 
    124 C124       -0.8087  -19.2746  -53.8898 C.3       23 UNK        -0.0398 
    125 S125        0.1983  -18.5938  -52.5296 S.3       23 UNK        -0.2404 
    126 C126       -0.1010  -16.8074  -52.6927 C.3       23 UNK        -0.0205 
    127 H127        6.2505   -8.1479  -50.1725 H         1 UNK         0.0600 
    128 H128        5.2563   -7.0216  -49.2423 H         1 UNK         0.0600 
    129 H129        4.5114   -8.0563  -50.4640 H         1 UNK         0.0600 
    130 H130        3.3962   -9.7573  -49.5548 H         1 UNK         0.3000 
    131 H131        4.5088  -11.5414  -47.6128 H         1 UNK         0.0600 
    132 H132        1.6821  -11.2804  -48.7776 H         1 UNK         0.0800 
    133 H133        2.1253  -12.5227  -47.6442 H         1 UNK         0.0800 
    134 H134        2.8929  -14.6318  -48.1246 H         1 UNK         0.0800 
    135 H135        3.5721  -15.2443  -49.6036 H         1 UNK         0.0800 
    136 H136        2.1595  -15.7757  -51.5568 H         1 UNK         0.1150 
    137 H137       -2.0245  -16.3313  -50.8495 H         1 UNK         0.1150 
    138 H138        0.4204  -14.4521  -47.8664 H         1 UNK         0.1150 
    139 H139       -1.9867  -14.4517  -47.6208 H         1 UNK         0.0800 
    140 H140       -3.0177  -14.8991  -48.9487 H         1 UNK         0.0800 
    141 H141       -3.6661  -17.2292  -49.5904 H         1 UNK         0.0800 
    142 H142       -4.8075  -17.0478  -48.2961 H         1 UNK         0.0800 
    143 H143       -4.6823  -19.3542  -49.2235 H         1 UNK         0.0600 
    144 H144       -1.8849  -19.1482  -48.8894 H         1 UNK         0.3000 
    145 H145       -1.1079  -22.5558  -48.6420 H         1 UNK         0.0600 
    146 H146        0.0429  -22.3915  -50.8334 H         1 UNK         0.0600 
    147 H147       -1.6829  -22.5793  -51.0759 H         1 UNK         0.0600 
    148 H148       -0.9449  -21.0008  -51.2715 H         1 UNK         0.0600 
    149 H149        0.6286  -20.5096  -49.3642 H         1 UNK         0.3000 
    150 H150        2.1492  -19.8880  -47.7352 H         1 UNK         0.0600 
    151 H151        0.8370  -17.9485  -48.5970 H         1 UNK         0.0600 
    152 H152        1.9732  -17.4247  -47.3683 H         1 UNK         0.0600 
    153 H153        0.2637  -17.5928  -46.9753 H         1 UNK         0.0600 
    154 H154        1.3930  -18.7764  -45.1533 H         1 UNK         0.3000 
    155 H155        2.3663  -21.5798  -43.2566 H         1 UNK         0.0600 
    156 H156        4.2498  -19.2172  -43.7623 H         1 UNK         0.0600 
    157 H157        4.6822  -20.9217  -43.7953 H         1 UNK         0.0600 
    158 H158        4.2021  -20.1695  -42.2802 H         1 UNK         0.0600 
    159 H159        1.6253  -18.6744  -43.3184 H         1 UNK         0.3000 
    160 H160       -0.7093  -18.5197  -42.0966 H         1 UNK         0.0600 
    161 H161       -0.0135  -19.3498  -39.2338 H         1 UNK         0.0600 
    162 H162       -1.3748  -19.9263  -40.1863 H         1 UNK         0.0600 
    163 H163       -1.3068  -18.2427  -39.6933 H         1 UNK         0.0600 
    164 H164        0.5129  -16.7150  -41.7326 H         1 UNK         0.3000 
    165 H165        1.8074  -15.2282  -40.0217 H         1 UNK         0.0600 
    166 H166        4.6172  -16.4459  -40.0545 H         1 UNK         0.0600 
    167 H167        4.2564  -14.7381  -39.8026 H         1 UNK         0.0600 
    168 H168        3.6991  -15.9384  -38.6478 H         1 UNK         0.0600 
    169 H169        1.9345  -14.7895  -42.1655 H         1 UNK         0.3000 
    170 H170        3.7350  -14.4461  -44.3283 H         1 UNK         0.0600 
    171 H171        4.9344  -16.4045  -45.2105 H         1 UNK         0.0600 
    172 H172        3.4478  -17.3330  -45.3077 H         1 UNK         0.0600 
    173 H173        3.6858  -15.9289  -46.3449 H         1 UNK         0.0600 
    174 H174        1.5751  -14.1838  -44.7589 H         1 UNK         0.3000 
    175 H175       -0.7920  -15.4212  -45.7103 H         1 UNK         0.0600 
    176 H176       -1.5996  -16.4824  -42.9491 H         1 UNK         0.0600 
    177 H177       -2.6990  -16.0324  -44.2494 H         1 UNK         0.0600 
    178 H178       -1.6257  -17.4031  -44.4530 H         1 UNK         0.0600 
    179 H179       -1.0248  -13.4226  -44.8336 H         1 UNK         0.3000 
    180 H180       -1.2367  -11.7164  -43.4766 H         1 UNK         0.0600 
    181 H181       -0.3258  -12.0232  -40.5680 H         1 UNK         0.0600 
    182 H182       -1.9857  -12.1890  -41.1269 H         1 UNK         0.0600 
    183 H183       -1.1687  -10.6409  -41.2670 H         1 UNK         0.0600 
    184 H184        1.0815  -10.8432  -42.2537 H         1 UNK         0.3000 
    185 H185        2.6608   -9.7698  -43.8866 H         1 UNK         0.0600 
    186 H186        3.4212  -11.2021  -41.9915 H         1 UNK         0.0600 
    187 H187        4.0608  -12.3989  -43.1084 H         1 UNK         0.0600 
    188 H188        4.7879  -10.7971  -43.0127 H         1 UNK         0.0600 
    189 H189        4.1685  -11.7370  -45.4716 H         1 UNK         0.3000 
    190 H190       -2.6529  -19.7632  -46.3602 H         1 UNK         0.3000 
    191 H191       -5.0514  -20.2849  -44.6480 H         1 UNK         0.0600 
    192 H192       -3.3574  -20.2682  -42.7908 H         1 UNK         0.0600 
    193 H193       -3.4498  -18.7356  -43.6389 H         1 UNK         0.0600 
    194 H194       -2.1028  -19.8343  -43.9467 H         1 UNK         0.0600 
    195 H195       -1.8889  -21.6645  -45.6796 H         1 UNK         0.3000 
    196 H196       -2.1967  -24.0729  -44.2236 H         1 UNK         0.0600 
    197 H197       -0.2885  -23.3820  -46.5187 H         1 UNK         0.0600 
    198 H198       -0.0103  -23.0475  -44.8120 H         1 UNK         0.0600 
    199 H199       -0.0908  -24.7074  -45.3808 H         1 UNK         0.0600 
    200 H200       -3.3711  -23.2688  -47.4296 H         1 UNK         0.3000 
    201 H201       -4.2047  -26.0937  -47.8732 H         1 UNK         0.0600 
    202 H202       -2.9414  -24.2217  -49.9365 H         1 UNK         0.0600 
    203 H203       -3.6151  -25.8059  -50.2772 H         1 UNK         0.0600 
    204 H204       -2.1945  -25.6630  -49.2602 H         1 UNK         0.0600 
    205 H205       -5.5280  -23.6891  -46.7506 H         1 UNK         0.3000 
    206 H206       -7.5248  -22.7052  -46.6875 H         1 UNK         0.0600 
    207 H207       -8.1989  -25.0741  -46.4669 H         1 UNK         0.0600 
    208 H208       -9.4436  -24.1748  -47.3210 H         1 UNK         0.0600 
    209 H209       -8.3586  -25.2312  -48.2149 H         1 UNK         0.0600 
    210 H210       -6.8329  -20.8827  -47.9789 H         1 UNK         0.3000 
    211 H211       -6.9642  -19.3431  -49.5531 H         1 UNK         0.0600 
    212 H212       -9.0006  -19.0541  -50.8657 H         1 UNK         0.0600 
    213 H213       -9.4419  -19.5938  -49.2548 H         1 UNK         0.0600 
    214 H214       -9.4808  -20.7235  -50.6084 H         1 UNK         0.0600 
    215 H215       -5.4357  -21.7807  -50.0042 H         1 UNK         0.3000 
    216 H216       -4.1549  -22.8511  -51.3955 H         1 UNK         0.0600 
    217 H217       -3.4756  -20.5480  -52.1226 H         1 UNK         0.0600 
    218 H218       -4.6410  -20.6315  -53.4436 H         1 UNK         0.0600 
    219 H219       -3.2816  -21.7451  -53.3940 H         1 UNK         0.0600 
    220 H220       -7.1541  -23.3556  -51.4881 H         1 UNK         0.3000 
    221 H221       -7.7675  -24.2511  -54.1585 H         1 UNK         0.0600 
    222 H222       -9.5101  -23.5602  -52.5027 H         1 UNK         0.0600 
    223 H223       -9.0916  -24.9357  -51.4818 H         1 UNK         0.0600 
    224 H224       -9.7823  -25.1993  -53.0780 H         1 UNK         0.0600 
    225 H225       -6.2976  -25.7651  -51.3032 H         1 UNK         0.3000 
    226 H226       -6.3990  -28.4733  -52.4769 H         1 UNK         0.0600 
    227 H227       -5.2267  -27.4856  -49.8287 H         1 UNK         0.0600 
    228 H228       -6.8660  -28.0903  -50.0474 H         1 UNK         0.0600 
    229 H229       -5.4941  -29.1565  -50.2986 H         1 UNK         0.0600 
    230 H230       -4.4647  -25.8967  -53.1786 H         1 UNK         0.3000 
    231 H231       -2.2262  -27.5398  -54.0368 H         1 UNK         0.0600 
    232 H232       -1.7215  -25.2807  -52.0141 H         1 UNK         0.0600 
    233 H233       -0.4904  -26.2433  -52.8317 H         1 UNK         0.0600 
    234 H234       -1.5590  -26.9991  -51.6700 H         1 UNK         0.0600 
    235 H235       -1.0040  -24.5163  -53.9064 H         1 UNK         0.3000 
    236 H236       -2.4596  -23.0943  -55.8979 H         1 UNK         0.0600 
    237 H237       -1.2972  -24.7374  -57.4216 H         1 UNK         0.0600 
    238 H238       -0.6149  -23.1337  -57.6204 H         1 UNK         0.0600 
    239 H239        0.2519  -24.3425  -56.6798 H         1 UNK         0.0600 
    240 H240       -1.0949  -21.0339  -56.4108 H         1 UNK         0.3000 
    241 H241        0.9620  -20.3625  -54.5227 H         1 UNK         0.0600 
    242 H242        1.8838  -18.1247  -54.9612 H         1 UNK         0.3800 
    243 H243        1.7290  -17.5342  -56.5931 H         1 UNK         0.3800 
    244 H244       -1.4522  -18.5105  -54.3286 H         1 UNK         0.0800 
    245 H245       -1.4923  -19.9790  -53.4186 H         1 UNK         0.0800 
    246 H246        0.5940  -16.3834  -53.4188 H         1 UNK         0.0800 
    247 H247       -1.1038  -16.6229  -53.0802 H         1 UNK         0.0800 
@<TRIPOS>BOND
     1    1    2 1    
     2    1  127 1    
     3    1  128 1    
     4    1  129 1    
     5    2    3 2    
     6    2    4 am   BACKBONE|DICT|INTERRES
     7    4    5 1    
     8    4  130 1    
     9    5    6 1    
    10    5   65 1    
    11    5  131 1    
    12    6    7 1    
    13    6  132 1    
    14    6  133 1    
    15    7    8 1    
    16    8    9 1    
    17    8  134 1    
    18    8  135 1    
    19    9   10 ar   
    20    9   14 ar   
    21   10   11 ar   
    22   10  136 1    
    23   11   12 ar   
    24   11  126 1    
    25   12   13 ar   
    26   12  137 1    
    27   13   14 ar   
    28   13   15 1    
    29   14  138 1    
    30   15   16 1    
    31   15  139 1    
    32   15  140 1    
    33   16   17 1    
    34   17   18 1    
    35   17  141 1    
    36   17  142 1    
    37   18   19 1    
    38   18   67 1    
    39   18  143 1    
    40   19   20 am   BACKBONE|DICT|INTERRES
    41   19  144 1    
    42   20   21 2    
    43   20   22 1    
    44   22   23 1    
    45   22   24 1    
    46   22  145 1    
    47   23  146 1    
    48   23  147 1    
    49   23  148 1    
    50   24   25 am   BACKBONE|DICT|INTERRES
    51   24  149 1    
    52   25   26 2    
    53   25   27 1    
    54   27   28 1    
    55   27   29 1    
    56   27  150 1    
    57   28  151 1    
    58   28  152 1    
    59   28  153 1    
    60   29   30 am   BACKBONE|DICT|INTERRES
    61   29  154 1    
    62   30   31 2    
    63   30   32 1    
    64   32   33 1    
    65   32   34 1    
    66   32  155 1    
    67   33  156 1    
    68   33  157 1    
    69   33  158 1    
    70   34   35 am   BACKBONE|DICT|INTERRES
    71   34  159 1    
    72   35   36 2    
    73   35   37 1    
    74   37   38 1    
    75   37   39 1    
    76   37  160 1    
    77   38  161 1    
    78   38  162 1    
    79   38  163 1    
    80   39   40 am   BACKBONE|DICT|INTERRES
    81   39  164 1    
    82   40   41 2    
    83   40   42 1    
    84   42   43 1    
    85   42   44 1    
    86   42  165 1    
    87   43  166 1    
    88   43  167 1    
    89   43  168 1    
    90   44   45 am   BACKBONE|DICT|INTERRES
    91   44  169 1    
    92   45   46 2    
    93   45   47 1    
    94   47   48 1    
    95   47   49 1    
    96   47  170 1    
    97   48  171 1    
    98   48  172 1    
    99   48  173 1    
   100   49   50 am   BACKBONE|DICT|INTERRES
   101   49  174 1    
   102   50   51 2    
   103   50   52 1    
   104   52   53 1    
   105   52   54 1    
   106   52  175 1    
   107   53  176 1    
   108   53  177 1    
   109   53  178 1    
   110   54   55 am   BACKBONE|DICT|INTERRES
   111   54  179 1    
   112   55   56 2    
   113   55   57 1    
   114   57   58 1    
   115   57   59 1    
   116   57  180 1    
   117   58  181 1    
   118   58  182 1    
   119   58  183 1    
   120   59   60 am   BACKBONE|DICT|INTERRES
   121   59  184 1    
   122   60   61 2    
   123   60   62 1    
   124   62   63 1    
   125   62   64 1    
   126   62  185 1    
   127   63  186 1    
   128   63  187 1    
   129   63  188 1    
   130   64   65 am   BACKBONE|DICT|INTERRES
   131   64  189 1    
   132   65   66 2    
   133   67   68 2    
   134   67   69 am   BACKBONE|DICT|INTERRES
   135   69   70 1    
   136   69  190 1    
   137   70   71 1    
   138   70   72 1    
   139   70  191 1    
   140   71  192 1    
   141   71  193 1    
   142   71  194 1    
   143   72   73 2    
   144   72   74 am   BACKBONE|DICT|INTERRES
   145   74   75 1    
   146   74  195 1    
   147   75   76 1    
   148   75   77 1    
   149   75  196 1    
   150   76  197 1    
   151   76  198 1    
   152   76  199 1    
   153   77   78 2    
   154   77   79 am   BACKBONE|DICT|INTERRES
   155   79   80 1    
   156   79  200 1    
   157   80   81 1    
   158   80   82 1    
   159   80  201 1    
   160   81  202 1    
   161   81  203 1    
   162   81  204 1    
   163   82   83 2    
   164   82   84 am   BACKBONE|DICT|INTERRES
   165   84   85 1    
   166   84  205 1    
   167   85   86 1    
   168   85   87 1    
   169   85  206 1    
   170   86  207 1    
   171   86  208 1    
   172   86  209 1    
   173   87   88 2    
   174   87   89 am   BACKBONE|DICT|INTERRES
   175   89   90 1    
   176   89  210 1    
   177   90   91 1    
   178   90   92 1    
   179   90  211 1    
   180   91  212 1    
   181   91  213 1    
   182   91  214 1    
   183   92   93 2    
   184   92   94 am   BACKBONE|DICT|INTERRES
   185   94   95 1    
   186   94  215 1    
   187   95   96 1    
   188   95   97 1    
   189   95  216 1    
   190   96  217 1    
   191   96  218 1    
   192   96  219 1    
   193   97   98 2    
   194   97   99 am   BACKBONE|DICT|INTERRES
   195   99  100 1    
   196   99  220 1    
   197  100  101 1    
   198  100  102 1    
   199  100  221 1    
   200  101  222 1    
   201  101  223 1    
   202  101  224 1    
   203  102  103 2    
   204  102  104 am   BACKBONE|DICT|INTERRES
   205  104  105 1    
   206  104  225 1    
   207  105  106 1    
   208  105  107 1    
   209  105  226 1    
   210  106  227 1    
   211  106  228 1    
   212  106  229 1    
   213  107  108 2    
   214  107  109 am   BACKBONE|DICT|INTERRES
   215  109  110 1    
   216  109  230 1    
   217  110  111 1    
   218  110  112 1    
   219  110  231 1    
   220  111  232 1    
   221  111  233 1    
   222  111  234 1    
   223  112  113 2    
   224  112  114 am   BACKBONE|DICT|INTERRES
   225  114  115 1    
   226  114  235 1    
   227  115  116 1    
   228  115  117 1    
   229  115  236 1    
   230  116  237 1    
   231  116  238 1    
   232  116  239 1    
   233  117  118 2    
   234  117  119 am   BACKBONE|DICT|INTERRES
   235  119  120 1    
   236  119  240 1    
   237  120  121 1    
   238  120  124 1    
   239  120  241 1    
   240  121  122 am   BACKBONE|DICT|INTERRES
   241  121  123 2    
   242  122  242 1    
   243  122  243 1    
   244  124  125 1    
   245  124  244 1    
   246  124  245 1    
   247  125  126 1    
   248  126  246 1    
   249  126  247 1    
@<TRIPOS>SUBSTRUCTURE
     1 UNK         1 GROUP             0       ****    0 ROOT    
