@<TRIPOS>MOLECULE
3R540
247   249    1
SMALL
USER_CHARGES


@<TRIPOS>ATOM
      1 CA         -2.5648  -11.0008  -48.7435 C.3       0 UNK        -0.1800 
      2 C          -2.1698  -12.4694  -48.7936 C.2       0 UNK         0.5000 
      3 O          -3.0103  -13.3195  -49.0882 O.2       0 UNK        -0.5000 
      4 N          -0.8971  -12.7697  -48.4986 N.am      1 UNK        -0.5000 
      5 CA         -0.2825  -14.1029  -48.4476 C.3       1 UNK         0.1400 
      6 C6         -0.3894  -14.8875  -49.7839 C.3       23 UNK        -0.0398 
      7 S7          0.8940  -16.1692  -49.9785 S.3       23 UNK        -0.2404 
      8 C8          0.0651  -17.6209  -49.2601 C.3       23 UNK        -0.0205 
      9 C9          0.6670  -18.9115  -49.7875 C.ar      23 UNK        -0.0193 
     10 C10         0.1014  -19.5419  -50.8988 C.ar      23 UNK        -0.1150 
     11 C11         0.6537  -20.7214  -51.4037 C.ar      23 UNK        -0.0193 
     12 C12         1.7819  -21.2696  -50.7867 C.ar      23 UNK        -0.1150 
     13 C13         2.3612  -20.6453  -49.6777 C.ar      23 UNK        -0.0193 
     14 C14         1.7930  -19.4699  -49.1760 C.ar      23 UNK        -0.1150 
     15 C15         3.6290  -21.2171  -49.0591 C.3       23 UNK        -0.0205 
     16 S16         3.3129  -22.6986  -48.0503 S.3       23 UNK        -0.2404 
     17 C17         2.5641  -21.9714  -46.5546 C.3       23 UNK        -0.0398 
     18 CA          1.3421  -22.7677  -46.0419 C.3       11 UNK         0.1400 
     19 N           1.0099  -22.4135  -44.6604 N.am      11 UNK        -0.5000 
     20 C           0.0981  -23.0381  -43.9017 C.2       10 UNK         0.5000 
     21 O          -0.5380  -24.0265  -44.2660 O.2       10 UNK        -0.5000 
     22 CA         -0.1899  -22.4205  -42.5218 C.3       10 UNK         0.1400 
     23 CB          0.8931  -22.8117  -41.5056 C.3       10 UNK        -0.1800 
     24 N          -0.3122  -20.9634  -42.5808 N.am      10 UNK        -0.5000 
     25 C          -1.2667  -20.3141  -43.2632 C.2       9 UNK         0.5000 
     26 O          -2.1790  -20.8794  -43.8663 O.2       9 UNK        -0.5000 
     27 CA         -1.1592  -18.7805  -43.3171 C.3       9 UNK         0.1400 
     28 CB         -1.6604  -18.1546  -42.0068 C.3       9 UNK        -0.1800 
     29 N           0.2035  -18.3241  -43.5884 N.am      9 UNK        -0.5000 
     30 C           0.8942  -18.5734  -44.7099 C.2       8 UNK         0.5000 
     31 O           0.4318  -19.1675  -45.6815 O.2       8 UNK        -0.5000 
     32 CA          2.3741  -18.1522  -44.7235 C.3       8 UNK         0.1400 
     33 CB          2.5380  -16.6807  -45.1267 C.3       8 UNK        -0.1800 
     34 N           3.0217  -18.3866  -43.4331 N.am      8 UNK        -0.5000 
     35 C           3.2891  -19.6020  -42.9352 C.2       7 UNK         0.5000 
     36 O           3.0369  -20.6518  -43.5253 O.2       7 UNK        -0.5000 
     37 CA          3.9045  -19.6509  -41.5255 C.3       7 UNK         0.1400 
     38 CB          5.4237  -19.4348  -41.5890 C.3       7 UNK        -0.1800 
     39 N           3.3094  -18.6627  -40.6253 N.am      7 UNK        -0.5000 
     40 C           2.0436  -18.7079  -40.1862 C.2       6 UNK         0.5000 
     41 O           1.2573  -19.6140  -40.4612 O.2       6 UNK        -0.5000 
     42 CA          1.5648  -17.5097  -39.3438 C.3       6 UNK         0.1400 
     43 CB          1.9388  -17.7016  -37.8667 C.3       6 UNK        -0.1800 
     44 N           2.0925  -16.2260  -39.8202 N.am      6 UNK        -0.5000 
     45 C           1.8300  -15.7087  -41.0267 C.2       5 UNK         0.5000 
     46 O           1.1135  -16.2623  -41.8644 O.2       5 UNK        -0.5000 
     47 CA          2.5153  -14.3846  -41.3827 C.3       5 UNK         0.1400 
     48 CB          3.9883  -14.6286  -41.7656 C.3       5 UNK        -0.1800 
     49 N           1.7899  -13.8011  -42.5047 N.am      5 UNK        -0.5000 
     50 C           1.9004  -12.5534  -42.9694 C.2       4 UNK         0.5000 
     51 O           2.6544  -11.7056  -42.4901 O.2       4 UNK        -0.5000 
     52 CA          1.0135  -12.1891  -44.1746 C.3       4 UNK         0.1400 
     53 CB          1.7644  -12.4536  -45.4886 C.3       4 UNK        -0.1800 
     54 N          -0.2654  -12.9090  -44.1894 N.am      4 UNK        -0.5000 
     55 C          -1.2972  -12.6123  -43.3811 C.2       3 UNK         0.5000 
     56 O          -1.2456  -11.7236  -42.5296 O.2       3 UNK        -0.5000 
     57 CA         -2.6075  -13.4097  -43.5502 C.3       3 UNK         0.1400 
     58 CB         -3.8424  -12.4908  -43.5433 C.3       3 UNK        -0.1800 
     59 N          -2.6106  -14.1889  -44.7866 N.am      3 UNK        -0.5000 
     60 C          -2.9174  -15.4869  -44.8886 C.2       2 UNK         0.5000 
     61 O          -3.3375  -16.1616  -43.9498 O.2       2 UNK        -0.5000 
     62 CA         -2.7289  -16.1552  -46.2679 C.3       2 UNK         0.1400 
     63 CB         -4.0753  -16.6268  -46.8387 C.3       2 UNK        -0.1800 
     64 N          -2.0662  -15.3185  -47.2721 N.am      2 UNK        -0.5000 
     65 C          -0.7912  -14.9134  -47.2383 C.2       1 UNK         0.5000 
     66 O          -0.0470  -15.1124  -46.2800 O.2       1 UNK        -0.5000 
     67 C           0.1205  -22.6351  -46.9749 C.2       11 UNK         0.5000 
     68 O          -0.1777  -23.5745  -47.7112 O.2       11 UNK        -0.5000 
     69 N          -0.5994  -21.5081  -46.8770 N.am      12 UNK        -0.5000 
     70 CA         -1.8360  -21.2337  -47.6071 C.3       12 UNK         0.1400 
     71 CB         -2.3390  -19.8252  -47.2557 C.3       12 UNK        -0.1800 
     72 C          -2.9372  -22.2720  -47.3402 C.2       12 UNK         0.5000 
     73 O          -3.5441  -22.7680  -48.2899 O.2       12 UNK        -0.5000 
     74 N          -3.1506  -22.5987  -46.0583 N.am      13 UNK        -0.5000 
     75 CA         -4.1118  -23.6035  -45.6065 C.3       13 UNK         0.1400 
     76 CB         -4.2244  -23.5502  -44.0754 C.3       13 UNK        -0.1800 
     77 C          -3.7621  -25.0264  -46.0792 C.2       13 UNK         0.5000 
     78 O          -4.6608  -25.7669  -46.4800 O.2       13 UNK        -0.5000 
     79 N          -2.4697  -25.3775  -46.0350 N.am      14 UNK        -0.5000 
     80 CA         -1.9486  -26.6671  -46.4846 C.3       14 UNK         0.1400 
     81 CB         -0.5088  -26.8447  -45.9778 C.3       14 UNK        -0.1800 
     82 C          -2.0122  -26.8345  -48.0129 C.2       14 UNK         0.5000 
     83 O          -2.4244  -27.8932  -48.4892 O.2       14 UNK        -0.5000 
     84 N          -1.5965  -25.7973  -48.7519 N.am      15 UNK        -0.5000 
     85 CA         -1.5410  -25.8012  -50.2127 C.3       15 UNK         0.1400 
     86 CB         -0.6107  -24.6769  -50.6913 C.3       15 UNK        -0.1800 
     87 C          -2.9205  -25.6589  -50.8758 C.2       15 UNK         0.5000 
     88 O          -3.1117  -26.1848  -51.9720 O.2       15 UNK        -0.5000 
     89 N          -3.8333  -24.9094  -50.2387 N.am      16 UNK        -0.5000 
     90 CA         -5.1976  -24.5507  -50.6611 C.3       16 UNK         0.1400 
     91 CB         -6.0702  -25.8028  -50.8669 C.3       16 UNK        -0.1800 
     92 C          -5.2752  -23.6071  -51.8824 C.2       16 UNK         0.5000 
     93 O          -6.2428  -22.8542  -52.0039 O.2       16 UNK        -0.5000 
     94 N          -4.2444  -23.6170  -52.7387 N.am      17 UNK        -0.5000 
     95 CA         -4.0832  -22.7958  -53.9418 C.3       17 UNK         0.1400 
     96 CB         -2.8224  -23.2563  -54.6886 C.3       17 UNK        -0.1800 
     97 C          -4.0297  -21.2775  -53.6838 C.2       17 UNK         0.5000 
     98 O          -4.1687  -20.5016  -54.6292 O.2       17 UNK        -0.5000 
     99 N          -3.8688  -20.8644  -52.4184 N.am      18 UNK        -0.5000 
    100 CA        -3.9453  -19.4772  -51.9520 C.3       18 UNK         0.1400 
    101 CB        -3.6748  -19.4457  -50.4448 C.3       18 UNK        -0.1800 
    102 C         -5.2861  -18.7834  -52.2689 C.2       18 UNK         0.5000 
    103 O         -5.3090  -17.5616  -52.4142 O.2       18 UNK        -0.5000 
    104 N         -6.3589  -19.5699  -52.4472 N.am      19 UNK        -0.5000 
    105 CA        -7.6588  -19.1204  -52.9558 C.3       19 UNK         0.1400 
    106 CB        -8.6523  -20.2886  -52.8707 C.3       19 UNK        -0.1800 
    107 C         -7.6024  -18.5644  -54.3972 C.2       19 UNK         0.5000 
    108 O         -8.4529  -17.7540  -54.7655 O.2       19 UNK        -0.5000 
    109 N         -6.5916  -18.9852  -55.1693 N.am      20 UNK        -0.5000 
    110 CA        -6.2565  -18.4942  -56.5055 C.3       20 UNK         0.1400 
    111 CB        -6.2241  -19.6923  -57.4713 C.3       20 UNK        -0.1800 
    112 C         -4.9110  -17.7363  -56.4832 C.2       20 UNK         0.5000 
    113 O         -4.2117  -17.6972  -57.4977 O.2       20 UNK        -0.5000 
    114 N         -4.5468  -17.1801  -55.3152 N.am      21 UNK        -0.5000 
    115 CA        -3.3219  -16.4236  -55.0211 C.3       21 UNK         0.1400 
    116 CB        -3.3297  -15.0771  -55.7738 C.3       21 UNK        -0.1800 
    117 C         -2.0166  -17.2197  -55.2471 C.2       21 UNK         0.5000 
    118 O         -0.9635  -16.6188  -55.4653 O.2       21 UNK        -0.5000 
    119 N         -2.1072  -18.5558  -55.1967 N.am      22 UNK        -0.5000 
    120 CA        -1.0406  -19.5090  -55.5349 C.3       22 UNK         0.1400 
    121 C         -0.6797  -19.5531  -57.0540 C.2       22 UNK         0.5000 
    122 N         -1.5161  -19.0372  -57.9492 N.am      22 UNK        -0.7600 
    123 O          0.3581  -20.0841  -57.4390 O.2       22 UNK        -0.5000 
    124 C124        0.1908  -19.3916  -54.5885 C.3       23 UNK        -0.0398 
    125 S125        0.8999  -21.0182  -54.1589 S.3       23 UNK        -0.2404 
    126 C126        0.0309  -21.4107  -52.6079 C.3       23 UNK        -0.0205 
    127 H127       -2.9297  -10.6778  -49.7185 H         1 UNK         0.0600 
    128 H128       -1.7252  -10.3632  -48.4658 H         1 UNK         0.0600 
    129 H129       -3.3609  -10.8520  -48.0140 H         1 UNK         0.0600 
    130 H130       -0.2724  -12.0110  -48.2636 H         1 UNK         0.3000 
    131 H131        0.7768  -13.9117  -48.2669 H         1 UNK         0.0600 
    132 H132       -0.2511  -14.1945  -50.6148 H         1 UNK         0.0800 
    133 H133       -1.3804  -15.3177  -49.9348 H         1 UNK         0.0800 
    134 H134       -1.0021  -17.5947  -49.4852 H         1 UNK         0.0800 
    135 H135        0.1562  -17.5869  -48.1731 H         1 UNK         0.0800 
    136 H136       -0.7641  -19.1067  -51.3766 H         1 UNK         0.1150 
    137 H137        2.2181  -22.1780  -51.1779 H         1 UNK         0.1150 
    138 H138        2.2356  -18.9757  -48.3226 H         1 UNK         0.1150 
    139 H139        4.3234  -21.4824  -49.8575 H         1 UNK         0.0800 
    140 H140        4.1396  -20.4660  -48.4542 H         1 UNK         0.0800 
    141 H141        2.3021  -20.9267  -46.7231 H         1 UNK         0.0800 
    142 H142        3.3448  -21.9639  -45.7935 H         1 UNK         0.0800 
    143 H143        1.6186  -23.8242  -46.0248 H         1 UNK         0.0600 
    144 H144        1.5234  -21.6343  -44.2593 H         1 UNK         0.3000 
    145 H145       -1.1435  -22.8212  -42.1716 H         1 UNK         0.0600 
    146 H146        0.6514  -22.4385  -40.5102 H         1 UNK         0.0600 
    147 H147        1.8701  -22.4150  -41.7819 H         1 UNK         0.0600 
    148 H148        0.9867  -23.8959  -41.4331 H         1 UNK         0.0600 
    149 H149        0.3727  -20.4252  -42.0594 H         1 UNK         0.3000 
    150 H150       -1.7958  -18.4306  -44.1305 H         1 UNK         0.0600 
    151 H151       -2.7050  -18.4126  -41.8291 H         1 UNK         0.0600 
    152 H152       -1.5958  -17.0669  -42.0386 H         1 UNK         0.0600 
    153 H153       -1.0862  -18.4960  -41.1462 H         1 UNK         0.0600 
    154 H154        0.6433  -17.7638  -42.8631 H         1 UNK         0.3000 
    155 H155        2.8864  -18.7611  -45.4715 H         1 UNK         0.0600 
    156 H156        2.1760  -16.5206  -46.1427 H         1 UNK         0.0600 
    157 H157        3.5843  -16.3761  -45.1066 H         1 UNK         0.0600 
    158 H158        1.9799  -16.0138  -44.4696 H         1 UNK         0.0600 
    159 H159        3.2153  -17.5762  -42.8657 H         1 UNK         0.3000 
    160 H160        3.7176  -20.6451  -41.1140 H         1 UNK         0.0600 
    161 H161        5.6765  -18.4445  -41.9702 H         1 UNK         0.0600 
    162 H162        5.8945  -20.1690  -42.2442 H         1 UNK         0.0600 
    163 H163        5.8782  -19.5416  -40.6039 H         1 UNK         0.0600 
    164 H164        3.8896  -17.8849  -40.3481 H         1 UNK         0.3000 
    165 H165        0.4759  -17.4709  -39.4164 H         1 UNK         0.0600 
    166 H166        1.5285  -16.9025  -37.2490 H         1 UNK         0.0600 
    167 H167        1.5424  -18.6428  -37.4832 H         1 UNK         0.0600 
    168 H168        3.0197  -17.7173  -37.7220 H         1 UNK         0.0600 
    169 H169        2.6929  -15.7197  -39.1851 H         1 UNK         0.3000 
    170 H170        2.4539  -13.7125  -40.5246 H         1 UNK         0.0600 
    171 H171        4.0742  -15.2724  -42.6417 H         1 UNK         0.0600 
    172 H172        4.5023  -13.6940  -41.9897 H         1 UNK         0.0600 
    173 H173        4.5352  -15.1048  -40.9512 H         1 UNK         0.0600 
    174 H174        1.1200  -14.4329  -42.9259 H         1 UNK         0.3000 
    175 H175        0.8057  -11.1182  -44.1190 H         1 UNK         0.0600 
    176 H176        2.0153  -13.5084  -45.6056 H         1 UNK         0.0600 
    177 H177        1.1713  -12.1486  -46.3498 H         1 UNK         0.0600 
    178 H178        2.6983  -11.8911  -45.5233 H         1 UNK         0.0600 
    179 H179       -0.3340  -13.6953  -44.8262 H         1 UNK         0.3000 
    180 H180       -2.6679  -14.0744  -42.6860 H         1 UNK         0.0600 
    181 H181       -4.7621  -13.0686  -43.6375 H         1 UNK         0.0600 
    182 H182       -3.8123  -11.7729  -44.3639 H         1 UNK         0.0600 
    183 H183       -3.9115  -11.9264  -42.6126 H         1 UNK         0.0600 
    184 H184       -2.3030  -13.7090  -45.6196 H         1 UNK         0.3000 
    185 H185       -2.0992  -17.0324  -46.1083 H         1 UNK         0.0600 
    186 H186       -4.7519  -15.7889  -47.0111 H         1 UNK         0.0600 
    187 H187       -3.9419  -17.1499  -47.7856 H         1 UNK         0.0600 
    188 H188       -4.5716  -17.3172  -46.1554 H         1 UNK         0.0600 
    189 H189       -2.6408  -14.9882  -48.0413 H         1 UNK         0.3000 
    190 H190       -0.2624  -20.7596  -46.2755 H         1 UNK         0.3000 
    191 H191       -1.5987  -21.2665  -48.6718 H         1 UNK         0.0600 
    192 H192       -1.6433  -19.0630  -47.5977 H         1 UNK         0.0600 
    193 H193       -2.4660  -19.6963  -46.1822 H         1 UNK         0.0600 
    194 H194       -3.3051  -19.6202  -47.7150 H         1 UNK         0.0600 
    195 H195       -2.6290  -22.1101  -45.3357 H         1 UNK         0.3000 
    196 H196       -5.0854  -23.3446  -46.0279 H         1 UNK         0.0600 
    197 H197       -4.5547  -22.5671  -43.7392 H         1 UNK         0.0600 
    198 H198       -3.2692  -23.7631  -43.5941 H         1 UNK         0.0600 
    199 H199       -4.9479  -24.2799  -43.7101 H         1 UNK         0.0600 
    200 H200       -1.7958  -24.7256  -45.6445 H         1 UNK         0.3000 
    201 H201       -2.5606  -27.4536  -46.0380 H         1 UNK         0.0600 
    202 H202       -0.4695  -26.8188  -44.8887 H         1 UNK         0.0600 
    203 H203        0.1505  -26.0614  -46.3537 H         1 UNK         0.0600 
    204 H204       -0.0969  -27.8032  -46.2958 H         1 UNK         0.0600 
    205 H205       -1.2254  -24.9710  -48.2857 H         1 UNK         0.3000 
    206 H206       -1.1133  -26.7521  -50.5375 H         1 UNK         0.0600 
    207 H207       -0.9882  -23.6930  -50.4085 H         1 UNK         0.0600 
    208 H208        0.3891  -24.7832  -50.2695 H         1 UNK         0.0600 
    209 H209       -0.5086  -24.6955  -51.7768 H         1 UNK         0.0600 
    210 H210       -3.5412  -24.4520  -49.3799 H         1 UNK         0.3000 
    211 H211       -5.6202  -23.9945  -49.8229 H         1 UNK         0.0600 
    212 H212       -5.7405  -26.3966  -51.7196 H         1 UNK         0.0600 
    213 H213       -7.1092  -25.5252  -51.0484 H         1 UNK         0.0600 
    214 H214       -6.0539  -26.4426  -49.9844 H         1 UNK         0.0600 
    215 H215       -3.5415  -24.3306  -52.5850 H         1 UNK         0.3000 
    216 H216       -4.9479  -22.9777  -54.5828 H         1 UNK         0.0600 
    217 H217       -2.6848  -22.6947  -55.6136 H         1 UNK         0.0600 
    218 H218       -2.8889  -24.3102  -54.9596 H         1 UNK         0.0600 
    219 H219       -1.9243  -23.1235  -54.0851 H         1 UNK         0.0600 
    220 H220       -3.7784  -21.5732  -51.7056 H         1 UNK         0.3000 
    221 H221       -3.1569  -18.9145  -52.4554 H         1 UNK         0.0600 
    222 H222       -4.4308  -20.0038  -49.8905 H         1 UNK         0.0600 
    223 H223       -2.7036  -19.8786  -50.2141 H         1 UNK         0.0600 
    224 H224       -3.6734  -18.4224  -50.0668 H         1 UNK         0.0600 
    225 H225       -6.2564  -20.5668  -52.2999 H         1 UNK         0.3000 
    226 H226       -8.0136  -18.3169  -52.3071 H         1 UNK         0.0600 
    227 H227       -8.7594  -20.6415  -51.8448 H         1 UNK         0.0600 
    228 H228       -9.6424  -19.9878  -53.2160 H         1 UNK         0.0600 
    229 H229       -8.3319  -21.1329  -53.4827 H         1 UNK         0.0600 
    230 H230       -5.9174  -19.6361  -54.7792 H         1 UNK         0.3000 
    231 H231       -7.0124  -17.7898  -56.8572 H         1 UNK         0.0600 
    232 H232       -6.0414  -19.3682  -58.4965 H         1 UNK         0.0600 
    233 H233       -7.1740  -20.2269  -57.4665 H         1 UNK         0.0600 
    234 H234       -5.4392  -20.4012  -57.2039 H         1 UNK         0.0600 
    235 H235       -5.1704  -17.2930  -54.5246 H         1 UNK         0.3000 
    236 H236       -3.3532  -16.2025  -53.9534 H         1 UNK         0.0600 
    237 H237       -3.2331  -15.2157  -56.8510 H         1 UNK         0.0600 
    238 H238       -4.2519  -14.5268  -55.5874 H         1 UNK         0.0600 
    239 H239       -2.5048  -14.4410  -55.4508 H         1 UNK         0.0600 
    240 H240       -3.0157  -18.9793  -55.0372 H         1 UNK         0.3000 
    241 H241       -1.5019  -20.4786  -55.3509 H         1 UNK         0.0600 
    242 H242       -1.2765  -19.0797  -58.9270 H         1 UNK         0.3800 
    243 H243       -2.3848  -18.5945  -57.6687 H         1 UNK         0.3800 
    244 H244       -0.0820  -18.8859  -53.6629 H         1 UNK         0.0800 
    245 H245        0.9690  -18.7695  -55.0336 H         1 UNK         0.0800 
    246 H246       -1.0240  -21.1507  -52.6982 H         1 UNK         0.0800 
    247 H247        0.0671  -22.4894  -52.4609 H         1 UNK         0.0800 
@<TRIPOS>BOND
     1    1    2 1    
     2    1  127 1    
     3    1  128 1    
     4    1  129 1    
     5    2    3 2    
     6    2    4 am   BACKBONE|DICT|INTERRES
     7    4    5 1    
     8    4  130 1    
     9    5    6 1    
    10    5   65 1    
    11    5  131 1    
    12    6    7 1    
    13    6  132 1    
    14    6  133 1    
    15    7    8 1    
    16    8    9 1    
    17    8  134 1    
    18    8  135 1    
    19    9   10 ar   
    20    9   14 ar   
    21   10   11 ar   
    22   10  136 1    
    23   11   12 ar   
    24   11  126 1    
    25   12   13 ar   
    26   12  137 1    
    27   13   14 ar   
    28   13   15 1    
    29   14  138 1    
    30   15   16 1    
    31   15  139 1    
    32   15  140 1    
    33   16   17 1    
    34   17   18 1    
    35   17  141 1    
    36   17  142 1    
    37   18   19 1    
    38   18   67 1    
    39   18  143 1    
    40   19   20 am   BACKBONE|DICT|INTERRES
    41   19  144 1    
    42   20   21 2    
    43   20   22 1    
    44   22   23 1    
    45   22   24 1    
    46   22  145 1    
    47   23  146 1    
    48   23  147 1    
    49   23  148 1    
    50   24   25 am   BACKBONE|DICT|INTERRES
    51   24  149 1    
    52   25   26 2    
    53   25   27 1    
    54   27   28 1    
    55   27   29 1    
    56   27  150 1    
    57   28  151 1    
    58   28  152 1    
    59   28  153 1    
    60   29   30 am   BACKBONE|DICT|INTERRES
    61   29  154 1    
    62   30   31 2    
    63   30   32 1    
    64   32   33 1    
    65   32   34 1    
    66   32  155 1    
    67   33  156 1    
    68   33  157 1    
    69   33  158 1    
    70   34   35 am   BACKBONE|DICT|INTERRES
    71   34  159 1    
    72   35   36 2    
    73   35   37 1    
    74   37   38 1    
    75   37   39 1    
    76   37  160 1    
    77   38  161 1    
    78   38  162 1    
    79   38  163 1    
    80   39   40 am   BACKBONE|DICT|INTERRES
    81   39  164 1    
    82   40   41 2    
    83   40   42 1    
    84   42   43 1    
    85   42   44 1    
    86   42  165 1    
    87   43  166 1    
    88   43  167 1    
    89   43  168 1    
    90   44   45 am   BACKBONE|DICT|INTERRES
    91   44  169 1    
    92   45   46 2    
    93   45   47 1    
    94   47   48 1    
    95   47   49 1    
    96   47  170 1    
    97   48  171 1    
    98   48  172 1    
    99   48  173 1    
   100   49   50 am   BACKBONE|DICT|INTERRES
   101   49  174 1    
   102   50   51 2    
   103   50   52 1    
   104   52   53 1    
   105   52   54 1    
   106   52  175 1    
   107   53  176 1    
   108   53  177 1    
   109   53  178 1    
   110   54   55 am   BACKBONE|DICT|INTERRES
   111   54  179 1    
   112   55   56 2    
   113   55   57 1    
   114   57   58 1    
   115   57   59 1    
   116   57  180 1    
   117   58  181 1    
   118   58  182 1    
   119   58  183 1    
   120   59   60 am   BACKBONE|DICT|INTERRES
   121   59  184 1    
   122   60   61 2    
   123   60   62 1    
   124   62   63 1    
   125   62   64 1    
   126   62  185 1    
   127   63  186 1    
   128   63  187 1    
   129   63  188 1    
   130   64   65 am   BACKBONE|DICT|INTERRES
   131   64  189 1    
   132   65   66 2    
   133   67   68 2    
   134   67   69 am   BACKBONE|DICT|INTERRES
   135   69   70 1    
   136   69  190 1    
   137   70   71 1    
   138   70   72 1    
   139   70  191 1    
   140   71  192 1    
   141   71  193 1    
   142   71  194 1    
   143   72   73 2    
   144   72   74 am   BACKBONE|DICT|INTERRES
   145   74   75 1    
   146   74  195 1    
   147   75   76 1    
   148   75   77 1    
   149   75  196 1    
   150   76  197 1    
   151   76  198 1    
   152   76  199 1    
   153   77   78 2    
   154   77   79 am   BACKBONE|DICT|INTERRES
   155   79   80 1    
   156   79  200 1    
   157   80   81 1    
   158   80   82 1    
   159   80  201 1    
   160   81  202 1    
   161   81  203 1    
   162   81  204 1    
   163   82   83 2    
   164   82   84 am   BACKBONE|DICT|INTERRES
   165   84   85 1    
   166   84  205 1    
   167   85   86 1    
   168   85   87 1    
   169   85  206 1    
   170   86  207 1    
   171   86  208 1    
   172   86  209 1    
   173   87   88 2    
   174   87   89 am   BACKBONE|DICT|INTERRES
   175   89   90 1    
   176   89  210 1    
   177   90   91 1    
   178   90   92 1    
   179   90  211 1    
   180   91  212 1    
   181   91  213 1    
   182   91  214 1    
   183   92   93 2    
   184   92   94 am   BACKBONE|DICT|INTERRES
   185   94   95 1    
   186   94  215 1    
   187   95   96 1    
   188   95   97 1    
   189   95  216 1    
   190   96  217 1    
   191   96  218 1    
   192   96  219 1    
   193   97   98 2    
   194   97   99 am   BACKBONE|DICT|INTERRES
   195   99  100 1    
   196   99  220 1    
   197  100  101 1    
   198  100  102 1    
   199  100  221 1    
   200  101  222 1    
   201  101  223 1    
   202  101  224 1    
   203  102  103 2    
   204  102  104 am   BACKBONE|DICT|INTERRES
   205  104  105 1    
   206  104  225 1    
   207  105  106 1    
   208  105  107 1    
   209  105  226 1    
   210  106  227 1    
   211  106  228 1    
   212  106  229 1    
   213  107  108 2    
   214  107  109 am   BACKBONE|DICT|INTERRES
   215  109  110 1    
   216  109  230 1    
   217  110  111 1    
   218  110  112 1    
   219  110  231 1    
   220  111  232 1    
   221  111  233 1    
   222  111  234 1    
   223  112  113 2    
   224  112  114 am   BACKBONE|DICT|INTERRES
   225  114  115 1    
   226  114  235 1    
   227  115  116 1    
   228  115  117 1    
   229  115  236 1    
   230  116  237 1    
   231  116  238 1    
   232  116  239 1    
   233  117  118 2    
   234  117  119 am   BACKBONE|DICT|INTERRES
   235  119  120 1    
   236  119  240 1    
   237  120  121 1    
   238  120  124 1    
   239  120  241 1    
   240  121  122 am   BACKBONE|DICT|INTERRES
   241  121  123 2    
   242  122  242 1    
   243  122  243 1    
   244  124  125 1    
   245  124  244 1    
   246  124  245 1    
   247  125  126 1    
   248  126  246 1    
   249  126  247 1    
@<TRIPOS>SUBSTRUCTURE
     1 UNK         1 GROUP             0       ****    0 ROOT    
