@<TRIPOS>MOLECULE
3R540
247   249    1
SMALL
USER_CHARGES


@<TRIPOS>ATOM
      1 CA         -4.8554  -18.0745  -46.9100 C.3       0 UNK        -0.1800 
      2 C          -4.3504  -16.6964  -47.3103 C.2       0 UNK         0.5000 
      3 O          -5.1466  -15.8314  -47.6771 O.2       0 UNK        -0.5000 
      4 N          -3.0306  -16.4841  -47.2357 N.am      1 UNK        -0.5000 
      5 CA         -2.3633  -15.2124  -47.5353 C.3       1 UNK         0.1400 
      6 C6         -0.8690  -15.3933  -47.9143 C.3       23 UNK        -0.0398 
      7 S7         -0.5967  -16.5044  -49.3362 S.3       23 UNK        -0.2404 
      8 C8         -0.0539  -18.0025  -48.4594 C.3       23 UNK        -0.0205 
      9 C9          0.4007  -19.1158  -49.3898 C.ar      23 UNK        -0.0193 
     10 C10        -0.4498  -19.6350  -50.3704 C.ar      23 UNK        -0.1150 
     11 C11        -0.0345  -20.6992  -51.1780 C.ar      23 UNK        -0.0193 
     12 C12         1.2239  -21.2725  -50.9704 C.ar      23 UNK        -0.1150 
     13 C13         2.0751  -20.7710  -49.9825 C.ar      23 UNK        -0.0193 
     14 C14         1.6689  -19.6731  -49.2209 C.ar      23 UNK        -0.1150 
     15 C15         3.4265  -21.4209  -49.7224 C.3       23 UNK        -0.0205 
     16 S16         3.2958  -22.8841  -48.6379 S.3       23 UNK        -0.2404 
     17 C17         2.6795  -22.1633  -47.0711 C.3       23 UNK        -0.0398 
     18 CA          1.3580  -22.7498  -46.5040 C.3       11 UNK         0.1400 
     19 N           0.9609  -22.0354  -45.2827 N.am      11 UNK        -0.5000 
     20 C           0.0367  -22.4599  -44.4077 C.2       10 UNK         0.5000 
     21 O          -0.5605  -23.5300  -44.5253 O.2       10 UNK        -0.5000 
     22 CA         -0.3179  -21.5300  -43.2292 C.3       10 UNK         0.1400 
     23 CB          0.4353  -21.9695  -41.9645 C.3       10 UNK        -0.1800 
     24 N          -0.0640  -20.1056  -43.4656 N.am      10 UNK        -0.5000 
     25 C          -0.5977  -19.3640  -44.4475 C.2       9 UNK         0.5000 
     26 O          -1.3714  -19.8029  -45.2967 O.2       9 UNK        -0.5000 
     27 CA         -0.1492  -17.8945  -44.5339 C.3       9 UNK         0.1400 
     28 CB         -1.0410  -16.9989  -43.6638 C.3       9 UNK        -0.1800 
     29 N           1.2536  -17.6916  -44.1729 N.am      9 UNK        -0.5000 
     30 C           2.3018  -18.2506  -44.7950 C.2       8 UNK         0.5000 
     31 O           2.2005  -19.0187  -45.7505 O.2       8 UNK        -0.5000 
     32 CA          3.6916  -17.9263  -44.2272 C.3       8 UNK         0.1400 
     33 CB          4.1693  -16.5436  -44.6962 C.3       8 UNK        -0.1800 
     34 N           3.6820  -17.9740  -42.7665 N.am      8 UNK        -0.5000 
     35 C           3.7874  -19.1009  -42.0491 C.2       7 UNK         0.5000 
     36 O           3.9836  -20.2110  -42.5442 O.2       7 UNK        -0.5000 
     37 CA          3.6356  -18.9721  -40.5206 C.3       7 UNK         0.1400 
     38 CB          5.0044  -18.7443  -39.8618 C.3       7 UNK        -0.1800 
     39 N           2.7251  -17.8995  -40.1147 N.am      7 UNK        -0.5000 
     40 C           1.4037  -17.8992  -40.3373 C.2       6 UNK         0.5000 
     41 O           0.8055  -18.8105  -40.9085 O.2       6 UNK        -0.5000 
     42 CA          0.6288  -16.6444  -39.8898 C.3       6 UNK         0.1400 
     43 CB          0.2334  -16.7572  -38.4099 C.3       6 UNK        -0.1800 
     44 N           1.3418  -15.3794  -40.1070 N.am      6 UNK        -0.5000 
     45 C           1.8201  -14.9578  -41.2851 C.2       5 UNK         0.5000 
     46 O           1.8136  -15.6442  -42.3091 O.2       5 UNK        -0.5000 
     47 CA          2.4531  -13.5543  -41.3172 C.3       5 UNK         0.1400 
     48 CB          3.9337  -13.6336  -40.9146 C.3       5 UNK        -0.1800 
     49 N           2.3596  -12.9616  -42.6526 N.am      5 UNK        -0.5000 
     50 C           1.2148  -12.5912  -43.2407 C.2       4 UNK         0.5000 
     51 O           0.1268  -12.5638  -42.6588 O.2       4 UNK        -0.5000 
     52 CA          1.3205  -12.2154  -44.7305 C.3       4 UNK         0.1400 
     53 CB          1.6947  -13.4465  -45.5768 C.3       4 UNK        -0.1800 
     54 N           0.0570  -11.6751  -45.2293 N.am      4 UNK        -0.5000 
     55 C          -0.2646  -10.3747  -45.2547 C.2       3 UNK         0.5000 
     56 O           0.4959   -9.4810  -44.8788 O.2       3 UNK        -0.5000 
     57 CA         -1.6506   -9.9876  -45.8144 C.3       3 UNK         0.1400 
     58 CB         -1.5112   -9.4068  -47.2307 C.3       3 UNK        -0.1800 
     59 N          -2.5948  -11.1046  -45.8612 N.am      3 UNK        -0.5000 
     60 C          -3.2657  -11.5837  -44.8056 C.2       2 UNK         0.5000 
     61 O          -3.2249  -11.0752  -43.6848 O.2       2 UNK        -0.5000 
     62 CA         -4.1247  -12.8468  -45.0332 C.3       2 UNK         0.1400 
     63 CB         -5.6041  -12.4665  -45.1986 C.3       2 UNK        -0.1800 
     64 N          -3.7233  -13.6830  -46.1723 N.am      2 UNK        -0.5000 
     65 C          -2.5251  -14.2594  -46.3325 C.2       1 UNK         0.5000 
     66 O          -1.5845  -14.0827  -45.5599 O.2       1 UNK        -0.5000 
     67 C           0.1943  -22.8680  -47.5257 C.2       11 UNK         0.5000 
     68 O           0.1895  -23.8046  -48.3262 O.2       11 UNK        -0.5000 
     69 N          -0.8321  -22.0055  -47.4147 N.am      12 UNK        -0.5000 
     70 CA         -2.0844  -22.0853  -48.1749 C.3       12 UNK         0.1400 
     71 CB         -2.9868  -20.9034  -47.8009 C.3       12 UNK        -0.1800 
     72 C          -2.8617  -23.4011  -47.9796 C.2       12 UNK         0.5000 
     73 O          -3.6466  -23.7670  -48.8538 O.2       12 UNK        -0.5000 
     74 N          -2.6247  -24.1175  -46.8691 N.am      13 UNK        -0.5000 
     75 CA         -3.2031  -25.4343  -46.5854 C.3       13 UNK         0.1400 
     76 CB         -2.7518  -25.9007  -45.1946 C.3       13 UNK        -0.1800 
     77 C          -2.8641  -26.5003  -47.6478 C.2       13 UNK         0.5000 
     78 O          -3.6797  -27.3911  -47.8868 O.2       13 UNK        -0.5000 
     79 N          -1.7082  -26.3567  -48.3149 N.am      14 UNK        -0.5000 
     80 CA         -1.2888  -27.1897  -49.4458 C.3       14 UNK         0.1400 
     81 CB          0.1934  -26.9181  -49.7445 C.3       14 UNK        -0.1800 
     82 C          -2.1415  -26.9749  -50.7147 C.2       14 UNK         0.5000 
     83 O          -2.1717  -27.8543  -51.5759 O.2       14 UNK        -0.5000 
     84 N          -2.8266  -25.8272  -50.7989 N.am      15 UNK        -0.5000 
     85 CA         -3.7487  -25.4500  -51.8685 C.3       15 UNK         0.1400 
     86 CB         -3.3258  -24.0736  -52.4093 C.3       15 UNK        -0.1800 
     87 C          -5.2090  -25.4408  -51.3705 C.2       15 UNK         0.5000 
     88 O          -6.0577  -24.8106  -52.0005 O.2       15 UNK        -0.5000 
     89 N          -5.4819  -26.1200  -50.2444 N.am      16 UNK        -0.5000 
     90 CA         -6.7852  -26.2394  -49.5793 C.3       16 UNK         0.1400 
     91 CB         -7.7670  -27.0585  -50.4435 C.3       16 UNK        -0.1800 
     92 C          -7.3638  -24.8810  -49.1238 C.2       16 UNK         0.5000 
     93 O          -8.5680  -24.6486  -49.2404 O.2       16 UNK        -0.5000 
     94 N          -6.4785  -24.0152  -48.6108 N.am      17 UNK        -0.5000 
     95 CA         -6.7210  -22.6660  -48.0878 C.3       17 UNK         0.1400 
     96 CB         -7.8041  -22.6521  -46.9886 C.3       17 UNK        -0.1800 
     97 C          -6.9502  -21.5945  -49.1733 C.2       17 UNK         0.5000 
     98 O          -7.3087  -20.4655  -48.8338 O.2       17 UNK        -0.5000 
     99 N          -6.7004  -21.9301  -50.4467 N.am      18 UNK        -0.5000 
    100 CA        -6.6000  -20.9614  -51.5389 C.3       18 UNK         0.1400 
    101 CB        -6.7561  -21.6924  -52.8806 C.3       18 UNK        -0.1800 
    102 C         -5.2510  -20.2197  -51.4811 C.2       18 UNK         0.5000 
    103 O         -4.2887  -20.7354  -50.9103 O.2       18 UNK        -0.5000 
    104 N         -5.1951  -19.0357  -52.0939 N.am      19 UNK        -0.5000 
    105 CA        -3.9992  -18.2056  -52.1870 C.3       19 UNK         0.1400 
    106 CB        -3.9472  -17.2400  -50.9909 C.3       19 UNK        -0.1800 
    107 C         -3.9960  -17.4579  -53.5268 C.2       19 UNK         0.5000 
    108 O         -5.0492  -17.3390  -54.1600 O.2       19 UNK        -0.5000 
    109 N         -2.8066  -16.9685  -53.9045 N.am      20 UNK        -0.5000 
    110 CA        -2.4241  -16.3505  -55.1799 C.3       20 UNK         0.1400 
    111 CB        -3.3524  -15.1849  -55.5750 C.3       20 UNK        -0.1800 
    112 C         -2.2885  -17.3843  -56.3157 C.2       20 UNK         0.5000 
    113 O         -3.0568  -18.3453  -56.3866 O.2       20 UNK        -0.5000 
    114 N         -1.2878  -17.1617  -57.1816 N.am      21 UNK        -0.5000 
    115 CA        -0.8758  -18.0255  -58.2992 C.3       21 UNK         0.1400 
    116 CB        -1.9695  -18.0823  -59.3871 C.3       21 UNK        -0.1800 
    117 C         -0.3967  -19.4260  -57.8487 C.2       21 UNK         0.5000 
    118 O         -0.5508  -20.4018  -58.5855 O.2       21 UNK        -0.5000 
    119 N          0.1817  -19.4942  -56.6426 N.am      22 UNK        -0.5000 
    120 CA         0.6695  -20.7256  -55.9973 C.3       22 UNK         0.1400 
    121 C          2.0360  -21.2437  -56.5373 C.2       22 UNK         0.5000 
    122 N          2.7510  -20.5015  -57.3742 N.am      22 UNK        -0.7600 
    123 O          2.4527  -22.3471  -56.1961 O.2       22 UNK        -0.5000 
    124 C124        0.7070  -20.5785  -54.4535 C.3       23 UNK        -0.0398 
    125 S125       -0.9333  -20.1939  -53.7468 S.3       23 UNK        -0.2404 
    126 C126       -0.9551  -21.2416  -52.2587 C.3       23 UNK        -0.0205 
    127 H127       -5.1091  -18.6543  -47.7978 H         1 UNK         0.0600 
    128 H128       -5.7502  -17.9848  -46.2941 H         1 UNK         0.0600 
    129 H129       -4.1078  -18.6235  -46.3372 H         1 UNK         0.0600 
    130 H130       -2.4329  -17.2275  -46.9101 H         1 UNK         0.3000 
    131 H131       -2.8596  -14.7512  -48.3922 H         1 UNK         0.0600 
    132 H132       -0.2879  -15.7491  -47.0627 H         1 UNK         0.0800 
    133 H133       -0.4368  -14.4259  -48.1763 H         1 UNK         0.0800 
    134 H134        0.7575  -17.7321  -47.7821 H         1 UNK         0.0800 
    135 H135       -0.8645  -18.3759  -47.8362 H         1 UNK         0.0800 
    136 H136       -1.4358  -19.2131  -50.5016 H         1 UNK         0.1150 
    137 H137        1.5385  -22.1165  -51.5677 H         1 UNK         0.1150 
    138 H138        2.3288  -19.2733  -48.4641 H         1 UNK         0.1150 
    139 H139        3.8729  -21.7239  -50.6706 H         1 UNK         0.0800 
    140 H140        4.1172  -20.7026  -49.2780 H         1 UNK         0.0800 
    141 H141        2.5852  -21.0883  -47.1831 H         1 UNK         0.0800 
    142 H142        3.4685  -22.2961  -46.3298 H         1 UNK         0.0800 
    143 H143        1.5807  -23.7759  -46.2035 H         1 UNK         0.0600 
    144 H144        1.3779  -21.1242  -45.1392 H         1 UNK         0.3000 
    145 H145       -1.3882  -21.6426  -43.0455 H         1 UNK         0.0600 
    146 H146        0.0839  -21.4258  -41.0877 H         1 UNK         0.0600 
    147 H147        0.2857  -23.0315  -41.7652 H         1 UNK         0.0600 
    148 H148        1.5087  -21.7988  -42.0577 H         1 UNK         0.0600 
    149 H149        0.5170  -19.6369  -42.7782 H         1 UNK         0.3000 
    150 H150       -0.2650  -17.5765  -45.5690 H         1 UNK         0.0600 
    151 H151       -1.0085  -17.2993  -42.6170 H         1 UNK         0.0600 
    152 H152       -0.7319  -15.9548  -43.7224 H         1 UNK         0.0600 
    153 H153       -2.0808  -17.0492  -43.9890 H         1 UNK         0.0600 
    154 H154        1.4352  -17.0359  -43.4156 H         1 UNK         0.3000 
    155 H155        4.3935  -18.6710  -44.6089 H         1 UNK         0.0600 
    156 H156        4.1758  -16.4814  -45.7852 H         1 UNK         0.0600 
    157 H157        3.5267  -15.7457  -44.3258 H         1 UNK         0.0600 
    158 H158        5.1836  -16.3413  -44.3521 H         1 UNK         0.0600 
    159 H159        3.4439  -17.1144  -42.2900 H         1 UNK         0.3000 
    160 H160        3.2306  -19.9163  -40.1501 H         1 UNK         0.0600 
    161 H161        5.4505  -17.7998  -40.1758 H         1 UNK         0.0600 
    162 H162        5.7019  -19.5406  -40.1252 H         1 UNK         0.0600 
    163 H163        4.9222  -18.7329  -38.7748 H         1 UNK         0.0600 
    164 H164        3.1344  -17.1036  -39.6480 H         1 UNK         0.3000 
    165 H165       -0.2885  -16.6017  -40.4791 H         1 UNK         0.0600 
    166 H166       -0.4112  -15.9311  -38.1092 H         1 UNK         0.0600 
    167 H167       -0.3161  -17.6806  -38.2214 H         1 UNK         0.0600 
    168 H168        1.1077  -16.7564  -37.7579 H         1 UNK         0.0600 
    169 H169        1.4079  -14.7645  -39.3087 H         1 UNK         0.3000 
    170 H170        1.9242  -12.9100  -40.6119 H         1 UNK         0.0600 
    171 H171        4.5024  -14.2710  -41.5933 H         1 UNK         0.0600 
    172 H172        4.3960  -12.6463  -40.9151 H         1 UNK         0.0600 
    173 H173        4.0463  -14.0421  -39.9095 H         1 UNK         0.0600 
    174 H174        3.2041  -12.9796  -43.2045 H         1 UNK         0.3000 
    175 H175        2.1093  -11.4686  -44.8431 H         1 UNK         0.0600 
    176 H176        1.6192  -13.2353  -46.6436 H         1 UNK         0.0600 
    177 H177        1.0534  -14.3010  -45.3568 H         1 UNK         0.0600 
    178 H178        2.7222  -13.7540  -45.3842 H         1 UNK         0.0600 
    179 H179       -0.6538  -12.3666  -45.4464 H         1 UNK         0.3000 
    180 H180       -2.0594   -9.2086  -45.1673 H         1 UNK         0.0600 
    181 H181       -2.4737   -9.0693  -47.6155 H         1 UNK         0.0600 
    182 H182       -1.1079  -10.1414  -47.9289 H         1 UNK         0.0600 
    183 H183       -0.8411   -8.5461  -47.2367 H         1 UNK         0.0600 
    184 H184       -2.6978  -11.5770  -46.7468 H         1 UNK         0.3000 
    185 H185       -4.0297  -13.4601  -44.1348 H         1 UNK         0.0600 
    186 H186       -5.9539  -11.8728  -44.3529 H         1 UNK         0.0600 
    187 H187       -5.7681  -11.8792  -46.1029 H         1 UNK         0.0600 
    188 H188       -6.2359  -13.3533  -45.2543 H         1 UNK         0.0600 
    189 H189       -4.4572  -13.9454  -46.8200 H         1 UNK         0.3000 
    190 H190       -0.7903  -21.2834  -46.7045 H         1 UNK         0.3000 
    191 H191       -1.8378  -22.0108  -49.2353 H         1 UNK         0.0600 
    192 H192       -3.2490  -20.9197  -46.7430 H         1 UNK         0.0600 
    193 H193       -2.5082  -19.9517  -48.0224 H         1 UNK         0.0600 
    194 H194       -3.9201  -20.9280  -48.3620 H         1 UNK         0.0600 
    195 H195       -1.9555  -23.7661  -46.1939 H         1 UNK         0.3000 
    196 H196       -4.2889  -25.3197  -46.5713 H         1 UNK         0.0600 
    197 H197       -3.2057  -26.8583  -44.9362 H         1 UNK         0.0600 
    198 H198       -3.0414  -25.1852  -44.4246 H         1 UNK         0.0600 
    199 H199       -1.6693  -26.0258  -45.1454 H         1 UNK         0.0600 
    200 H200       -1.1086  -25.5699  -48.0924 H         1 UNK         0.3000 
    201 H201       -1.3926  -28.2364  -49.1523 H         1 UNK         0.0600 
    202 H202        0.8136  -27.0925  -48.8651 H         1 UNK         0.0600 
    203 H203        0.3557  -25.8899  -50.0708 H         1 UNK         0.0600 
    204 H204        0.5590  -27.5738  -50.5358 H         1 UNK         0.0600 
    205 H205       -2.7804  -25.1721  -50.0260 H         1 UNK         0.3000 
    206 H206       -3.6977  -26.1679  -52.6890 H         1 UNK         0.0600 
    207 H207       -3.9331  -23.7809  -53.2660 H         1 UNK         0.0600 
    208 H208       -3.4283  -23.2972  -51.6501 H         1 UNK         0.0600 
    209 H209       -2.2882  -24.0863  -52.7418 H         1 UNK         0.0600 
    210 H210       -4.7164  -26.5951  -49.7835 H         1 UNK         0.3000 
    211 H211       -6.6046  -26.8076  -48.6656 H         1 UNK         0.0600 
    212 H212       -8.0438  -26.5298  -51.3561 H         1 UNK         0.0600 
    213 H213       -8.6869  -27.2690  -49.8968 H         1 UNK         0.0600 
    214 H214       -7.3347  -28.0174  -50.7292 H         1 UNK         0.0600 
    215 H215       -5.4940  -24.2630  -48.6594 H         1 UNK         0.3000 
    216 H216       -5.7870  -22.3816  -47.6027 H         1 UNK         0.0600 
    217 H217       -7.8199  -21.6923  -46.4710 H         1 UNK         0.0600 
    218 H218       -7.6164  -23.4200  -46.2381 H         1 UNK         0.0600 
    219 H219       -8.8020  -22.8135  -47.3962 H         1 UNK         0.0600 
    220 H220       -6.3841  -22.8690  -50.6492 H         1 UNK         0.3000 
    221 H221       -7.4086  -20.2335  -51.4434 H         1 UNK         0.0600 
    222 H222       -5.9206  -22.3662  -53.0700 H         1 UNK         0.0600 
    223 H223       -7.6741  -22.2798  -52.9086 H         1 UNK         0.0600 
    224 H224       -6.7962  -20.9842  -53.7089 H         1 UNK         0.0600 
    225 H225       -5.9866  -18.6909  -52.6221 H         1 UNK         0.3000 
    226 H226       -3.1122  -18.8409  -52.1705 H         1 UNK         0.0600 
    227 H227       -3.8353  -17.7885  -50.0560 H         1 UNK         0.0600 
    228 H228       -3.1006  -16.5576  -51.0671 H         1 UNK         0.0600 
    229 H229       -4.8518  -16.6349  -50.9206 H         1 UNK         0.0600 
    230 H230       -2.0264  -17.1482  -53.2882 H         1 UNK         0.3000 
    231 H231       -1.4338  -15.9287  -55.0002 H         1 UNK         0.0600 
    232 H232       -4.3407  -15.5315  -55.8774 H         1 UNK         0.0600 
    233 H233       -2.9374  -14.6301  -56.4171 H         1 UNK         0.0600 
    234 H234       -3.4779  -14.4813  -54.7520 H         1 UNK         0.0600 
    235 H235       -0.7166  -16.3385  -57.0469 H         1 UNK         0.3000 
    236 H236       -0.0035  -17.5451  -58.7443 H         1 UNK         0.0600 
    237 H237       -2.2795  -17.0814  -59.6872 H         1 UNK         0.0600 
    238 H238       -1.6055  -18.5891  -60.2815 H         1 UNK         0.0600 
    239 H239       -2.8546  -18.6199  -59.0462 H         1 UNK         0.0600 
    240 H240        0.2639  -18.6478  -56.1004 H         1 UNK         0.3000 
    241 H241       -0.0480  -21.5164  -56.2255 H         1 UNK         0.0600 
    242 H242        2.4214  -19.5959  -57.6670 H         1 UNK         0.3800 
    243 H243        3.6310  -20.8510  -57.7205 H         1 UNK         0.3800 
    244 H244        1.0756  -21.4993  -53.9989 H         1 UNK         0.0800 
    245 H245        1.4044  -19.7935  -54.1570 H         1 UNK         0.0800 
    246 H246       -0.6855  -22.2651  -52.5214 H         1 UNK         0.0800 
    247 H247       -1.9732  -21.2863  -51.8746 H         1 UNK         0.0800 
@<TRIPOS>BOND
     1    1    2 1    
     2    1  127 1    
     3    1  128 1    
     4    1  129 1    
     5    2    3 2    
     6    2    4 am   BACKBONE|DICT|INTERRES
     7    4    5 1    
     8    4  130 1    
     9    5    6 1    
    10    5   65 1    
    11    5  131 1    
    12    6    7 1    
    13    6  132 1    
    14    6  133 1    
    15    7    8 1    
    16    8    9 1    
    17    8  134 1    
    18    8  135 1    
    19    9   10 ar   
    20    9   14 ar   
    21   10   11 ar   
    22   10  136 1    
    23   11   12 ar   
    24   11  126 1    
    25   12   13 ar   
    26   12  137 1    
    27   13   14 ar   
    28   13   15 1    
    29   14  138 1    
    30   15   16 1    
    31   15  139 1    
    32   15  140 1    
    33   16   17 1    
    34   17   18 1    
    35   17  141 1    
    36   17  142 1    
    37   18   19 1    
    38   18   67 1    
    39   18  143 1    
    40   19   20 am   BACKBONE|DICT|INTERRES
    41   19  144 1    
    42   20   21 2    
    43   20   22 1    
    44   22   23 1    
    45   22   24 1    
    46   22  145 1    
    47   23  146 1    
    48   23  147 1    
    49   23  148 1    
    50   24   25 am   BACKBONE|DICT|INTERRES
    51   24  149 1    
    52   25   26 2    
    53   25   27 1    
    54   27   28 1    
    55   27   29 1    
    56   27  150 1    
    57   28  151 1    
    58   28  152 1    
    59   28  153 1    
    60   29   30 am   BACKBONE|DICT|INTERRES
    61   29  154 1    
    62   30   31 2    
    63   30   32 1    
    64   32   33 1    
    65   32   34 1    
    66   32  155 1    
    67   33  156 1    
    68   33  157 1    
    69   33  158 1    
    70   34   35 am   BACKBONE|DICT|INTERRES
    71   34  159 1    
    72   35   36 2    
    73   35   37 1    
    74   37   38 1    
    75   37   39 1    
    76   37  160 1    
    77   38  161 1    
    78   38  162 1    
    79   38  163 1    
    80   39   40 am   BACKBONE|DICT|INTERRES
    81   39  164 1    
    82   40   41 2    
    83   40   42 1    
    84   42   43 1    
    85   42   44 1    
    86   42  165 1    
    87   43  166 1    
    88   43  167 1    
    89   43  168 1    
    90   44   45 am   BACKBONE|DICT|INTERRES
    91   44  169 1    
    92   45   46 2    
    93   45   47 1    
    94   47   48 1    
    95   47   49 1    
    96   47  170 1    
    97   48  171 1    
    98   48  172 1    
    99   48  173 1    
   100   49   50 am   BACKBONE|DICT|INTERRES
   101   49  174 1    
   102   50   51 2    
   103   50   52 1    
   104   52   53 1    
   105   52   54 1    
   106   52  175 1    
   107   53  176 1    
   108   53  177 1    
   109   53  178 1    
   110   54   55 am   BACKBONE|DICT|INTERRES
   111   54  179 1    
   112   55   56 2    
   113   55   57 1    
   114   57   58 1    
   115   57   59 1    
   116   57  180 1    
   117   58  181 1    
   118   58  182 1    
   119   58  183 1    
   120   59   60 am   BACKBONE|DICT|INTERRES
   121   59  184 1    
   122   60   61 2    
   123   60   62 1    
   124   62   63 1    
   125   62   64 1    
   126   62  185 1    
   127   63  186 1    
   128   63  187 1    
   129   63  188 1    
   130   64   65 am   BACKBONE|DICT|INTERRES
   131   64  189 1    
   132   65   66 2    
   133   67   68 2    
   134   67   69 am   BACKBONE|DICT|INTERRES
   135   69   70 1    
   136   69  190 1    
   137   70   71 1    
   138   70   72 1    
   139   70  191 1    
   140   71  192 1    
   141   71  193 1    
   142   71  194 1    
   143   72   73 2    
   144   72   74 am   BACKBONE|DICT|INTERRES
   145   74   75 1    
   146   74  195 1    
   147   75   76 1    
   148   75   77 1    
   149   75  196 1    
   150   76  197 1    
   151   76  198 1    
   152   76  199 1    
   153   77   78 2    
   154   77   79 am   BACKBONE|DICT|INTERRES
   155   79   80 1    
   156   79  200 1    
   157   80   81 1    
   158   80   82 1    
   159   80  201 1    
   160   81  202 1    
   161   81  203 1    
   162   81  204 1    
   163   82   83 2    
   164   82   84 am   BACKBONE|DICT|INTERRES
   165   84   85 1    
   166   84  205 1    
   167   85   86 1    
   168   85   87 1    
   169   85  206 1    
   170   86  207 1    
   171   86  208 1    
   172   86  209 1    
   173   87   88 2    
   174   87   89 am   BACKBONE|DICT|INTERRES
   175   89   90 1    
   176   89  210 1    
   177   90   91 1    
   178   90   92 1    
   179   90  211 1    
   180   91  212 1    
   181   91  213 1    
   182   91  214 1    
   183   92   93 2    
   184   92   94 am   BACKBONE|DICT|INTERRES
   185   94   95 1    
   186   94  215 1    
   187   95   96 1    
   188   95   97 1    
   189   95  216 1    
   190   96  217 1    
   191   96  218 1    
   192   96  219 1    
   193   97   98 2    
   194   97   99 am   BACKBONE|DICT|INTERRES
   195   99  100 1    
   196   99  220 1    
   197  100  101 1    
   198  100  102 1    
   199  100  221 1    
   200  101  222 1    
   201  101  223 1    
   202  101  224 1    
   203  102  103 2    
   204  102  104 am   BACKBONE|DICT|INTERRES
   205  104  105 1    
   206  104  225 1    
   207  105  106 1    
   208  105  107 1    
   209  105  226 1    
   210  106  227 1    
   211  106  228 1    
   212  106  229 1    
   213  107  108 2    
   214  107  109 am   BACKBONE|DICT|INTERRES
   215  109  110 1    
   216  109  230 1    
   217  110  111 1    
   218  110  112 1    
   219  110  231 1    
   220  111  232 1    
   221  111  233 1    
   222  111  234 1    
   223  112  113 2    
   224  112  114 am   BACKBONE|DICT|INTERRES
   225  114  115 1    
   226  114  235 1    
   227  115  116 1    
   228  115  117 1    
   229  115  236 1    
   230  116  237 1    
   231  116  238 1    
   232  116  239 1    
   233  117  118 2    
   234  117  119 am   BACKBONE|DICT|INTERRES
   235  119  120 1    
   236  119  240 1    
   237  120  121 1    
   238  120  124 1    
   239  120  241 1    
   240  121  122 am   BACKBONE|DICT|INTERRES
   241  121  123 2    
   242  122  242 1    
   243  122  243 1    
   244  124  125 1    
   245  124  244 1    
   246  124  245 1    
   247  125  126 1    
   248  126  246 1    
   249  126  247 1    
@<TRIPOS>SUBSTRUCTURE
     1 UNK         1 GROUP             0       ****    0 ROOT    
