@<TRIPOS>MOLECULE
3R540
247   249    1
SMALL
USER_CHARGES


@<TRIPOS>ATOM
      1 CA          5.0959  -15.1728  -46.5711 C.3       0 UNK        -0.1800 
      2 C           3.6306  -14.9878  -46.9421 C.2       0 UNK         0.5000 
      3 O           2.8829  -15.9641  -46.9827 O.2       0 UNK        -0.5000 
      4 N           3.2311  -13.7412  -47.2159 N.am      1 UNK        -0.5000 
      5 CA          1.8681  -13.3356  -47.5619 C.3       1 UNK         0.1400 
      6 C6          1.6641  -13.1345  -49.0907 C.3       23 UNK        -0.0398 
      7 S7          2.1505  -14.5558  -50.1234 S.3       23 UNK        -0.2404 
      8 C8          0.7656  -15.7013  -49.8470 C.3       23 UNK        -0.0205 
      9 C9          1.0142  -17.0041  -50.5866 C.ar      23 UNK        -0.0193 
     10 C10         0.6313  -17.1332  -51.9249 C.ar      23 UNK        -0.1150 
     11 C11         0.9164  -18.3033  -52.6329 C.ar      23 UNK        -0.0193 
     12 C12         1.5791  -19.3520  -51.9893 C.ar      23 UNK        -0.1150 
     13 C13         1.9573  -19.2388  -50.6481 C.ar      23 UNK        -0.0193 
     14 C14         1.6677  -18.0634  -49.9486 C.ar      23 UNK        -0.1150 
     15 C15         2.7174  -20.3727  -49.9776 C.3       23 UNK        -0.0205 
     16 S16         1.6394  -21.7886  -49.6049 S.3       23 UNK        -0.2404 
     17 C17         0.7823  -21.2163  -48.1032 C.3       23 UNK        -0.0398 
     18 CA          0.1906  -22.3955  -47.2896 C.3       11 UNK         0.1400 
     19 N           0.1618  -22.1054  -45.8518 N.am      11 UNK        -0.5000 
     20 C          -0.1263  -23.0010  -44.8965 C.2       10 UNK         0.5000 
     21 O          -0.3755  -24.1838  -45.1227 O.2       10 UNK        -0.5000 
     22 CA         -0.2042  -22.4799  -43.4506 C.3       10 UNK         0.1400 
     23 CB          1.1978  -22.3324  -42.8418 C.3       10 UNK        -0.1800 
     24 N          -0.9310  -21.2135  -43.3527 N.am      10 UNK        -0.5000 
     25 C          -2.2286  -21.0675  -43.6575 C.2       9 UNK         0.5000 
     26 O          -2.9576  -21.9995  -43.9930 O.2       9 UNK        -0.5000 
     27 CA         -2.8026  -19.6411  -43.6334 C.3       9 UNK         0.1400 
     28 CB         -3.1780  -19.2308  -42.2022 C.3       9 UNK        -0.1800 
     29 N          -1.8929  -18.6526  -44.2116 N.am      9 UNK        -0.5000 
     30 C          -1.4710  -18.6475  -45.4849 C.2       8 UNK         0.5000 
     31 O          -1.8290  -19.4677  -46.3302 O.2       8 UNK        -0.5000 
     32 CA         -0.4271  -17.5789  -45.8583 C.3       8 UNK         0.1400 
     33 CB         -1.0891  -16.2045  -46.0343 C.3       8 UNK        -0.1800 
     34 N           0.6454  -17.4893  -44.8666 N.am      8 UNK        -0.5000 
     35 C           1.4895  -18.4904  -44.5771 C.2       7 UNK         0.5000 
     36 O           1.4832  -19.5803  -45.1496 O.2       7 UNK        -0.5000 
     37 CA          2.4561  -18.2624  -43.4034 C.3       7 UNK         0.1400 
     38 CB          3.6937  -17.4711  -43.8470 C.3       7 UNK        -0.1800 
     39 N           1.8013  -17.5768  -42.2896 N.am      7 UNK        -0.5000 
     40 C           0.8760  -18.1413  -41.5005 C.2       6 UNK         0.5000 
     41 O           0.5093  -19.3108  -41.6074 O.2       6 UNK        -0.5000 
     42 CA          0.2218  -17.2365  -40.4403 C.3       6 UNK         0.1400 
     43 CB          1.0838  -17.1788  -39.1706 C.3       6 UNK        -0.1800 
     44 N          -0.0167  -15.8775  -40.9276 N.am      6 UNK        -0.5000 
     45 C          -0.8709  -15.5644  -41.9121 C.2       5 UNK         0.5000 
     46 O          -1.5785  -16.3881  -42.4888 O.2       5 UNK        -0.5000 
     47 CA         -0.9104  -14.0925  -42.3574 C.3       5 UNK         0.1400 
     48 CB         -1.9558  -13.3116  -41.5482 C.3       5 UNK        -0.1800 
     49 N           0.3837  -13.4173  -42.2513 N.am      5 UNK        -0.5000 
     50 C           1.4893  -13.7498  -42.9299 C.2       4 UNK         0.5000 
     51 O           1.5509  -14.7133  -43.6958 O.2       4 UNK        -0.5000 
     52 CA          2.7062  -12.8271  -42.7194 C.3       4 UNK         0.1400 
     53 CB          3.9582  -13.2927  -43.4794 C.3       4 UNK        -0.1800 
     54 N           2.3727  -11.4652  -43.1338 N.am      4 UNK        -0.5000 
     55 C           1.7711  -10.5537  -42.3565 C.2       3 UNK         0.5000 
     56 O           1.5273  -10.7347  -41.1628 O.2       3 UNK        -0.5000 
     57 CA          1.3059   -9.2518  -43.0359 C.3       3 UNK         0.1400 
     58 CB          2.4050   -8.1815  -42.9640 C.3       3 UNK        -0.1800 
     59 N           0.9125   -9.4446  -44.4329 N.am      3 UNK        -0.5000 
     60 C          -0.1105  -10.2030  -44.8522 C.2       2 UNK         0.5000 
     61 O          -0.8870  -10.7873  -44.0961 O.2       2 UNK        -0.5000 
     62 CA         -0.2922  -10.3538  -46.3746 C.3       2 UNK         0.1400 
     63 CB          0.2557   -9.1580  -47.1860 C.3       2 UNK        -0.1800 
     64 N           0.2613  -11.6150  -46.8814 N.am      2 UNK        -0.5000 
     65 C           1.5323  -12.0383  -46.7992 C.2       1 UNK         0.5000 
     66 O           2.4220  -11.4327  -46.1920 O.2       1 UNK        -0.5000 
     67 C          -1.1936  -22.8229  -47.8277 C.2       11 UNK         0.5000 
     68 O          -1.2795  -23.7311  -48.6595 O.2       11 UNK        -0.5000 
     69 N          -2.2557  -22.1779  -47.3261 N.am      12 UNK        -0.5000 
     70 CA         -3.6468  -22.5200  -47.6091 C.3       12 UNK         0.1400 
     71 CB         -4.5732  -21.4108  -47.0892 C.3       12 UNK        -0.1800 
     72 C          -4.0339  -23.8923  -47.0321 C.2       12 UNK         0.5000 
     73 O          -4.5541  -24.7305  -47.7685 O.2       12 UNK        -0.5000 
     74 N          -3.7319  -24.1134  -45.7441 N.am      13 UNK        -0.5000 
     75 CA         -4.0017  -25.3539  -45.0098 C.3       13 UNK         0.1400 
     76 CB         -3.6640  -25.1527  -43.5251 C.3       13 UNK        -0.1800 
     77 C          -3.2555  -26.5791  -45.5696 C.2       13 UNK         0.5000 
     78 O          -3.8094  -27.6788  -45.5720 O.2       13 UNK        -0.5000 
     79 N          -2.0316  -26.3625  -46.0694 N.am      14 UNK        -0.5000 
     80 CA         -1.2148  -27.3594  -46.7650 C.3       14 UNK         0.1400 
     81 CB          0.2305  -26.8410  -46.8469 C.3       14 UNK        -0.1800 
     82 C          -1.7310  -27.7115  -48.1761 C.2       14 UNK         0.5000 
     83 O          -1.2166  -28.6537  -48.7795 O.2       14 UNK        -0.5000 
     84 N          -2.7035  -26.9395  -48.6873 N.am      15 UNK        -0.5000 
     85 CA         -3.2886  -27.0047  -50.0304 C.3       15 UNK         0.1400 
     86 CB         -3.9870  -28.3576  -50.2786 C.3       15 UNK        -0.1800 
     87 C          -2.2956  -26.6230  -51.1481 C.2       15 UNK         0.5000 
     88 O          -2.5204  -26.9659  -52.3095 O.2       15 UNK        -0.5000 
     89 N          -1.2281  -25.8990  -50.7847 N.am      16 UNK        -0.5000 
     90 CA         -0.2323  -25.3644  -51.7083 C.3       16 UNK         0.1400 
     91 CB          1.0944  -25.1565  -50.9636 C.3       16 UNK        -0.1800 
     92 C          -0.7436  -24.0672  -52.3541 C.2       16 UNK         0.5000 
     93 O          -0.6989  -23.9411  -53.5782 O.2       16 UNK        -0.5000 
     94 N          -1.2760  -23.1587  -51.5245 N.am      17 UNK        -0.5000 
     95 CA         -2.0207  -21.9824  -51.9783 C.3       17 UNK         0.1400 
     96 CB         -1.8353  -20.8274  -50.9825 C.3       17 UNK        -0.1800 
     97 C          -3.5171  -22.2925  -52.1504 C.2       17 UNK         0.5000 
     98 O          -4.1816  -21.6309  -52.9487 O.2       17 UNK        -0.5000 
     99 N          -4.0191  -23.2803  -51.3904 N.am      18 UNK        -0.5000 
    100 CA        -5.4224  -23.6974  -51.2967 C.3       18 UNK         0.1400 
    101 CB        -5.8465  -24.4321  -52.5871 C.3       18 UNK        -0.1800 
    102 C         -6.3394  -22.5180  -50.9044 C.2       18 UNK         0.5000 
    103 O         -5.9578  -21.7188  -50.0480 O.2       18 UNK        -0.5000 
    104 N         -7.5050  -22.3852  -51.5487 N.am      19 UNK        -0.5000 
    105 CA        -8.4411  -21.2691  -51.3788 C.3       19 UNK         0.1400 
    106 CB        -9.8512  -21.7489  -51.7689 C.3       19 UNK        -0.1800 
    107 C         -7.9953  -20.0164  -52.1696 C.2       19 UNK         0.5000 
    108 O         -8.7911  -19.4429  -52.9156 O.2       19 UNK        -0.5000 
    109 N         -6.7164  -19.6405  -52.0137 N.am      20 UNK        -0.5000 
    110 CA        -5.9939  -18.5816  -52.7294 C.3       20 UNK         0.1400 
    111 CB        -6.5153  -17.1900  -52.3166 C.3       20 UNK        -0.1800 
    112 C         -5.9870  -18.7962  -54.2591 C.2       20 UNK         0.5000 
    113 O         -6.1108  -17.8396  -55.0270 O.2       20 UNK        -0.5000 
    114 N         -5.8362  -20.0611  -54.6752 N.am      21 UNK        -0.5000 
    115 CA        -5.8748  -20.5121  -56.0679 C.3       21 UNK         0.1400 
    116 CB        -5.8952  -22.0481  -56.0913 C.3       21 UNK        -0.1800 
    117 C         -4.7100  -19.9691  -56.9156 C.2       21 UNK         0.5000 
    118 O         -4.8653  -19.7913  -58.1244 O.2       21 UNK        -0.5000 
    119 N         -3.5793  -19.6930  -56.2577 N.am      22 UNK        -0.5000 
    120 CA        -2.4058  -19.0171  -56.8249 C.3       22 UNK         0.1400 
    121 C         -2.5309  -17.4655  -56.9221 C.2       22 UNK         0.5000 
    122 N         -3.6138  -16.8434  -56.4678 N.am      22 UNK        -0.7600 
    123 O         -1.6304  -16.8103  -57.4398 O.2       22 UNK        -0.5000 
    124 C124       -1.1063  -19.4680  -56.1118 C.3       23 UNK        -0.0398 
    125 S125       -1.1022  -19.1626  -54.3093 S.3       23 UNK        -0.2404 
    126 C126        0.5435  -18.4236  -54.1010 C.3       23 UNK        -0.0205 
    127 H127        5.1879  -15.4799  -45.5301 H         1 UNK         0.0600 
    128 H128        5.6657  -14.2529  -46.7045 H         1 UNK         0.0600 
    129 H129        5.5461  -15.9437  -47.1963 H         1 UNK         0.0600 
    130 H130        3.8695  -12.9663  -47.0941 H         1 UNK         0.3000 
    131 H131        1.1686  -14.0919  -47.2082 H         1 UNK         0.0600 
    132 H132        0.6233  -12.8977  -49.3169 H         1 UNK         0.0800 
    133 H133        2.2470  -12.2785  -49.4358 H         1 UNK         0.0800 
    134 H134       -0.1664  -15.2456  -50.1847 H         1 UNK         0.0800 
    135 H135        0.6543  -15.8950  -48.7791 H         1 UNK         0.0800 
    136 H136        0.1337  -16.3127  -52.4227 H         1 UNK         0.1150 
    137 H137        1.8058  -20.2582  -52.5336 H         1 UNK         0.1150 
    138 H138        1.9753  -17.9586  -48.9169 H         1 UNK         0.1150 
    139 H139        3.2125  -20.0297  -49.0678 H         1 UNK         0.0800 
    140 H140        3.5126  -20.7082  -50.6448 H         1 UNK         0.0800 
    141 H141        0.0254  -20.4738  -48.3641 H         1 UNK         0.0800 
    142 H142        1.5216  -20.6873  -47.5019 H         1 UNK         0.0800 
    143 H143        0.8525  -23.2570  -47.4029 H         1 UNK         0.0600 
    144 H144        0.3927  -21.1554  -45.5746 H         1 UNK         0.3000 
    145 H145       -0.7486  -23.2207  -42.8615 H         1 UNK         0.0600 
    146 H146        1.7452  -23.2744  -42.8910 H         1 UNK         0.0600 
    147 H147        1.1425  -22.0435  -41.7922 H         1 UNK         0.0600 
    148 H148        1.7899  -21.5814  -43.3642 H         1 UNK         0.0600 
    149 H149       -0.4061  -20.4091  -43.0253 H         1 UNK         0.3000 
    150 H150       -3.7136  -19.6409  -44.2350 H         1 UNK         0.0600 
    151 H151       -2.3014  -19.1747  -41.5564 H         1 UNK         0.0600 
    152 H152       -3.8687  -19.9487  -41.7581 H         1 UNK         0.0600 
    153 H153       -3.6674  -18.2569  -42.1873 H         1 UNK         0.0600 
    154 H154       -1.5855  -17.9075  -43.5913 H         1 UNK         0.3000 
    155 H155        0.0259  -17.8647  -46.8103 H         1 UNK         0.0600 
    156 H156       -0.3514  -15.4402  -46.2683 H         1 UNK         0.0600 
    157 H157       -1.6182  -15.8889  -45.1354 H         1 UNK         0.0600 
    158 H158       -1.8123  -16.2241  -46.8504 H         1 UNK         0.0600 
    159 H159        0.7513  -16.6097  -44.3749 H         1 UNK         0.3000 
    160 H160        2.7919  -19.2408  -43.0531 H         1 UNK         0.0600 
    161 H161        3.4263  -16.4748  -44.1958 H         1 UNK         0.0600 
    162 H162        4.2059  -17.9763  -44.6669 H         1 UNK         0.0600 
    163 H163        4.4085  -17.3620  -43.0315 H         1 UNK         0.0600 
    164 H164        2.0007  -16.5930  -42.1824 H         1 UNK         0.3000 
    165 H165       -0.7430  -17.6757  -40.1781 H         1 UNK         0.0600 
    166 H166        0.5917  -16.6040  -38.3858 H         1 UNK         0.0600 
    167 H167        1.2625  -18.1797  -38.7752 H         1 UNK         0.0600 
    168 H168        2.0560  -16.7230  -39.3622 H         1 UNK         0.0600 
    169 H169        0.5243  -15.1366  -40.5069 H         1 UNK         0.3000 
    170 H170       -1.2071  -14.0727  -43.4080 H         1 UNK         0.0600 
    171 H171       -2.0522  -12.2890  -41.9138 H         1 UNK         0.0600 
    172 H172       -1.6958  -13.2671  -40.4899 H         1 UNK         0.0600 
    173 H173       -2.9388  -13.7779  -41.6270 H         1 UNK         0.0600 
    174 H174        0.4194  -12.5922  -41.6655 H         1 UNK         0.3000 
    175 H175        2.9461  -12.8424  -41.6543 H         1 UNK         0.0600 
    176 H176        4.2295  -14.3129  -43.2064 H         1 UNK         0.0600 
    177 H177        3.8027  -13.2657  -44.5556 H         1 UNK         0.0600 
    178 H178        4.8140  -12.6572  -43.2520 H         1 UNK         0.0600 
    179 H179        2.4743  -11.2636  -44.1235 H         1 UNK         0.3000 
    180 H180        0.4339   -8.8867  -42.4894 H         1 UNK         0.0600 
    181 H181        3.2963   -8.4822  -43.5163 H         1 UNK         0.0600 
    182 H182        2.7046   -7.9984  -41.9312 H         1 UNK         0.0600 
    183 H183        2.0593   -7.2324  -43.3740 H         1 UNK         0.0600 
    184 H184        1.5162   -9.0361  -45.1317 H         1 UNK         0.3000 
    185 H185       -1.3686  -10.3959  -46.5483 H         1 UNK         0.0600 
    186 H186       -0.1568   -8.2158  -46.8227 H         1 UNK         0.0600 
    187 H187        1.3426   -9.0836  -47.1408 H         1 UNK         0.0600 
    188 H188       -0.0215   -9.2445  -48.2366 H         1 UNK         0.0600 
    189 H189       -0.4080  -12.2023  -47.3584 H         1 UNK         0.3000 
    190 H190       -2.0983  -21.3919  -46.7022 H         1 UNK         0.3000 
    191 H191       -3.7637  -22.5712  -48.6917 H         1 UNK         0.0600 
    192 H192       -4.3513  -20.4588  -47.5718 H         1 UNK         0.0600 
    193 H193       -5.6172  -21.6453  -47.2997 H         1 UNK         0.0600 
    194 H194       -4.4809  -21.2697  -46.0134 H         1 UNK         0.0600 
    195 H195       -3.3226  -23.3548  -45.2023 H         1 UNK         0.3000 
    196 H196       -5.0714  -25.5569  -45.0909 H         1 UNK         0.0600 
    197 H197       -3.8712  -26.0556  -42.9494 H         1 UNK         0.0600 
    198 H198       -4.2573  -24.3476  -43.0915 H         1 UNK         0.0600 
    199 H199       -2.6111  -24.9059  -43.3840 H         1 UNK         0.0600 
    200 H200       -1.6128  -25.4445  -45.9466 H         1 UNK         0.3000 
    201 H201       -1.2176  -28.2793  -46.1770 H         1 UNK         0.0600 
    202 H202        0.8825  -27.5626  -47.3407 H         1 UNK         0.0600 
    203 H203        0.6418  -26.6627  -45.8533 H         1 UNK         0.0600 
    204 H204        0.2901  -25.9068  -47.4072 H         1 UNK         0.0600 
    205 H205       -3.0698  -26.1957  -48.1039 H         1 UNK         0.3000 
    206 H206       -4.0626  -26.2386  -50.0495 H         1 UNK         0.0600 
    207 H207       -4.6734  -28.6011  -49.4676 H         1 UNK         0.0600 
    208 H208       -4.5710  -28.3316  -51.1992 H         1 UNK         0.0600 
    209 H209       -3.2717  -29.1749  -50.3715 H         1 UNK         0.0600 
    210 H210       -1.1480  -25.6101  -49.8178 H         1 UNK         0.3000 
    211 H211       -0.0558  -26.0883  -52.5069 H         1 UNK         0.0600 
    212 H212        0.9610  -24.5645  -50.0591 H         1 UNK         0.0600 
    213 H213        1.8249  -24.6453  -51.5919 H         1 UNK         0.0600 
    214 H214        1.5284  -26.1118  -50.6684 H         1 UNK         0.0600 
    215 H215       -1.2407  -23.3316  -50.5241 H         1 UNK         0.3000 
    216 H216       -1.6353  -21.6596  -52.9461 H         1 UNK         0.0600 
    217 H217       -2.3432  -19.9284  -51.3339 H         1 UNK         0.0600 
    218 H218       -0.7835  -20.5732  -50.8652 H         1 UNK         0.0600 
    219 H219       -2.2389  -21.0653  -49.9994 H         1 UNK         0.0600 
    220 H220       -3.3849  -23.7339  -50.7517 H         1 UNK         0.3000 
    221 H221       -5.4839  -24.4066  -50.4712 H         1 UNK         0.0600 
    222 H222       -5.8675  -23.7647  -53.4492 H         1 UNK         0.0600 
    223 H223       -5.1539  -25.2424  -52.8167 H         1 UNK         0.0600 
    224 H224       -6.8350  -24.8807  -52.4842 H         1 UNK         0.0600 
    225 H225       -7.7370  -23.0555  -52.2671 H         1 UNK         0.3000 
    226 H226       -8.4698  -20.9867  -50.3243 H         1 UNK         0.0600 
    227 H227      -10.1536  -22.6097  -51.1722 H         1 UNK         0.0600 
    228 H228       -9.9029  -22.0343  -52.8203 H         1 UNK         0.0600 
    229 H229      -10.5923  -20.9661  -51.6026 H         1 UNK         0.0600 
    230 H230       -6.1580  -20.1978  -51.3750 H         1 UNK         0.3000 
    231 H231       -4.9530  -18.6533  -52.4102 H         1 UNK         0.0600 
    232 H232       -7.5401  -17.0256  -52.6508 H         1 UNK         0.0600 
    233 H233       -5.9001  -16.3989  -52.7469 H         1 UNK         0.0600 
    234 H234       -6.4912  -17.0657  -51.2340 H         1 UNK         0.0600 
    235 H235       -5.6108  -20.7653  -53.9789 H         1 UNK         0.3000 
    236 H236       -6.8036  -20.1482  -56.5119 H         1 UNK         0.0600 
    237 H237       -4.9997  -22.4682  -55.6311 H         1 UNK         0.0600 
    238 H238       -6.7617  -22.4386  -55.5574 H         1 UNK         0.0600 
    239 H239       -5.9472  -22.4234  -57.1141 H         1 UNK         0.0600 
    240 H240       -3.5464  -19.8711  -55.2638 H         1 UNK         0.3000 
    241 H241       -2.3135  -19.3495  -57.8606 H         1 UNK         0.0600 
    242 H242       -3.6724  -15.8409  -56.5501 H         1 UNK         0.3800 
    243 H243       -4.3841  -17.3521  -56.0507 H         1 UNK         0.3800 
    244 H244       -0.2386  -18.9953  -56.5751 H         1 UNK         0.0800 
    245 H245       -0.9659  -20.5392  -56.2624 H         1 UNK         0.0800 
    246 H246        1.2856  -19.0350  -54.6170 H         1 UNK         0.0800 
    247 H247        0.5630  -17.4431  -54.5797 H         1 UNK         0.0800 
@<TRIPOS>BOND
     1    1    2 1    
     2    1  127 1    
     3    1  128 1    
     4    1  129 1    
     5    2    3 2    
     6    2    4 am   BACKBONE|DICT|INTERRES
     7    4    5 1    
     8    4  130 1    
     9    5    6 1    
    10    5   65 1    
    11    5  131 1    
    12    6    7 1    
    13    6  132 1    
    14    6  133 1    
    15    7    8 1    
    16    8    9 1    
    17    8  134 1    
    18    8  135 1    
    19    9   10 ar   
    20    9   14 ar   
    21   10   11 ar   
    22   10  136 1    
    23   11   12 ar   
    24   11  126 1    
    25   12   13 ar   
    26   12  137 1    
    27   13   14 ar   
    28   13   15 1    
    29   14  138 1    
    30   15   16 1    
    31   15  139 1    
    32   15  140 1    
    33   16   17 1    
    34   17   18 1    
    35   17  141 1    
    36   17  142 1    
    37   18   19 1    
    38   18   67 1    
    39   18  143 1    
    40   19   20 am   BACKBONE|DICT|INTERRES
    41   19  144 1    
    42   20   21 2    
    43   20   22 1    
    44   22   23 1    
    45   22   24 1    
    46   22  145 1    
    47   23  146 1    
    48   23  147 1    
    49   23  148 1    
    50   24   25 am   BACKBONE|DICT|INTERRES
    51   24  149 1    
    52   25   26 2    
    53   25   27 1    
    54   27   28 1    
    55   27   29 1    
    56   27  150 1    
    57   28  151 1    
    58   28  152 1    
    59   28  153 1    
    60   29   30 am   BACKBONE|DICT|INTERRES
    61   29  154 1    
    62   30   31 2    
    63   30   32 1    
    64   32   33 1    
    65   32   34 1    
    66   32  155 1    
    67   33  156 1    
    68   33  157 1    
    69   33  158 1    
    70   34   35 am   BACKBONE|DICT|INTERRES
    71   34  159 1    
    72   35   36 2    
    73   35   37 1    
    74   37   38 1    
    75   37   39 1    
    76   37  160 1    
    77   38  161 1    
    78   38  162 1    
    79   38  163 1    
    80   39   40 am   BACKBONE|DICT|INTERRES
    81   39  164 1    
    82   40   41 2    
    83   40   42 1    
    84   42   43 1    
    85   42   44 1    
    86   42  165 1    
    87   43  166 1    
    88   43  167 1    
    89   43  168 1    
    90   44   45 am   BACKBONE|DICT|INTERRES
    91   44  169 1    
    92   45   46 2    
    93   45   47 1    
    94   47   48 1    
    95   47   49 1    
    96   47  170 1    
    97   48  171 1    
    98   48  172 1    
    99   48  173 1    
   100   49   50 am   BACKBONE|DICT|INTERRES
   101   49  174 1    
   102   50   51 2    
   103   50   52 1    
   104   52   53 1    
   105   52   54 1    
   106   52  175 1    
   107   53  176 1    
   108   53  177 1    
   109   53  178 1    
   110   54   55 am   BACKBONE|DICT|INTERRES
   111   54  179 1    
   112   55   56 2    
   113   55   57 1    
   114   57   58 1    
   115   57   59 1    
   116   57  180 1    
   117   58  181 1    
   118   58  182 1    
   119   58  183 1    
   120   59   60 am   BACKBONE|DICT|INTERRES
   121   59  184 1    
   122   60   61 2    
   123   60   62 1    
   124   62   63 1    
   125   62   64 1    
   126   62  185 1    
   127   63  186 1    
   128   63  187 1    
   129   63  188 1    
   130   64   65 am   BACKBONE|DICT|INTERRES
   131   64  189 1    
   132   65   66 2    
   133   67   68 2    
   134   67   69 am   BACKBONE|DICT|INTERRES
   135   69   70 1    
   136   69  190 1    
   137   70   71 1    
   138   70   72 1    
   139   70  191 1    
   140   71  192 1    
   141   71  193 1    
   142   71  194 1    
   143   72   73 2    
   144   72   74 am   BACKBONE|DICT|INTERRES
   145   74   75 1    
   146   74  195 1    
   147   75   76 1    
   148   75   77 1    
   149   75  196 1    
   150   76  197 1    
   151   76  198 1    
   152   76  199 1    
   153   77   78 2    
   154   77   79 am   BACKBONE|DICT|INTERRES
   155   79   80 1    
   156   79  200 1    
   157   80   81 1    
   158   80   82 1    
   159   80  201 1    
   160   81  202 1    
   161   81  203 1    
   162   81  204 1    
   163   82   83 2    
   164   82   84 am   BACKBONE|DICT|INTERRES
   165   84   85 1    
   166   84  205 1    
   167   85   86 1    
   168   85   87 1    
   169   85  206 1    
   170   86  207 1    
   171   86  208 1    
   172   86  209 1    
   173   87   88 2    
   174   87   89 am   BACKBONE|DICT|INTERRES
   175   89   90 1    
   176   89  210 1    
   177   90   91 1    
   178   90   92 1    
   179   90  211 1    
   180   91  212 1    
   181   91  213 1    
   182   91  214 1    
   183   92   93 2    
   184   92   94 am   BACKBONE|DICT|INTERRES
   185   94   95 1    
   186   94  215 1    
   187   95   96 1    
   188   95   97 1    
   189   95  216 1    
   190   96  217 1    
   191   96  218 1    
   192   96  219 1    
   193   97   98 2    
   194   97   99 am   BACKBONE|DICT|INTERRES
   195   99  100 1    
   196   99  220 1    
   197  100  101 1    
   198  100  102 1    
   199  100  221 1    
   200  101  222 1    
   201  101  223 1    
   202  101  224 1    
   203  102  103 2    
   204  102  104 am   BACKBONE|DICT|INTERRES
   205  104  105 1    
   206  104  225 1    
   207  105  106 1    
   208  105  107 1    
   209  105  226 1    
   210  106  227 1    
   211  106  228 1    
   212  106  229 1    
   213  107  108 2    
   214  107  109 am   BACKBONE|DICT|INTERRES
   215  109  110 1    
   216  109  230 1    
   217  110  111 1    
   218  110  112 1    
   219  110  231 1    
   220  111  232 1    
   221  111  233 1    
   222  111  234 1    
   223  112  113 2    
   224  112  114 am   BACKBONE|DICT|INTERRES
   225  114  115 1    
   226  114  235 1    
   227  115  116 1    
   228  115  117 1    
   229  115  236 1    
   230  116  237 1    
   231  116  238 1    
   232  116  239 1    
   233  117  118 2    
   234  117  119 am   BACKBONE|DICT|INTERRES
   235  119  120 1    
   236  119  240 1    
   237  120  121 1    
   238  120  124 1    
   239  120  241 1    
   240  121  122 am   BACKBONE|DICT|INTERRES
   241  121  123 2    
   242  122  242 1    
   243  122  243 1    
   244  124  125 1    
   245  124  244 1    
   246  124  245 1    
   247  125  126 1    
   248  126  246 1    
   249  126  247 1    
@<TRIPOS>SUBSTRUCTURE
     1 UNK         1 GROUP             0       ****    0 ROOT    
