@<TRIPOS>MOLECULE
3R540
247   249    1
SMALL
USER_CHARGES


@<TRIPOS>ATOM
      1 CA         -4.0258  -15.0334  -50.8184 C.3       0 UNK        -0.1800 
      2 C          -3.1739  -14.9265  -49.5621 C.2       0 UNK         0.5000 
      3 O          -3.3646  -14.0090  -48.7629 O.2       0 UNK        -0.5000 
      4 N          -2.2400  -15.8693  -49.3720 N.am      1 UNK        -0.5000 
      5 CA         -1.2588  -15.8729  -48.2719 C.3       1 UNK         0.1400 
      6 C6         -0.0376  -16.7930  -48.5309 C.3       23 UNK        -0.0398 
      7 S7          0.7285  -16.5066  -50.1595 S.3       23 UNK        -0.2404 
      8 C8          2.3750  -17.2746  -49.9912 C.3       23 UNK        -0.0205 
      9 C9          2.5826  -18.4367  -50.9585 C.ar      23 UNK        -0.0193 
     10 C10         2.4358  -18.2485  -52.3367 C.ar      23 UNK        -0.1150 
     11 C11         2.6565  -19.2997  -53.2311 C.ar      23 UNK        -0.0193 
     12 C12         3.0279  -20.5509  -52.7335 C.ar      23 UNK        -0.1150 
     13 C13         3.1869  -20.7633  -51.3605 C.ar      23 UNK        -0.0193 
     14 C14         2.9711  -19.6918  -50.4803 C.ar      23 UNK        -0.1150 
     15 C15         3.6267  -22.1564  -50.8993 C.3       23 UNK        -0.0205 
     16 S16         3.5074  -22.4977  -49.1092 S.3       23 UNK        -0.2404 
     17 C17         1.7039  -22.4137  -48.8570 C.3       23 UNK        -0.0398 
     18 CA          1.2488  -23.0546  -47.5249 C.3       11 UNK         0.1400 
     19 N           1.9572  -22.5162  -46.3604 N.am      11 UNK        -0.5000 
     20 C           1.8879  -23.0097  -45.1185 C.2       10 UNK         0.5000 
     21 O           1.1925  -23.9772  -44.8109 O.2       10 UNK        -0.5000 
     22 CA          2.7135  -22.3037  -44.0292 C.3       10 UNK         0.1400 
     23 CB          4.1844  -22.7589  -44.0523 C.3       10 UNK        -0.1800 
     24 N           2.5974  -20.8425  -44.0421 N.am      10 UNK        -0.5000 
     25 C           3.0513  -19.9487  -44.9315 C.2       9 UNK         0.5000 
     26 O           3.6480  -20.2457  -45.9665 O.2       9 UNK        -0.5000 
     27 CA          2.7606  -18.4671  -44.6233 C.3       9 UNK         0.1400 
     28 CB          1.5019  -18.0144  -45.3745 C.3       9 UNK        -0.1800 
     29 N           2.5856  -18.2060  -43.1928 N.am      9 UNK        -0.5000 
     30 C           3.5764  -18.2225  -42.2891 C.2       8 UNK         0.5000 
     31 O           4.7668  -18.3419  -42.5807 O.2       8 UNK        -0.5000 
     32 CA          3.1636  -18.1362  -40.8076 C.3       8 UNK         0.1400 
     33 CB          3.1210  -16.6788  -40.3254 C.3       8 UNK        -0.1800 
     34 N           1.8729  -18.7832  -40.5537 N.am      8 UNK        -0.5000 
     35 C           1.6984  -20.1131  -40.5183 C.2       7 UNK         0.5000 
     36 O           2.6106  -20.9263  -40.6629 O.2       7 UNK        -0.5000 
     37 CA          0.2611  -20.6246  -40.3196 C.3       7 UNK         0.1400 
     38 CB         -0.0873  -20.6980  -38.8260 C.3       7 UNK        -0.1800 
     39 N          -0.7346  -19.8023  -41.0044 N.am      7 UNK        -0.5000 
     40 C          -0.8807  -19.6974  -42.3298 C.2       6 UNK         0.5000 
     41 O          -0.1838  -20.3054  -43.1414 O.2       6 UNK        -0.5000 
     42 CA         -1.9624  -18.7272  -42.8387 C.3       6 UNK         0.1400 
     43 CB         -3.3707  -19.3391  -42.7165 C.3       6 UNK        -0.1800 
     44 N          -1.8883  -17.3902  -42.2390 N.am      6 UNK        -0.5000 
     45 C          -2.1057  -17.0109  -40.9725 C.2       5 UNK         0.5000 
     46 O          -2.4823  -17.7841  -40.0904 O.2       5 UNK        -0.5000 
     47 CA         -1.8364  -15.5357  -40.6010 C.3       5 UNK         0.1400 
     48 CB         -0.7985  -15.4376  -39.4646 C.3       5 UNK        -0.1800 
     49 N          -1.4612  -14.6434  -41.7085 N.am      5 UNK        -0.5000 
     50 C          -0.3781  -14.6853  -42.4984 C.2       4 UNK         0.5000 
     51 O           0.4534  -15.5931  -42.4681 O.2       4 UNK        -0.5000 
     52 CA         -0.2527  -13.5407  -43.5224 C.3       4 UNK         0.1400 
     53 CB          0.9564  -13.7040  -44.4612 C.3       4 UNK        -0.1800 
     54 N          -1.4739  -13.4553  -44.3224 N.am      4 UNK        -0.5000 
     55 C          -2.5237  -12.6635  -44.0580 C.2       3 UNK         0.5000 
     56 O          -2.5458  -11.8585  -43.1268 O.2       3 UNK        -0.5000 
     57 CA         -3.7757  -12.8215  -44.9465 C.3       3 UNK         0.1400 
     58 CB         -3.7704  -11.7755  -46.0709 C.3       3 UNK        -0.1800 
     59 N          -3.9009  -14.1544  -45.5380 N.am      3 UNK        -0.5000 
     60 C          -4.1010  -15.2879  -44.8470 C.2       2 UNK         0.5000 
     61 O          -4.3177  -15.3186  -43.6357 O.2       2 UNK        -0.5000 
     62 CA         -3.9892  -16.6136  -45.6287 C.3       2 UNK         0.1400 
     63 CB         -5.3815  -17.1497  -45.9896 C.3       2 UNK        -0.1800 
     64 N          -3.1808  -16.5090  -46.8466 N.am      2 UNK        -0.5000 
     65 C          -1.8864  -16.1578  -46.8879 C.2       1 UNK         0.5000 
     66 O          -1.2063  -16.0048  -45.8744 O.2       1 UNK        -0.5000 
     67 C          -0.2724  -22.8939  -47.3693 C.2       11 UNK         0.5000 
     68 O          -1.0154  -23.8578  -47.5500 O.2       11 UNK        -0.5000 
     69 N          -0.7043  -21.6782  -47.0040 N.am      12 UNK        -0.5000 
     70 CA         -2.1101  -21.2948  -46.8656 C.3       12 UNK         0.1400 
     71 CB         -2.2101  -19.7748  -46.6979 C.3       12 UNK        -0.1800 
     72 C          -2.8612  -22.0269  -45.7405 C.2       12 UNK         0.5000 
     73 O          -4.0845  -22.1194  -45.8084 O.2       12 UNK        -0.5000 
     74 N          -2.1359  -22.5811  -44.7599 N.am      13 UNK        -0.5000 
     75 CA         -2.6974  -23.4467  -43.7204 C.3       13 UNK         0.1400 
     76 CB         -1.6337  -23.7031  -42.6434 C.3       13 UNK        -0.1800 
     77 C          -3.2529  -24.7796  -44.2687 C.2       13 UNK         0.5000 
     78 O          -4.1285  -25.3671  -43.6323 O.2       13 UNK        -0.5000 
     79 N          -2.7516  -25.2218  -45.4313 N.am      14 UNK        -0.5000 
     80 CA         -3.2064  -26.4179  -46.1378 C.3       14 UNK         0.1400 
     81 CB         -1.9921  -27.3098  -46.4430 C.3       14 UNK        -0.1800 
     82 C          -3.9472  -26.0564  -47.4368 C.2       14 UNK         0.5000 
     83 O          -5.0065  -26.6225  -47.7079 O.2       14 UNK        -0.5000 
     84 N          -3.3742  -25.1383  -48.2269 N.am      15 UNK        -0.5000 
     85 CA         -3.8380  -24.7920  -49.5713 C.3       15 UNK         0.1400 
     86 CB         -2.6610  -24.1947  -50.3615 C.3       15 UNK        -0.1800 
     87 C          -5.0240  -23.8138  -49.5970 C.2       15 UNK         0.5000 
     88 O          -5.7033  -23.7386  -50.6218 O.2       15 UNK        -0.5000 
     89 N          -5.2234  -23.0520  -48.5102 N.am      16 UNK        -0.5000 
     90 CA         -6.1828  -21.9526  -48.3252 C.3       16 UNK         0.1400 
     91 CB         -7.6399  -22.4355  -48.4651 C.3       16 UNK        -0.1800 
     92 C          -5.9011  -20.7275  -49.2183 C.2       16 UNK         0.5000 
     93 O          -5.7207  -19.6251  -48.7025 O.2       16 UNK        -0.5000 
     94 N          -5.8729  -20.9437  -50.5369 N.am      17 UNK        -0.5000 
     95 CA         -5.6690  -19.9289  -51.5653 C.3       17 UNK         0.1400 
     96 CB         -6.1055  -20.5126  -52.9181 C.3       17 UNK        -0.1800 
     97 C          -4.2179  -19.4248  -51.6289 C.2       17 UNK         0.5000 
     98 O          -4.0011  -18.2131  -51.6801 O.2       17 UNK        -0.5000 
     99 N          -3.2569  -20.3635  -51.6452 N.am      18 UNK        -0.5000 
    100 CA        -1.8140  -20.1411  -51.8130 C.3       18 UNK         0.1400 
    101 CB        -1.2008  -19.6136  -50.5043 C.3       18 UNK        -0.1800 
    102 C         -1.5227  -19.2715  -53.0551 C.2       18 UNK         0.5000 
    103 O         -1.7706  -19.7456  -54.1625 O.2       18 UNK        -0.5000 
    104 N         -1.0937  -18.0112  -52.8736 N.am      19 UNK        -0.5000 
    105 CA        -0.8700  -17.0231  -53.9399 C.3       19 UNK         0.1400 
    106 CB        -0.4909  -15.6636  -53.3331 C.3       19 UNK        -0.1800 
    107 C         -2.0470  -16.8356  -54.9174 C.2       19 UNK         0.5000 
    108 O         -1.8119  -16.6006  -56.1039 O.2       19 UNK        -0.5000 
    109 N         -3.2841  -16.9810  -54.4211 N.am      20 UNK        -0.5000 
    110 CA        -4.4997  -16.9177  -55.2338 C.3       20 UNK         0.1400 
    111 CB        -5.7173  -16.7267  -54.3165 C.3       20 UNK        -0.1800 
    112 C         -4.6773  -18.1319  -56.1718 C.2       20 UNK         0.5000 
    113 O         -5.3943  -18.0141  -57.1660 O.2       20 UNK        -0.5000 
    114 N         -4.0152  -19.2576  -55.8653 N.am      21 UNK        -0.5000 
    115 CA        -3.9131  -20.4234  -56.7430 C.3       21 UNK         0.1400 
    116 CB        -3.9169  -21.7123  -55.9058 C.3       21 UNK        -0.1800 
    117 C         -2.6566  -20.3474  -57.6299 C.2       21 UNK         0.5000 
    118 O         -2.7142  -20.7883  -58.7788 O.2       21 UNK        -0.5000 
    119 N         -1.5563  -19.7860  -57.1028 N.am      22 UNK        -0.5000 
    120 CA        -0.3116  -19.5256  -57.8509 C.3       22 UNK         0.1400 
    121 C         -0.5043  -18.5379  -59.0370 C.2       22 UNK         0.5000 
    122 N         -1.2355  -17.4452  -58.8493 N.am      22 UNK        -0.7600 
    123 O          0.0147  -18.7626  -60.1269 O.2       22 UNK        -0.5000 
    124 C124        0.8510  -19.0170  -56.9574 C.3       23 UNK        -0.0398 
    125 S125        1.2030  -20.0444  -55.4927 S.3       23 UNK        -0.2404 
    126 C126        2.5428  -19.0693  -54.7330 C.3       23 UNK        -0.0205 
    127 H127       -4.9578  -15.5543  -50.5993 H         1 UNK         0.0600 
    128 H128       -4.2675  -14.0412  -51.1992 H         1 UNK         0.0600 
    129 H129       -3.5055  -15.5762  -51.6070 H         1 UNK         0.0600 
    130 H130       -2.1519  -16.6125  -50.0480 H         1 UNK         0.3000 
    131 H131       -0.8685  -14.8547  -48.2064 H         1 UNK         0.0600 
    132 H132        0.7213  -16.5939  -47.7741 H         1 UNK         0.0800 
    133 H133       -0.2978  -17.8467  -48.4402 H         1 UNK         0.0800 
    134 H134        2.5341  -17.5967  -48.9612 H         1 UNK         0.0800 
    135 H135        3.1332  -16.5167  -50.1920 H         1 UNK         0.0800 
    136 H136        2.1643  -17.2734  -52.7126 H         1 UNK         0.1150 
    137 H137        3.2069  -21.3621  -53.4258 H         1 UNK         0.1150 
    138 H138        3.1179  -19.8193  -49.4180 H         1 UNK         0.1150 
    139 H139        3.0485  -22.9128  -51.4324 H         1 UNK         0.0800 
    140 H140        4.6656  -22.2992  -51.1993 H         1 UNK         0.0800 
    141 H141        1.2145  -22.9104  -49.6972 H         1 UNK         0.0800 
    142 H142        1.4011  -21.3669  -48.9028 H         1 UNK         0.0800 
    143 H143        1.4631  -24.1245  -47.5738 H         1 UNK         0.0600 
    144 H144        2.5865  -21.7341  -46.5208 H         1 UNK         0.3000 
    145 H145        2.2929  -22.6150  -43.0716 H         1 UNK         0.0600 
    146 H146        4.7502  -22.2975  -43.2427 H         1 UNK         0.0600 
    147 H147        4.2572  -23.8397  -43.9259 H         1 UNK         0.0600 
    148 H148        4.6769  -22.5086  -44.9923 H         1 UNK         0.0600 
    149 H149        2.0265  -20.4722  -43.2933 H         1 UNK         0.3000 
    150 H150        3.6076  -17.8806  -44.9852 H         1 UNK         0.0600 
    151 H151        1.5864  -18.2421  -46.4369 H         1 UNK         0.0600 
    152 H152        1.3524  -16.9399  -45.2762 H         1 UNK         0.0600 
    153 H153        0.6055  -18.5107  -45.0045 H         1 UNK         0.0600 
    154 H154        1.6419  -18.0510  -42.8700 H         1 UNK         0.3000 
    155 H155        3.9270  -18.6550  -40.2234 H         1 UNK         0.0600 
    156 H156        2.3982  -16.0867  -40.8836 H         1 UNK         0.0600 
    157 H157        4.0943  -16.2020  -40.4475 H         1 UNK         0.0600 
    158 H158        2.8605  -16.6192  -39.2686 H         1 UNK         0.0600 
    159 H159        1.0719  -18.1815  -40.4335 H         1 UNK         0.3000 
    160 H160        0.2114  -21.6342  -40.7315 H         1 UNK         0.0600 
    161 H161       -1.0732  -21.1376  -38.6736 H         1 UNK         0.0600 
    162 H162       -0.0857  -19.7105  -38.3627 H         1 UNK         0.0600 
    163 H163        0.6310  -21.3167  -38.2864 H         1 UNK         0.0600 
    164 H164       -1.3566  -19.2442  -40.4246 H         1 UNK         0.3000 
    165 H165       -1.7622  -18.5674  -43.8963 H         1 UNK         0.0600 
    166 H166       -3.4468  -20.2563  -43.3004 H         1 UNK         0.0600 
    167 H167       -3.6196  -19.5916  -41.6855 H         1 UNK         0.0600 
    168 H168       -4.1357  -18.6554  -43.0834 H         1 UNK         0.0600 
    169 H169       -1.5114  -16.6753  -42.8471 H         1 UNK         0.3000 
    170 H170       -2.7826  -15.1500  -40.2189 H         1 UNK         0.0600 
    171 H171       -1.1267  -15.9884  -38.5822 H         1 UNK         0.0600 
    172 H172        0.1676  -15.8456  -39.7610 H         1 UNK         0.0600 
    173 H173       -0.6453  -14.4028  -39.1587 H         1 UNK         0.0600 
    174 H174       -2.1040  -13.8786  -41.8674 H         1 UNK         0.3000 
    175 H175       -0.1072  -12.6176  -42.9578 H         1 UNK         0.0600 
    176 H176        0.8893  -14.6141  -45.0559 H         1 UNK         0.0600 
    177 H177        1.0358  -12.8620  -45.1487 H         1 UNK         0.0600 
    178 H178        1.8875  -13.7502  -43.8951 H         1 UNK         0.0600 
    179 H179       -1.5589  -14.1534  -45.0523 H         1 UNK         0.3000 
    180 H180       -4.6516  -12.6472  -44.3182 H         1 UNK         0.0600 
    181 H181       -2.9218  -11.9123  -46.7426 H         1 UNK         0.0600 
    182 H182       -3.7103  -10.7646  -45.6655 H         1 UNK         0.0600 
    183 H183       -4.6811  -11.8327  -46.6676 H         1 UNK         0.0600 
    184 H184       -3.7457  -14.2168  -46.5373 H         1 UNK         0.3000 
    185 H185       -3.5034  -17.3352  -44.9727 H         1 UNK         0.0600 
    186 H186       -6.0048  -17.2504  -45.1001 H         1 UNK         0.0600 
    187 H187       -5.9006  -16.4870  -46.6830 H         1 UNK         0.0600 
    188 H188       -5.3178  -18.1349  -46.4507 H         1 UNK         0.0600 
    189 H189       -3.6715  -16.6077  -47.7234 H         1 UNK         0.3000 
    190 H190       -0.0193  -20.9608  -46.8197 H         1 UNK         0.3000 
    191 H191       -2.6187  -21.5585  -47.7955 H         1 UNK         0.0600 
    192 H192       -1.5221  -19.4080  -45.9390 H         1 UNK         0.0600 
    193 H193       -3.2184  -19.4731  -46.4126 H         1 UNK         0.0600 
    194 H194       -1.9810  -19.2649  -47.6312 H         1 UNK         0.0600 
    195 H195       -1.1327  -22.4615  -44.7628 H         1 UNK         0.3000 
    196 H196       -3.5284  -22.9136  -43.2536 H         1 UNK         0.0600 
    197 H197       -0.7792  -24.2496  -43.0424 H         1 UNK         0.0600 
    198 H198       -2.0441  -24.2921  -41.8223 H         1 UNK         0.0600 
    199 H199       -1.2689  -22.7685  -42.2207 H         1 UNK         0.0600 
    200 H200       -2.0385  -24.6704  -45.8932 H         1 UNK         0.3000 
    201 H201       -3.8953  -26.9942  -45.5169 H         1 UNK         0.0600 
    202 H202       -1.2502  -26.7907  -47.0515 H         1 UNK         0.0600 
    203 H203       -2.2921  -28.2084  -46.9836 H         1 UNK         0.0600 
    204 H204       -1.5022  -27.6316  -45.5239 H         1 UNK         0.0600 
    205 H205       -2.4876  -24.7236  -47.9442 H         1 UNK         0.3000 
    206 H206       -4.1552  -25.7068  -50.0766 H         1 UNK         0.0600 
    207 H207       -2.9429  -23.9992  -51.3970 H         1 UNK         0.0600 
    208 H208       -2.3218  -23.2519  -49.9306 H         1 UNK         0.0600 
    209 H209       -1.8116  -24.8778  -50.3815 H         1 UNK         0.0600 
    210 H210       -4.6125  -23.2028  -47.7181 H         1 UNK         0.3000 
    211 H211       -6.0666  -21.6147  -47.2958 H         1 UNK         0.0600 
    212 H212       -7.8709  -22.7741  -49.4751 H         1 UNK         0.0600 
    213 H213       -8.3375  -21.6319  -48.2265 H         1 UNK         0.0600 
    214 H214       -7.8469  -23.2586  -47.7812 H         1 UNK         0.0600 
    215 H215       -5.9923  -21.9046  -50.8476 H         1 UNK         0.3000 
    216 H216       -6.3076  -19.0724  -51.3391 H         1 UNK         0.0600 
    217 H217       -5.9036  -19.8264  -53.7394 H         1 UNK         0.0600 
    218 H218       -7.1754  -20.7212  -52.9267 H         1 UNK         0.0600 
    219 H219       -5.5850  -21.4454  -53.1366 H         1 UNK         0.0600 
    220 H220       -3.5502  -21.3287  -51.6296 H         1 UNK         0.3000 
    221 H221       -1.3653  -21.1146  -52.0164 H         1 UNK         0.0600 
    222 H222       -1.6774  -18.6905  -50.1780 H         1 UNK         0.0600 
    223 H223       -1.3157  -20.3466  -49.7069 H         1 UNK         0.0600 
    224 H224       -0.1320  -19.4309  -50.6153 H         1 UNK         0.0600 
    225 H225       -0.8957  -17.7026  -51.9342 H         1 UNK         0.3000 
    226 H226       -0.0211  -17.3739  -54.5246 H         1 UNK         0.0600 
    227 H227        0.4983  -15.6926  -52.8815 H         1 UNK         0.0600 
    228 H228       -0.4578  -14.8845  -54.0963 H         1 UNK         0.0600 
    229 H229       -1.2040  -15.3453  -52.5723 H         1 UNK         0.0600 
    230 H230       -3.3989  -17.2189  -53.4416 H         1 UNK         0.3000 
    231 H231       -4.4296  -16.0346  -55.8725 H         1 UNK         0.0600 
    232 H232       -5.6381  -15.7988  -53.7499 H         1 UNK         0.0600 
    233 H233       -5.8226  -17.5405  -53.6021 H         1 UNK         0.0600 
    234 H234       -6.6404  -16.6755  -54.8953 H         1 UNK         0.0600 
    235 H235       -3.3981  -19.2623  -55.0596 H         1 UNK         0.3000 
    236 H236       -4.7804  -20.4628  -57.4054 H         1 UNK         0.0600 
    237 H237       -3.8168  -22.5904  -56.5448 H         1 UNK         0.0600 
    238 H238       -3.0989  -21.7386  -55.1862 H         1 UNK         0.0600 
    239 H239       -4.8523  -21.8194  -55.3587 H         1 UNK         0.0600 
    240 H240       -1.5575  -19.5338  -56.1207 H         1 UNK         0.3000 
    241 H241        0.0010  -20.4806  -58.2775 H         1 UNK         0.0600 
    242 H242       -1.3692  -16.7992  -59.6107 H         1 UNK         0.3800 
    243 H243       -1.5985  -17.2188  -57.9274 H         1 UNK         0.3800 
    244 H244        1.7692  -18.9567  -57.5448 H         1 UNK         0.0800 
    245 H245        0.6440  -18.0007  -56.6213 H         1 UNK         0.0800 
    246 H246        3.4879  -19.3316  -55.2104 H         1 UNK         0.0800 
    247 H247        2.3843  -18.0091  -54.9351 H         1 UNK         0.0800 
@<TRIPOS>BOND
     1    1    2 1    
     2    1  127 1    
     3    1  128 1    
     4    1  129 1    
     5    2    3 2    
     6    2    4 am   BACKBONE|DICT|INTERRES
     7    4    5 1    
     8    4  130 1    
     9    5    6 1    
    10    5   65 1    
    11    5  131 1    
    12    6    7 1    
    13    6  132 1    
    14    6  133 1    
    15    7    8 1    
    16    8    9 1    
    17    8  134 1    
    18    8  135 1    
    19    9   10 ar   
    20    9   14 ar   
    21   10   11 ar   
    22   10  136 1    
    23   11   12 ar   
    24   11  126 1    
    25   12   13 ar   
    26   12  137 1    
    27   13   14 ar   
    28   13   15 1    
    29   14  138 1    
    30   15   16 1    
    31   15  139 1    
    32   15  140 1    
    33   16   17 1    
    34   17   18 1    
    35   17  141 1    
    36   17  142 1    
    37   18   19 1    
    38   18   67 1    
    39   18  143 1    
    40   19   20 am   BACKBONE|DICT|INTERRES
    41   19  144 1    
    42   20   21 2    
    43   20   22 1    
    44   22   23 1    
    45   22   24 1    
    46   22  145 1    
    47   23  146 1    
    48   23  147 1    
    49   23  148 1    
    50   24   25 am   BACKBONE|DICT|INTERRES
    51   24  149 1    
    52   25   26 2    
    53   25   27 1    
    54   27   28 1    
    55   27   29 1    
    56   27  150 1    
    57   28  151 1    
    58   28  152 1    
    59   28  153 1    
    60   29   30 am   BACKBONE|DICT|INTERRES
    61   29  154 1    
    62   30   31 2    
    63   30   32 1    
    64   32   33 1    
    65   32   34 1    
    66   32  155 1    
    67   33  156 1    
    68   33  157 1    
    69   33  158 1    
    70   34   35 am   BACKBONE|DICT|INTERRES
    71   34  159 1    
    72   35   36 2    
    73   35   37 1    
    74   37   38 1    
    75   37   39 1    
    76   37  160 1    
    77   38  161 1    
    78   38  162 1    
    79   38  163 1    
    80   39   40 am   BACKBONE|DICT|INTERRES
    81   39  164 1    
    82   40   41 2    
    83   40   42 1    
    84   42   43 1    
    85   42   44 1    
    86   42  165 1    
    87   43  166 1    
    88   43  167 1    
    89   43  168 1    
    90   44   45 am   BACKBONE|DICT|INTERRES
    91   44  169 1    
    92   45   46 2    
    93   45   47 1    
    94   47   48 1    
    95   47   49 1    
    96   47  170 1    
    97   48  171 1    
    98   48  172 1    
    99   48  173 1    
   100   49   50 am   BACKBONE|DICT|INTERRES
   101   49  174 1    
   102   50   51 2    
   103   50   52 1    
   104   52   53 1    
   105   52   54 1    
   106   52  175 1    
   107   53  176 1    
   108   53  177 1    
   109   53  178 1    
   110   54   55 am   BACKBONE|DICT|INTERRES
   111   54  179 1    
   112   55   56 2    
   113   55   57 1    
   114   57   58 1    
   115   57   59 1    
   116   57  180 1    
   117   58  181 1    
   118   58  182 1    
   119   58  183 1    
   120   59   60 am   BACKBONE|DICT|INTERRES
   121   59  184 1    
   122   60   61 2    
   123   60   62 1    
   124   62   63 1    
   125   62   64 1    
   126   62  185 1    
   127   63  186 1    
   128   63  187 1    
   129   63  188 1    
   130   64   65 am   BACKBONE|DICT|INTERRES
   131   64  189 1    
   132   65   66 2    
   133   67   68 2    
   134   67   69 am   BACKBONE|DICT|INTERRES
   135   69   70 1    
   136   69  190 1    
   137   70   71 1    
   138   70   72 1    
   139   70  191 1    
   140   71  192 1    
   141   71  193 1    
   142   71  194 1    
   143   72   73 2    
   144   72   74 am   BACKBONE|DICT|INTERRES
   145   74   75 1    
   146   74  195 1    
   147   75   76 1    
   148   75   77 1    
   149   75  196 1    
   150   76  197 1    
   151   76  198 1    
   152   76  199 1    
   153   77   78 2    
   154   77   79 am   BACKBONE|DICT|INTERRES
   155   79   80 1    
   156   79  200 1    
   157   80   81 1    
   158   80   82 1    
   159   80  201 1    
   160   81  202 1    
   161   81  203 1    
   162   81  204 1    
   163   82   83 2    
   164   82   84 am   BACKBONE|DICT|INTERRES
   165   84   85 1    
   166   84  205 1    
   167   85   86 1    
   168   85   87 1    
   169   85  206 1    
   170   86  207 1    
   171   86  208 1    
   172   86  209 1    
   173   87   88 2    
   174   87   89 am   BACKBONE|DICT|INTERRES
   175   89   90 1    
   176   89  210 1    
   177   90   91 1    
   178   90   92 1    
   179   90  211 1    
   180   91  212 1    
   181   91  213 1    
   182   91  214 1    
   183   92   93 2    
   184   92   94 am   BACKBONE|DICT|INTERRES
   185   94   95 1    
   186   94  215 1    
   187   95   96 1    
   188   95   97 1    
   189   95  216 1    
   190   96  217 1    
   191   96  218 1    
   192   96  219 1    
   193   97   98 2    
   194   97   99 am   BACKBONE|DICT|INTERRES
   195   99  100 1    
   196   99  220 1    
   197  100  101 1    
   198  100  102 1    
   199  100  221 1    
   200  101  222 1    
   201  101  223 1    
   202  101  224 1    
   203  102  103 2    
   204  102  104 am   BACKBONE|DICT|INTERRES
   205  104  105 1    
   206  104  225 1    
   207  105  106 1    
   208  105  107 1    
   209  105  226 1    
   210  106  227 1    
   211  106  228 1    
   212  106  229 1    
   213  107  108 2    
   214  107  109 am   BACKBONE|DICT|INTERRES
   215  109  110 1    
   216  109  230 1    
   217  110  111 1    
   218  110  112 1    
   219  110  231 1    
   220  111  232 1    
   221  111  233 1    
   222  111  234 1    
   223  112  113 2    
   224  112  114 am   BACKBONE|DICT|INTERRES
   225  114  115 1    
   226  114  235 1    
   227  115  116 1    
   228  115  117 1    
   229  115  236 1    
   230  116  237 1    
   231  116  238 1    
   232  116  239 1    
   233  117  118 2    
   234  117  119 am   BACKBONE|DICT|INTERRES
   235  119  120 1    
   236  119  240 1    
   237  120  121 1    
   238  120  124 1    
   239  120  241 1    
   240  121  122 am   BACKBONE|DICT|INTERRES
   241  121  123 2    
   242  122  242 1    
   243  122  243 1    
   244  124  125 1    
   245  124  244 1    
   246  124  245 1    
   247  125  126 1    
   248  126  246 1    
   249  126  247 1    
@<TRIPOS>SUBSTRUCTURE
     1 UNK         1 GROUP             0       ****    0 ROOT    
