@<TRIPOS>MOLECULE
3R540
247   249    1
SMALL
USER_CHARGES


@<TRIPOS>ATOM
      1 CA         -0.9297  -15.6991  -53.7900 C.3       0 UNK        -0.1800 
      2 C          -0.7432  -16.0498  -52.3211 C.2       0 UNK         0.5000 
      3 O          -1.1498  -17.1301  -51.8946 O.2       0 UNK        -0.5000 
      4 N          -0.1420  -15.1402  -51.5434 N.am      1 UNK        -0.5000 
      5 CA          0.1306  -15.3378  -50.1193 C.3       1 UNK         0.1400 
      6 C6          0.3707  -14.0161  -49.3407 C.3       23 UNK        -0.0398 
      7 S7         -0.9300  -12.7549  -49.5526 S.3       23 UNK        -0.2404 
      8 C8         -2.1928  -13.2939  -48.3486 C.3       23 UNK        -0.0205 
      9 C9         -2.9540  -14.5346  -48.8027 C.ar      23 UNK        -0.0193 
     10 C10        -3.4492  -14.6218  -50.1067 C.ar      23 UNK        -0.1150 
     11 C11        -4.1209  -15.7641  -50.5418 C.ar      23 UNK        -0.0193 
     12 C12        -4.3251  -16.8187  -49.6472 C.ar      23 UNK        -0.1150 
     13 C13        -3.8698  -16.7398  -48.3262 C.ar      23 UNK        -0.0193 
     14 C14        -3.1772  -15.5918  -47.9148 C.ar      23 UNK        -0.1150 
     15 C15        -4.2148  -17.8795  -47.3653 C.3       23 UNK        -0.0205 
     16 S16        -3.1356  -18.0369  -45.9002 S.3       23 UNK        -0.2404 
     17 C17        -1.7172  -18.9867  -46.5556 C.3       23 UNK        -0.0398 
     18 CA         -1.6831  -20.4671  -46.0938 C.3       11 UNK         0.1400 
     19 N          -1.9532  -20.6203  -44.6569 N.am      11 UNK        -0.5000 
     20 C          -1.9885  -21.7683  -43.9655 C.2       10 UNK         0.5000 
     21 O          -1.8356  -22.8727  -44.4864 O.2       10 UNK        -0.5000 
     22 CA         -2.2194  -21.6816  -42.4456 C.3       10 UNK         0.1400 
     23 CB         -1.0867  -22.3906  -41.6843 C.3       10 UNK        -0.1800 
     24 N          -2.2984  -20.3012  -41.9665 N.am      10 UNK        -0.5000 
     25 C          -3.4238  -19.6415  -41.6644 C.2       9 UNK         0.5000 
     26 O          -4.5499  -20.1113  -41.8344 O.2       9 UNK        -0.5000 
     27 CA         -3.2569  -18.2174  -41.0839 C.3       9 UNK         0.1400 
     28 CB         -4.4554  -17.7772  -40.2182 C.3       9 UNK        -0.1800 
     29 N          -1.9915  -18.0220  -40.3633 N.am      9 UNK        -0.5000 
     30 C          -1.5557  -18.6743  -39.2720 C.2       8 UNK         0.5000 
     31 O          -2.2346  -19.4944  -38.6528 O.2       8 UNK        -0.5000 
     32 CA         -0.1105  -18.3949  -38.8052 C.3       8 UNK         0.1400 
     33 CB          0.6870  -19.7063  -38.6939 C.3       8 UNK        -0.1800 
     34 N           0.6019  -17.5080  -39.7264 N.am      8 UNK        -0.5000 
     35 C           0.9182  -16.2268  -39.4945 C.2       7 UNK         0.5000 
     36 O           0.6948  -15.6495  -38.4301 O.2       7 UNK        -0.5000 
     37 CA          1.5788  -15.4450  -40.6527 C.3       7 UNK         0.1400 
     38 CB          3.1053  -15.4248  -40.4820 C.3       7 UNK        -0.1800 
     39 N           1.2649  -15.9687  -41.9847 N.am      7 UNK        -0.5000 
     40 C           0.0370  -16.0697  -42.5123 C.2       6 UNK         0.5000 
     41 O          -0.9839  -15.6687  -41.9549 O.2       6 UNK        -0.5000 
     42 CA         -0.0814  -16.8267  -43.8457 C.3       6 UNK         0.1400 
     43 CB          0.0491  -15.8497  -45.0253 C.3       6 UNK        -0.1800 
     44 N           0.8979  -17.9104  -43.9816 N.am      6 UNK        -0.5000 
     45 C           1.0207  -18.9671  -43.1643 C.2       5 UNK         0.5000 
     46 O           0.2878  -19.1589  -42.1948 O.2       5 UNK        -0.5000 
     47 CA          2.1685  -19.9501  -43.4472 C.3       5 UNK         0.1400 
     48 CB          1.7508  -21.0095  -44.4750 C.3       5 UNK        -0.1800 
     49 N           3.3504  -19.2531  -43.9442 N.am      5 UNK        -0.5000 
     50 C           4.3332  -18.7700  -43.1749 C.2       4 UNK         0.5000 
     51 O           4.3773  -18.9067  -41.9521 O.2       4 UNK        -0.5000 
     52 CA          5.4535  -17.9914  -43.8925 C.3       4 UNK         0.1400 
     53 CB          6.6062  -18.9341  -44.2697 C.3       4 UNK        -0.1800 
     54 N           4.9984  -17.2875  -45.0946 N.am      4 UNK        -0.5000 
     55 C           4.1499  -16.2512  -45.0867 C.2       3 UNK         0.5000 
     56 O           3.6471  -15.7851  -44.0631 O.2       3 UNK        -0.5000 
     57 CA          3.7694  -15.6577  -46.4569 C.3       3 UNK         0.1400 
     58 CB          4.8622  -14.6959  -46.9467 C.3       3 UNK        -0.1800 
     59 N           3.4642  -16.6202  -47.5247 N.am      3 UNK        -0.5000 
     60 C           2.6665  -17.6943  -47.4413 C.2       2 UNK         0.5000 
     61 O           2.2333  -18.1499  -46.3852 O.2       2 UNK        -0.5000 
     62 CA          2.1779  -18.2897  -48.7741 C.3       2 UNK         0.1400 
     63 CB          1.6146  -19.7138  -48.6108 C.3       2 UNK        -0.1800 
     64 N           1.1228  -17.4223  -49.2948 N.am      2 UNK        -0.5000 
     65 C           1.3400  -16.2713  -49.9411 C.2       1 UNK         0.5000 
     66 O           2.4508  -15.9123  -50.3393 O.2       1 UNK        -0.5000 
     67 C          -2.5541  -21.3591  -46.9981 C.2       11 UNK         0.5000 
     68 O          -2.0263  -21.9623  -47.9319 O.2       11 UNK        -0.5000 
     69 N          -3.8500  -21.4629  -46.6766 N.am      12 UNK        -0.5000 
     70 CA         -4.8208  -22.2855  -47.3999 C.3       12 UNK         0.1400 
     71 CB         -6.2343  -21.9178  -46.9252 C.3       12 UNK        -0.1800 
     72 C          -4.5760  -23.8012  -47.2606 C.2       12 UNK         0.5000 
     73 O          -4.9418  -24.5533  -48.1643 O.2       12 UNK        -0.5000 
     74 N          -3.9659  -24.2219  -46.1442 N.am      13 UNK        -0.5000 
     75 CA         -3.5755  -25.6082  -45.8935 C.3       13 UNK         0.1400 
     76 CB         -3.5858  -25.8786  -44.3804 C.3       13 UNK        -0.1800 
     77 C          -2.1941  -25.9155  -46.4955 C.2       13 UNK         0.5000 
     78 O          -2.0019  -27.0001  -47.0460 O.2       13 UNK        -0.5000 
     79 N          -1.2625  -24.9579  -46.3801 N.am      14 UNK        -0.5000 
     80 CA          0.1006  -25.0463  -46.9013 C.3       14 UNK         0.1400 
     81 CB          0.9346  -23.8812  -46.3462 C.3       14 UNK        -0.1800 
     82 C           0.1473  -25.0675  -48.4388 C.2       14 UNK         0.5000 
     83 O           0.8260  -25.9208  -49.0111 O.2       14 UNK        -0.5000 
     84 N          -0.5780  -24.1290  -49.0681 N.am      15 UNK        -0.5000 
     85 CA         -0.7549  -23.9598  -50.5154 C.3       15 UNK         0.1400 
     86 CB         -1.5975  -25.1171  -51.0882 C.3       15 UNK        -0.1800 
     87 C           0.5580  -23.7336  -51.3001 C.2       15 UNK         0.5000 
     88 O           0.6164  -24.0269  -52.4954 O.2       15 UNK        -0.5000 
     89 N           1.5879  -23.1933  -50.6302 N.am      16 UNK        -0.5000 
     90 CA          2.9362  -22.9948  -51.1785 C.3       16 UNK         0.1400 
     91 CB          3.8936  -22.6175  -50.0381 C.3       16 UNK        -0.1800 
     92 C           3.0069  -21.9532  -52.3138 C.2       16 UNK         0.5000 
     93 O           3.9105  -22.0233  -53.1470 O.2       16 UNK        -0.5000 
     94 N           2.0387  -21.0307  -52.3356 N.am      17 UNK        -0.5000 
     95 CA          1.8183  -20.0394  -53.3882 C.3       17 UNK         0.1400 
     96 CB          1.9943  -18.6344  -52.7880 C.3       17 UNK        -0.1800 
     97 C           0.4229  -20.2475  -54.0102 C.2       17 UNK         0.5000 
     98 O          -0.2590  -19.2785  -54.3437 O.2       17 UNK        -0.5000 
     99 N          -0.0011  -21.5172  -54.1042 N.am      18 UNK        -0.5000 
    100 CA        -1.3124  -22.0312  -54.5179 C.3       18 UNK         0.1400 
    101 CB        -1.7185  -21.5505  -55.9246 C.3       18 UNK        -0.1800 
    102 C         -2.4237  -21.7649  -53.4873 C.2       18 UNK         0.5000 
    103 O         -3.1587  -22.6926  -53.1513 O.2       18 UNK        -0.5000 
    104 N         -2.5247  -20.5190  -53.0021 N.am      19 UNK        -0.5000 
    105 CA        -3.4307  -19.9806  -51.9753 C.3       19 UNK         0.1400 
    106 CB        -3.1794  -20.6465  -50.6135 C.3       19 UNK        -0.1800 
    107 C         -4.9311  -20.0013  -52.3348 C.2       19 UNK         0.5000 
    108 O         -5.6376  -19.0442  -52.0283 O.2       19 UNK        -0.5000 
    109 N         -5.3979  -21.0522  -53.0163 N.am      20 UNK        -0.5000 
    110 CA        -6.7494  -21.1650  -53.5693 C.3       20 UNK         0.1400 
    111 CB        -6.9872  -22.6204  -53.9988 C.3       20 UNK        -0.1800 
    112 C         -6.9950  -20.2058  -54.7524 C.2       20 UNK         0.5000 
    113 O         -8.1484  -19.9072  -55.0642 O.2       20 UNK        -0.5000 
    114 N         -5.9071  -19.7323  -55.3784 N.am      21 UNK        -0.5000 
    115 CA        -5.8846  -18.8501  -56.5460 C.3       21 UNK         0.1400 
    116 CB        -4.4224  -18.6205  -56.9595 C.3       21 UNK        -0.1800 
    117 C         -6.6082  -17.5023  -56.3556 C.2       21 UNK         0.5000 
    118 O         -7.1197  -16.9603  -57.3365 O.2       21 UNK        -0.5000 
    119 N         -6.6542  -16.9942  -55.1160 N.am      22 UNK        -0.5000 
    120 CA        -7.4138  -15.7880  -54.7476 C.3       22 UNK         0.1400 
    121 C         -8.8956  -16.0574  -54.3442 C.2       22 UNK         0.5000 
    122 N         -9.3888  -17.2908  -54.3696 N.am      22 UNK        -0.7600 
    123 O         -9.6257  -15.1224  -54.0258 O.2       22 UNK        -0.5000 
    124 C124       -6.6494  -14.9007  -53.7301 C.3       23 UNK        -0.0398 
    125 S125       -6.4242  -15.6261  -52.0668 S.3       23 UNK        -0.2404 
    126 C126       -4.6184  -15.8438  -51.9779 C.3       23 UNK        -0.0205 
    127 H127       -0.3863  -16.4088  -54.4141 H         1 UNK         0.0600 
    128 H128       -1.9854  -15.7504  -54.0561 H         1 UNK         0.0600 
    129 H129       -0.5682  -14.6961  -54.0174 H         1 UNK         0.0600 
    130 H130        0.1860  -14.2714  -51.9393 H         1 UNK         0.3000 
    131 H131       -0.7384  -15.8261  -49.6760 H         1 UNK         0.0600 
    132 H132        1.3077  -13.5539  -49.6574 H         1 UNK         0.0800 
    133 H133        0.4851  -14.2198  -48.2743 H         1 UNK         0.0800 
    134 H134       -2.9098  -12.4839  -48.2098 H         1 UNK         0.0800 
    135 H135       -1.7193  -13.4566  -47.3792 H         1 UNK         0.0800 
    136 H136       -3.2943  -13.8013  -50.7929 H         1 UNK         0.1150 
    137 H137       -4.8686  -17.6923  -49.9760 H         1 UNK         0.1150 
    138 H138       -2.8252  -15.5044  -46.8974 H         1 UNK         0.1150 
    139 H139       -5.2333  -17.7145  -47.0120 H         1 UNK         0.0800 
    140 H140       -4.2314  -18.8300  -47.8988 H         1 UNK         0.0800 
    141 H141       -0.8096  -18.4982  -46.2055 H         1 UNK         0.0800 
    142 H142       -1.6827  -18.9025  -47.6437 H         1 UNK         0.0800 
    143 H143       -0.6631  -20.8217  -46.2419 H         1 UNK         0.0600 
    144 H144       -2.1241  -19.7652  -44.1494 H         1 UNK         0.3000 
    145 H145       -3.1512  -22.2090  -42.2325 H         1 UNK         0.0600 
    146 H146       -1.2635  -22.3666  -40.6088 H         1 UNK         0.0600 
    147 H147       -1.0094  -23.4388  -41.9761 H         1 UNK         0.0600 
    148 H148       -0.1192  -21.9242  -41.8718 H         1 UNK         0.0600 
    149 H149       -1.4061  -19.8294  -41.8360 H         1 UNK         0.3000 
    150 H150       -3.2154  -17.5500  -41.9458 H         1 UNK         0.0600 
    151 H151       -5.3778  -17.7721  -40.8000 H         1 UNK         0.0600 
    152 H152       -4.3123  -16.7680  -39.8321 H         1 UNK         0.0600 
    153 H153       -4.6093  -18.4435  -39.3691 H         1 UNK         0.0600 
    154 H154       -1.3735  -17.3325  -40.7744 H         1 UNK         0.3000 
    155 H155       -0.1733  -17.9465  -37.8120 H         1 UNK         0.0600 
    156 H156        0.7381  -20.2284  -39.6503 H         1 UNK         0.0600 
    157 H157        0.2307  -20.3857  -37.9730 H         1 UNK         0.0600 
    158 H158        1.7076  -19.5193  -38.3599 H         1 UNK         0.0600 
    159 H159        0.7987  -17.9030  -40.6390 H         1 UNK         0.3000 
    160 H160        1.2121  -14.4177  -40.6056 H         1 UNK         0.0600 
    161 H161        3.5796  -14.8082  -41.2460 H         1 UNK         0.0600 
    162 H162        3.5294  -16.4275  -40.5511 H         1 UNK         0.0600 
    163 H163        3.3866  -15.0137  -39.5116 H         1 UNK         0.0600 
    164 H164        2.0495  -16.2840  -42.5426 H         1 UNK         0.3000 
    165 H165       -1.0736  -17.2788  -43.8782 H         1 UNK         0.0600 
    166 H166        0.0047  -16.3588  -45.9870 H         1 UNK         0.0600 
    167 H167       -0.7585  -15.1169  -45.0106 H         1 UNK         0.0600 
    168 H168        0.9876  -15.2986  -44.9815 H         1 UNK         0.0600 
    169 H169        1.5101  -17.8664  -44.7936 H         1 UNK         0.3000 
    170 H170        2.4059  -20.4633  -42.5129 H         1 UNK         0.0600 
    171 H171        0.8832  -21.5700  -44.1309 H         1 UNK         0.0600 
    172 H172        1.5030  -20.5641  -45.4380 H         1 UNK         0.0600 
    173 H173        2.5521  -21.7296  -44.6409 H         1 UNK         0.0600 
    174 H174        3.3525  -19.0289  -44.9325 H         1 UNK         0.3000 
    175 H175        5.8366  -17.2473  -43.1909 H         1 UNK         0.0600 
    176 H176        7.4405  -18.3834  -44.7044 H         1 UNK         0.0600 
    177 H177        6.9863  -19.4572  -43.3912 H         1 UNK         0.0600 
    178 H178        6.2891  -19.6894  -44.9900 H         1 UNK         0.0600 
    179 H179        5.3492  -17.6180  -45.9816 H         1 UNK         0.3000 
    180 H180        2.8637  -15.0692  -46.3068 H         1 UNK         0.0600 
    181 H181        5.7847  -15.2251  -47.1884 H         1 UNK         0.0600 
    182 H182        5.0998  -13.9508  -46.1860 H         1 UNK         0.0600 
    183 H183        4.5420  -14.1560  -47.8381 H         1 UNK         0.0600 
    184 H184        3.7213  -16.3214  -48.4570 H         1 UNK         0.3000 
    185 H185        3.0180  -18.3293  -49.4709 H         1 UNK         0.0600 
    186 H186        0.7221  -19.7292  -47.9871 H         1 UNK         0.0600 
    187 H187        1.3518  -20.1452  -49.5758 H         1 UNK         0.0600 
    188 H188        2.3460  -20.3719  -48.1413 H         1 UNK         0.0600 
    189 H189        0.1802  -17.6497  -49.0165 H         1 UNK         0.3000 
    190 H190       -4.1926  -20.9440  -45.8810 H         1 UNK         0.3000 
    191 H191       -4.7468  -22.0421  -48.4612 H         1 UNK         0.0600 
    192 H192       -6.4464  -20.8625  -47.0987 H         1 UNK         0.0600 
    193 H193       -6.3658  -22.1174  -45.8610 H         1 UNK         0.0600 
    194 H194       -6.9892  -22.4926  -47.4633 H         1 UNK         0.0600 
    195 H195       -3.6385  -23.5353  -45.4776 H         1 UNK         0.3000 
    196 H196       -4.3021  -26.2796  -46.3564 H         1 UNK         0.0600 
    197 H197       -3.3319  -26.9183  -44.1704 H         1 UNK         0.0600 
    198 H198       -4.5718  -25.6927  -43.9543 H         1 UNK         0.0600 
    199 H199       -2.8680  -25.2538  -43.8484 H         1 UNK         0.0600 
    200 H200       -1.4942  -24.1214  -45.8517 H         1 UNK         0.3000 
    201 H201        0.5385  -25.9791  -46.5398 H         1 UNK         0.0600 
    202 H202        0.5300  -22.9148  -46.6473 H         1 UNK         0.0600 
    203 H203        1.9650  -23.9319  -46.7004 H         1 UNK         0.0600 
    204 H204        0.9634  -23.9057  -45.2567 H         1 UNK         0.0600 
    205 H205       -1.0935  -23.4582  -48.5009 H         1 UNK         0.3000 
    206 H206       -1.3331  -23.0441  -50.6401 H         1 UNK         0.0600 
    207 H207       -2.5361  -25.2242  -50.5441 H         1 UNK         0.0600 
    208 H208       -1.8509  -24.9414  -52.1342 H         1 UNK         0.0600 
    209 H209       -1.0673  -26.0683  -51.0348 H         1 UNK         0.0600 
    210 H210        1.4603  -22.9868  -49.6509 H         1 UNK         0.3000 
    211 H211        3.2654  -23.9496  -51.5939 H         1 UNK         0.0600 
    212 H212        3.6454  -21.6488  -49.6063 H         1 UNK         0.0600 
    213 H213        4.9214  -22.5579  -50.3984 H         1 UNK         0.0600 
    214 H214        3.8733  -23.3599  -49.2399 H         1 UNK         0.0600 
    215 H215        1.3321  -21.0750  -51.6163 H         1 UNK         0.3000 
    216 H216        2.5434  -20.1617  -54.1950 H         1 UNK         0.0600 
    217 H217        1.8725  -17.8598  -53.5459 H         1 UNK         0.0600 
    218 H218        2.9860  -18.5103  -52.3529 H         1 UNK         0.0600 
    219 H219        1.2608  -18.4483  -52.0043 H         1 UNK         0.0600 
    220 H220        0.6231  -22.2363  -53.7570 H         1 UNK         0.3000 
    221 H221       -1.1924  -23.1146  -54.5707 H         1 UNK         0.0600 
    222 H222       -1.9049  -20.4771  -55.9576 H         1 UNK         0.0600 
    223 H223       -0.9444  -21.7788  -56.6571 H         1 UNK         0.0600 
    224 H224       -2.6329  -22.0460  -56.2531 H         1 UNK         0.0600 
    225 H225       -1.8672  -19.8426  -53.3830 H         1 UNK         0.3000 
    226 H226       -3.1575  -18.9297  -51.8730 H         1 UNK         0.0600 
    227 H227       -2.1360  -20.5450  -50.3149 H         1 UNK         0.0600 
    228 H228       -3.7848  -20.1795  -49.8371 H         1 UNK         0.0600 
    229 H229       -3.4265  -21.7082  -50.6247 H         1 UNK         0.0600 
    230 H230       -4.7523  -21.8194  -53.1909 H         1 UNK         0.3000 
    231 H231       -7.4662  -20.9136  -52.7849 H         1 UNK         0.0600 
    232 H232       -6.8790  -23.3025  -53.1553 H         1 UNK         0.0600 
    233 H233       -6.2844  -22.9307  -54.7731 H         1 UNK         0.0600 
    234 H234       -7.9947  -22.7521  -54.3958 H         1 UNK         0.0600 
    235 H235       -5.0095  -20.0357  -55.0332 H         1 UNK         0.3000 
    236 H236       -6.3911  -19.3750  -57.3583 H         1 UNK         0.0600 
    237 H237       -4.3593  -17.9703  -57.8332 H         1 UNK         0.0600 
    238 H238       -3.8462  -18.1530  -56.1598 H         1 UNK         0.0600 
    239 H239       -3.9347  -19.5594  -57.2217 H         1 UNK         0.0600 
    240 H240       -6.2433  -17.5129  -54.3526 H         1 UNK         0.3000 
    241 H241       -7.5015  -15.1697  -55.6429 H         1 UNK         0.0600 
    242 H242       -8.8247  -18.0848  -54.6531 H         1 UNK         0.3800 
    243 H243      -10.3522  -17.4379  -54.1140 H         1 UNK         0.3800 
    244 H244       -5.6805  -14.6326  -54.1517 H         1 UNK         0.0800 
    245 H245       -7.1727  -13.9515  -53.6036 H         1 UNK         0.0800 
    246 H246       -4.1209  -15.0804  -52.5770 H         1 UNK         0.0800 
    247 H247       -4.3377  -16.8000  -52.4180 H         1 UNK         0.0800 
@<TRIPOS>BOND
     1    1    2 1    
     2    1  127 1    
     3    1  128 1    
     4    1  129 1    
     5    2    3 2    
     6    2    4 am   BACKBONE|DICT|INTERRES
     7    4    5 1    
     8    4  130 1    
     9    5    6 1    
    10    5   65 1    
    11    5  131 1    
    12    6    7 1    
    13    6  132 1    
    14    6  133 1    
    15    7    8 1    
    16    8    9 1    
    17    8  134 1    
    18    8  135 1    
    19    9   10 ar   
    20    9   14 ar   
    21   10   11 ar   
    22   10  136 1    
    23   11   12 ar   
    24   11  126 1    
    25   12   13 ar   
    26   12  137 1    
    27   13   14 ar   
    28   13   15 1    
    29   14  138 1    
    30   15   16 1    
    31   15  139 1    
    32   15  140 1    
    33   16   17 1    
    34   17   18 1    
    35   17  141 1    
    36   17  142 1    
    37   18   19 1    
    38   18   67 1    
    39   18  143 1    
    40   19   20 am   BACKBONE|DICT|INTERRES
    41   19  144 1    
    42   20   21 2    
    43   20   22 1    
    44   22   23 1    
    45   22   24 1    
    46   22  145 1    
    47   23  146 1    
    48   23  147 1    
    49   23  148 1    
    50   24   25 am   BACKBONE|DICT|INTERRES
    51   24  149 1    
    52   25   26 2    
    53   25   27 1    
    54   27   28 1    
    55   27   29 1    
    56   27  150 1    
    57   28  151 1    
    58   28  152 1    
    59   28  153 1    
    60   29   30 am   BACKBONE|DICT|INTERRES
    61   29  154 1    
    62   30   31 2    
    63   30   32 1    
    64   32   33 1    
    65   32   34 1    
    66   32  155 1    
    67   33  156 1    
    68   33  157 1    
    69   33  158 1    
    70   34   35 am   BACKBONE|DICT|INTERRES
    71   34  159 1    
    72   35   36 2    
    73   35   37 1    
    74   37   38 1    
    75   37   39 1    
    76   37  160 1    
    77   38  161 1    
    78   38  162 1    
    79   38  163 1    
    80   39   40 am   BACKBONE|DICT|INTERRES
    81   39  164 1    
    82   40   41 2    
    83   40   42 1    
    84   42   43 1    
    85   42   44 1    
    86   42  165 1    
    87   43  166 1    
    88   43  167 1    
    89   43  168 1    
    90   44   45 am   BACKBONE|DICT|INTERRES
    91   44  169 1    
    92   45   46 2    
    93   45   47 1    
    94   47   48 1    
    95   47   49 1    
    96   47  170 1    
    97   48  171 1    
    98   48  172 1    
    99   48  173 1    
   100   49   50 am   BACKBONE|DICT|INTERRES
   101   49  174 1    
   102   50   51 2    
   103   50   52 1    
   104   52   53 1    
   105   52   54 1    
   106   52  175 1    
   107   53  176 1    
   108   53  177 1    
   109   53  178 1    
   110   54   55 am   BACKBONE|DICT|INTERRES
   111   54  179 1    
   112   55   56 2    
   113   55   57 1    
   114   57   58 1    
   115   57   59 1    
   116   57  180 1    
   117   58  181 1    
   118   58  182 1    
   119   58  183 1    
   120   59   60 am   BACKBONE|DICT|INTERRES
   121   59  184 1    
   122   60   61 2    
   123   60   62 1    
   124   62   63 1    
   125   62   64 1    
   126   62  185 1    
   127   63  186 1    
   128   63  187 1    
   129   63  188 1    
   130   64   65 am   BACKBONE|DICT|INTERRES
   131   64  189 1    
   132   65   66 2    
   133   67   68 2    
   134   67   69 am   BACKBONE|DICT|INTERRES
   135   69   70 1    
   136   69  190 1    
   137   70   71 1    
   138   70   72 1    
   139   70  191 1    
   140   71  192 1    
   141   71  193 1    
   142   71  194 1    
   143   72   73 2    
   144   72   74 am   BACKBONE|DICT|INTERRES
   145   74   75 1    
   146   74  195 1    
   147   75   76 1    
   148   75   77 1    
   149   75  196 1    
   150   76  197 1    
   151   76  198 1    
   152   76  199 1    
   153   77   78 2    
   154   77   79 am   BACKBONE|DICT|INTERRES
   155   79   80 1    
   156   79  200 1    
   157   80   81 1    
   158   80   82 1    
   159   80  201 1    
   160   81  202 1    
   161   81  203 1    
   162   81  204 1    
   163   82   83 2    
   164   82   84 am   BACKBONE|DICT|INTERRES
   165   84   85 1    
   166   84  205 1    
   167   85   86 1    
   168   85   87 1    
   169   85  206 1    
   170   86  207 1    
   171   86  208 1    
   172   86  209 1    
   173   87   88 2    
   174   87   89 am   BACKBONE|DICT|INTERRES
   175   89   90 1    
   176   89  210 1    
   177   90   91 1    
   178   90   92 1    
   179   90  211 1    
   180   91  212 1    
   181   91  213 1    
   182   91  214 1    
   183   92   93 2    
   184   92   94 am   BACKBONE|DICT|INTERRES
   185   94   95 1    
   186   94  215 1    
   187   95   96 1    
   188   95   97 1    
   189   95  216 1    
   190   96  217 1    
   191   96  218 1    
   192   96  219 1    
   193   97   98 2    
   194   97   99 am   BACKBONE|DICT|INTERRES
   195   99  100 1    
   196   99  220 1    
   197  100  101 1    
   198  100  102 1    
   199  100  221 1    
   200  101  222 1    
   201  101  223 1    
   202  101  224 1    
   203  102  103 2    
   204  102  104 am   BACKBONE|DICT|INTERRES
   205  104  105 1    
   206  104  225 1    
   207  105  106 1    
   208  105  107 1    
   209  105  226 1    
   210  106  227 1    
   211  106  228 1    
   212  106  229 1    
   213  107  108 2    
   214  107  109 am   BACKBONE|DICT|INTERRES
   215  109  110 1    
   216  109  230 1    
   217  110  111 1    
   218  110  112 1    
   219  110  231 1    
   220  111  232 1    
   221  111  233 1    
   222  111  234 1    
   223  112  113 2    
   224  112  114 am   BACKBONE|DICT|INTERRES
   225  114  115 1    
   226  114  235 1    
   227  115  116 1    
   228  115  117 1    
   229  115  236 1    
   230  116  237 1    
   231  116  238 1    
   232  116  239 1    
   233  117  118 2    
   234  117  119 am   BACKBONE|DICT|INTERRES
   235  119  120 1    
   236  119  240 1    
   237  120  121 1    
   238  120  124 1    
   239  120  241 1    
   240  121  122 am   BACKBONE|DICT|INTERRES
   241  121  123 2    
   242  122  242 1    
   243  122  243 1    
   244  124  125 1    
   245  124  244 1    
   246  124  245 1    
   247  125  126 1    
   248  126  246 1    
   249  126  247 1    
@<TRIPOS>SUBSTRUCTURE
     1 UNK         1 GROUP             0       ****    0 ROOT    
