@<TRIPOS>MOLECULE
3R540
247   249    1
SMALL
USER_CHARGES


@<TRIPOS>ATOM
      1 CA          5.4951   -9.5458  -48.0547 C.3       0 UNK        -0.1800 
      2 C           4.6986  -10.5606  -48.8716 C.2       0 UNK         0.5000 
      3 O           4.4336  -10.3157  -50.0463 O.2       0 UNK        -0.5000 
      4 N           4.2845  -11.7009  -48.3027 N.am      1 UNK        -0.5000 
      5 CA          4.4999  -12.1400  -46.9169 C.3       1 UNK         0.1400 
      6 C6          4.8182  -13.6561  -46.8288 C.3       23 UNK        -0.0398 
      7 S7          3.5084  -14.7497  -47.4834 S.3       23 UNK        -0.2404 
      8 C8          4.2789  -15.3026  -49.0329 C.3       23 UNK        -0.0205 
      9 C9          3.3919  -16.2944  -49.7643 C.ar      23 UNK        -0.0193 
     10 C10         2.2899  -15.8434  -50.4943 C.ar      23 UNK        -0.1150 
     11 C11         1.4757  -16.7476  -51.1808 C.ar      23 UNK        -0.0193 
     12 C12         1.7724  -18.1139  -51.1384 C.ar      23 UNK        -0.1150 
     13 C13         2.8790  -18.5747  -50.4174 C.ar      23 UNK        -0.0193 
     14 C14         3.6804  -17.6608  -49.7275 C.ar      23 UNK        -0.1150 
     15 C15         3.2338  -20.0535  -50.4000 C.3       23 UNK        -0.0205 
     16 S16         2.6546  -20.8704  -48.8823 S.3       23 UNK        -0.2404 
     17 C17         0.8703  -21.0078  -49.2197 C.3       23 UNK        -0.0398 
     18 CA          0.2202  -22.1452  -48.3981 C.3       11 UNK         0.1400 
     19 N           0.1489  -21.8484  -46.9620 N.am      11 UNK        -0.5000 
     20 C          -0.2556  -22.7198  -46.0251 C.2       10 UNK         0.5000 
     21 O          -0.5574  -23.8894  -46.2618 O.2       10 UNK        -0.5000 
     22 CA         -0.4029  -22.1876  -44.5890 C.3       10 UNK         0.1400 
     23 CB          0.9479  -22.1957  -43.8584 C.3       10 UNK        -0.1800 
     24 N          -0.9978  -20.8511  -44.5403 N.am      10 UNK        -0.5000 
     25 C          -2.2429  -20.5616  -44.9466 C.2       9 UNK         0.5000 
     26 O          -3.0367  -21.4051  -45.3595 O.2       9 UNK        -0.5000 
     27 CA         -2.6631  -19.0810  -44.9389 C.3       9 UNK         0.1400 
     28 CB         -3.1019  -18.6445  -43.5344 C.3       9 UNK        -0.1800 
     29 N          -1.6088  -18.1938  -45.4281 N.am      9 UNK        -0.5000 
     30 C          -1.1090  -18.2209  -46.6724 C.2       8 UNK         0.5000 
     31 O          -1.5233  -18.9690  -47.5596 O.2       8 UNK        -0.5000 
     32 CA          0.0867  -17.2900  -46.9495 C.3       8 UNK         0.1400 
     33 CB         -0.3860  -15.8579  -47.2427 C.3       8 UNK        -0.1800 
     34 N           1.0397  -17.2656  -45.8386 N.am      8 UNK        -0.5000 
     35 C           1.7617  -18.3185  -45.4324 C.2       7 UNK         0.5000 
     36 O           1.7179  -19.4253  -45.9678 O.2       7 UNK        -0.5000 
     37 CA          2.6312  -18.1109  -44.1784 C.3       7 UNK         0.1400 
     38 CB          3.8786  -17.2757  -44.5059 C.3       7 UNK        -0.1800 
     39 N           1.8889  -17.4750  -43.0878 N.am      7 UNK        -0.5000 
     40 C           0.8528  -18.0391  -42.4465 C.2       6 UNK         0.5000 
     41 O           0.4599  -19.1829  -42.6670 O.2       6 UNK        -0.5000 
     42 CA          0.0919  -17.1747  -41.4186 C.3       6 UNK         0.1400 
     43 CB          0.6940  -17.3542  -40.0174 C.3       6 UNK        -0.1800 
     44 N           0.0771  -15.7512  -41.7534 N.am      6 UNK        -0.5000 
     45 C          -0.3726  -15.2289  -42.9021 C.2       5 UNK         0.5000 
     46 O          -0.9762  -15.8841  -43.7519 O.2       5 UNK        -0.5000 
     47 CA         -0.0525  -13.7464  -43.1833 C.3       5 UNK         0.1400 
     48 CB         -1.3293  -12.8998  -43.0710 C.3       5 UNK        -0.1800 
     49 N           0.9975  -13.1394  -42.3520 N.am      5 UNK        -0.5000 
     50 C           2.2564  -13.5778  -42.1888 C.2       4 UNK         0.5000 
     51 O           2.6770  -14.6452  -42.6404 O.2       4 UNK        -0.5000 
     52 CA          3.1928  -12.6312  -41.4198 C.3       4 UNK         0.1400 
     53 CB          4.6188  -13.1884  -41.2591 C.3       4 UNK        -0.1800 
     54 N           3.2456  -11.3748  -42.1565 N.am      4 UNK        -0.5000 
     55 C           3.1467  -10.1425  -41.6449 C.2       3 UNK         0.5000 
     56 O           3.0657   -9.9095  -40.4383 O.2       3 UNK        -0.5000 
     57 CA          3.1194   -8.9667  -42.6482 C.3       3 UNK         0.1400 
     58 CB          4.5059   -8.3115  -42.7431 C.3       3 UNK        -0.1800 
     59 N           2.6893   -9.3554  -43.9952 N.am      3 UNK        -0.5000 
     60 C           1.4601   -9.7839  -44.3151 C.2       2 UNK         0.5000 
     61 O           0.5154   -9.7742  -43.5259 O.2       2 UNK        -0.5000 
     62 CA          1.2495  -10.3549  -45.7356 C.3       2 UNK         0.1400 
     63 CB          0.5364   -9.3247  -46.6241 C.3       2 UNK        -0.1800 
     64 N           2.4599  -10.8179  -46.4304 N.am      2 UNK        -0.5000 
     65 C           3.3397  -11.7278  -45.9826 C.2       1 UNK         0.5000 
     66 O           3.2729  -12.2249  -44.8617 O.2       1 UNK        -0.5000 
     67 C          -1.1566  -22.5195  -48.9803 C.2       11 UNK         0.5000 
     68 O          -1.2394  -23.4874  -49.7339 O.2       11 UNK        -0.5000 
     69 N          -2.2114  -21.7891  -48.5900 N.am      12 UNK        -0.5000 
     70 CA         -3.5937  -22.1111  -48.9426 C.3       12 UNK         0.1400 
     71 CB         -4.5189  -20.9535  -48.5336 C.3       12 UNK        -0.1800 
     72 C          -4.0559  -23.4383  -48.3137 C.2       12 UNK         0.5000 
     73 O          -4.5332  -24.3191  -49.0303 O.2       12 UNK        -0.5000 
     74 N          -3.8817  -23.5689  -46.9904 N.am      13 UNK        -0.5000 
     75 CA         -4.2995  -24.7212  -46.1869 C.3       13 UNK         0.1400 
     76 CB         -3.9964  -24.4535  -44.7060 C.3       13 UNK        -0.1800 
     77 C          -3.6783  -26.0585  -46.6274 C.2       13 UNK         0.5000 
     78 O          -4.3516  -27.0864  -46.5439 O.2       13 UNK        -0.5000 
     79 N          -2.4412  -26.0177  -47.1429 N.am      14 UNK        -0.5000 
     80 CA         -1.7103  -27.1593  -47.7021 C.3       14 UNK         0.1400 
     81 CB         -0.3053  -26.7004  -48.1212 C.3       14 UNK        -0.1800 
     82 C          -2.4177  -27.8633  -48.8804 C.2       14 UNK         0.5000 
     83 O          -2.1479  -29.0413  -49.1193 O.2       14 UNK        -0.5000 
     84 N          -3.3169  -27.1528  -49.5732 N.am      15 UNK        -0.5000 
     85 CA         -4.1735  -27.6832  -50.6330 C.3       15 UNK         0.1400 
     86 CB         -3.6576  -27.1875  -51.9931 C.3       15 UNK        -0.1800 
     87 C          -5.6516  -27.3265  -50.3791 C.2       15 UNK         0.5000 
     88 O          -6.4262  -27.2116  -51.3306 O.2       15 UNK        -0.5000 
     89 N          -6.0193  -27.1461  -49.0985 N.am      16 UNK        -0.5000 
     90 CA         -7.3672  -26.8678  -48.5794 C.3       16 UNK         0.1400 
     91 CB         -8.2398  -28.1344  -48.6938 C.3       16 UNK        -0.1800 
     92 C          -8.0543  -25.6270  -49.1969 C.2       16 UNK         0.5000 
     93 O          -9.2835  -25.5718  -49.2575 O.2       16 UNK        -0.5000 
     94 N          -7.2439  -24.6706  -49.6714 N.am      17 UNK        -0.5000 
     95 CA         -7.5993  -23.4647  -50.4248 C.3       17 UNK         0.1400 
     96 CB         -8.4195  -22.4927  -49.5535 C.3       17 UNK        -0.1800 
     97 C          -8.2557  -23.7313  -51.7998 C.2       17 UNK         0.5000 
     98 O          -8.7571  -22.7909  -52.4178 O.2       17 UNK        -0.5000 
     99 N          -8.2196  -24.9831  -52.2816 N.am      18 UNK        -0.5000 
    100 CA        -8.6819  -25.3744  -53.6168 C.3       18 UNK         0.1400 
    101 CB        -9.0370  -26.8691  -53.6063 C.3       18 UNK        -0.1800 
    102 C         -7.6249  -25.0745  -54.6974 C.2       18 UNK         0.5000 
    103 O         -7.9671  -24.9294  -55.8715 O.2       18 UNK        -0.5000 
    104 N         -6.3655  -24.9690  -54.2680 N.am      19 UNK        -0.5000 
    105 CA        -5.1971  -24.5514  -55.0263 C.3       19 UNK         0.1400 
    106 CB        -4.5807  -25.7684  -55.7400 C.3       19 UNK        -0.1800 
    107 C         -4.2194  -23.9067  -54.0296 C.2       19 UNK         0.5000 
    108 O         -4.5212  -23.8465  -52.8340 O.2       19 UNK        -0.5000 
    109 N         -3.0771  -23.4196  -54.5331 N.am      20 UNK        -0.5000 
    110 CA        -1.9148  -22.8814  -53.8018 C.3       20 UNK         0.1400 
    111 CB        -1.2741  -23.9821  -52.9352 C.3       20 UNK        -0.1800 
    112 C         -2.1477  -21.5857  -52.9878 C.2       20 UNK         0.5000 
    113 O         -1.1736  -20.9463  -52.5864 O.2       20 UNK        -0.5000 
    114 N         -3.4121  -21.2003  -52.7841 N.am      21 UNK        -0.5000 
    115 CA        -3.8471  -19.9442  -52.1834 C.3       21 UNK         0.1400 
    116 CB        -5.3602  -20.0271  -51.9254 C.3       21 UNK        -0.1800 
    117 C         -3.5161  -18.7335  -53.0752 C.2       21 UNK         0.5000 
    118 O         -3.3891  -18.8717  -54.2949 O.2       21 UNK        -0.5000 
    119 N         -3.4006  -17.5633  -52.4421 N.am      22 UNK        -0.5000 
    120 CA        -2.9736  -16.3055  -53.0778 C.3       22 UNK         0.1400 
    121 C         -4.0515  -15.6053  -53.9576 C.2       22 UNK         0.5000 
    122 N         -5.3017  -16.0510  -53.9641 N.am      22 UNK        -0.7600 
    123 O         -3.7449  -14.6404  -54.6526 O.2       22 UNK        -0.5000 
    124 C124       -2.3750  -15.3129  -52.0464 C.3       23 UNK        -0.0398 
    125 S125       -1.1729  -16.0717  -50.9003 S.3       23 UNK        -0.2404 
    126 C126        0.2828  -16.2390  -51.9716 C.3       23 UNK        -0.0205 
    127 H127        6.4827   -9.9392  -47.8139 H         1 UNK         0.0600 
    128 H128        5.6324   -8.6238  -48.6201 H         1 UNK         0.0600 
    129 H129        4.9808   -9.2907  -47.1285 H         1 UNK         0.0600 
    130 H130        3.7409  -12.3438  -48.8609 H         1 UNK         0.3000 
    131 H131        5.3791  -11.6351  -46.5154 H         1 UNK         0.0600 
    132 H132        5.7515  -13.8557  -47.3566 H         1 UNK         0.0800 
    133 H133        5.0133  -13.9476  -45.7950 H         1 UNK         0.0800 
    134 H134        4.4743  -14.4423  -49.6747 H         1 UNK         0.0800 
    135 H135        5.2485  -15.7532  -48.8146 H         1 UNK         0.0800 
    136 H136        2.0621  -14.7870  -50.5224 H         1 UNK         0.1150 
    137 H137        1.1451  -18.8164  -51.6700 H         1 UNK         0.1150 
    138 H138        4.5333  -18.0160  -49.1662 H         1 UNK         0.1150 
    139 H139        2.8287  -20.5607  -51.2770 H         1 UNK         0.0800 
    140 H140        4.3173  -20.1645  -50.4632 H         1 UNK         0.0800 
    141 H141        0.7417  -21.1897  -50.2889 H         1 UNK         0.0800 
    142 H142        0.3942  -20.0487  -49.0141 H         1 UNK         0.0800 
    143 H143        0.8467  -23.0337  -48.5049 H         1 UNK         0.0600 
    144 H144        0.4370  -20.9187  -46.6746 H         1 UNK         0.3000 
    145 H145       -1.0719  -22.8641  -44.0543 H         1 UNK         0.0600 
    146 H146        0.8297  -21.9198  -42.8105 H         1 UNK         0.0600 
    147 H147        1.3989  -23.1884  -43.8833 H         1 UNK         0.0600 
    148 H148        1.6572  -21.5019  -44.3090 H         1 UNK         0.0600 
    149 H149       -0.4173  -20.1118  -44.1562 H         1 UNK         0.3000 
    150 H150       -3.5186  -18.9747  -45.6092 H         1 UNK         0.0600 
    151 H151       -3.9540  -19.2341  -43.1939 H         1 UNK         0.0600 
    152 H152       -3.4023  -17.5966  -43.5196 H         1 UNK         0.0600 
    153 H153       -2.3030  -18.7763  -42.8061 H         1 UNK         0.0600 
    154 H154       -1.2442  -17.5070  -44.7738 H         1 UNK         0.3000 
    155 H155        0.6041  -17.6670  -47.8349 H         1 UNK         0.0600 
    156 H156        0.4327  -15.2433  -47.6168 H         1 UNK         0.0600 
    157 H157       -0.7941  -15.3728  -46.3563 H         1 UNK         0.0600 
    158 H158       -1.1688  -15.8521  -48.0004 H         1 UNK         0.0600 
    159 H159        1.1073  -16.4045  -45.3177 H         1 UNK         0.3000 
    160 H160        2.9609  -19.0941  -43.8358 H         1 UNK         0.0600 
    161 H161        3.6174  -16.2563  -44.7921 H         1 UNK         0.0600 
    162 H162        4.4398  -17.7154  -45.3315 H         1 UNK         0.0600 
    163 H163        4.5490  -17.2174  -43.6484 H         1 UNK         0.0600 
    164 H164        2.1466  -16.5182  -42.8602 H         1 UNK         0.3000 
    165 H165       -0.9432  -17.5176  -41.3923 H         1 UNK         0.0600 
    166 H166        1.7235  -16.9961  -39.9735 H         1 UNK         0.0600 
    167 H167        0.1169  -16.8136  -39.2670 H         1 UNK         0.0600 
    168 H168        0.6990  -18.4056  -39.7268 H         1 UNK         0.0600 
    169 H169        0.5704  -15.1364  -41.1239 H         1 UNK         0.3000 
    170 H170        0.2972  -13.6963  -44.2164 H         1 UNK         0.0600 
    171 H171       -2.1287  -13.3088  -43.6907 H         1 UNK         0.0600 
    172 H172       -1.6959  -12.8621  -42.0446 H         1 UNK         0.0600 
    173 H173       -1.1584  -11.8770  -43.4051 H         1 UNK         0.0600 
    174 H174        0.7661  -12.2402  -41.9538 H         1 UNK         0.3000 
    175 H175        2.7607  -12.4792  -40.4287 H         1 UNK         0.0600 
    176 H176        4.6100  -14.1352  -40.7179 H         1 UNK         0.0600 
    177 H177        5.2495  -12.4981  -40.6989 H         1 UNK         0.0600 
    178 H178        5.0915  -13.3643  -42.2264 H         1 UNK         0.0600 
    179 H179        3.2709  -11.4890  -43.1683 H         1 UNK         0.3000 
    180 H180        2.4140   -8.2256  -42.2669 H         1 UNK         0.0600 
    181 H181        5.2519   -9.0042  -43.1347 H         1 UNK         0.0600 
    182 H182        4.8492   -7.9793  -41.7624 H         1 UNK         0.0600 
    183 H183        4.4856   -7.4358  -43.3922 H         1 UNK         0.0600 
    184 H184        3.4047   -9.3918  -44.7052 H         1 UNK         0.3000 
    185 H185        0.5943  -11.2218  -45.6283 H         1 UNK         0.0600 
    186 H186        0.2694   -9.7530  -47.5904 H         1 UNK         0.0600 
    187 H187       -0.3876   -8.9776  -46.1594 H         1 UNK         0.0600 
    188 H188        1.1621   -8.4497  -46.8046 H         1 UNK         0.0600 
    189 H189        2.5884  -10.4711  -47.3697 H         1 UNK         0.3000 
    190 H190       -2.0594  -20.9888  -47.9859 H         1 UNK         0.3000 
    191 H191       -3.6479  -22.2233  -50.0276 H         1 UNK         0.0600 
    192 H192       -4.2159  -20.0178  -49.0024 H         1 UNK         0.0600 
    193 H193       -5.5480  -21.1527  -48.8341 H         1 UNK         0.0600 
    194 H194       -4.5212  -20.7931  -47.4559 H         1 UNK         0.0600 
    195 H195       -3.4839  -22.7869  -46.4730 H         1 UNK         0.3000 
    196 H196       -5.3814  -24.8148  -46.2995 H         1 UNK         0.0600 
    197 H197       -4.3278  -25.2839  -44.0813 H         1 UNK         0.0600 
    198 H198       -4.5081  -23.5579  -44.3533 H         1 UNK         0.0600 
    199 H199       -2.9282  -24.3196  -44.5357 H         1 UNK         0.0600 
    200 H200       -1.9427  -25.1335  -47.1222 H         1 UNK         0.3000 
    201 H201       -1.6037  -27.8974  -46.9050 H         1 UNK         0.0600 
    202 H202        0.2521  -26.3071  -47.2711 H         1 UNK         0.0600 
    203 H203       -0.3492  -25.9218  -48.8833 H         1 UNK         0.0600 
    204 H204        0.2734  -27.5292  -48.5309 H         1 UNK         0.0600 
    205 H205       -3.4828  -26.1851  -49.3156 H         1 UNK         0.3000 
    206 H206       -4.1372  -28.7741  -50.6395 H         1 UNK         0.0600 
    207 H207       -2.6421  -27.5368  -52.1791 H         1 UNK         0.0600 
    208 H208       -4.2803  -27.5477  -52.8124 H         1 UNK         0.0600 
    209 H209       -3.6458  -26.1007  -52.0321 H         1 UNK         0.0600 
    210 H210       -5.3037  -27.2466  -48.3867 H         1 UNK         0.3000 
    211 H211       -7.2426  -26.6449  -47.5189 H         1 UNK         0.0600 
    212 H212       -8.4479  -28.3863  -49.7344 H         1 UNK         0.0600 
    213 H213       -9.1980  -28.0012  -48.1902 H         1 UNK         0.0600 
    214 H214       -7.7512  -28.9926  -48.2324 H         1 UNK         0.0600 
    215 H215       -6.2422  -24.7987  -49.5398 H         1 UNK         0.3000 
    216 H216       -6.6487  -22.9794  -50.6483 H         1 UNK         0.0600 
    217 H217       -7.9258  -22.3063  -48.5998 H         1 UNK         0.0600 
    218 H218       -9.4177  -22.8788  -49.3460 H         1 UNK         0.0600 
    219 H219       -8.5390  -21.5284  -50.0487 H         1 UNK         0.0600 
    220 H220       -7.7589  -25.7053  -51.7367 H         1 UNK         0.3000 
    221 H221       -9.5844  -24.8114  -53.8634 H         1 UNK         0.0600 
    222 H222       -8.1641  -27.4897  -53.4005 H         1 UNK         0.0600 
    223 H223       -9.7912  -27.0902  -52.8509 H         1 UNK         0.0600 
    224 H224       -9.4399  -27.1804  -54.5708 H         1 UNK         0.0600 
    225 H225       -6.1889  -25.0457  -53.2733 H         1 UNK         0.3000 
    226 H226       -5.4874  -23.7958  -55.7590 H         1 UNK         0.0600 
    227 H227       -5.3042  -26.2463  -56.4006 H         1 UNK         0.0600 
    228 H228       -3.7280  -25.4786  -56.3545 H         1 UNK         0.0600 
    229 H229       -4.2338  -26.5180  -55.0284 H         1 UNK         0.0600 
    230 H230       -2.9518  -23.4683  -55.5347 H         1 UNK         0.3000 
    231 H231       -1.1879  -22.6130  -54.5698 H         1 UNK         0.0600 
    232 H232       -0.3637  -23.6234  -52.4535 H         1 UNK         0.0600 
    233 H233       -1.0039  -24.8510  -53.5351 H         1 UNK         0.0600 
    234 H234       -1.9475  -24.3174  -52.1466 H         1 UNK         0.0600 
    235 H235       -4.1375  -21.8320  -53.0949 H         1 UNK         0.3000 
    236 H236       -3.3244  -19.8289  -51.2319 H         1 UNK         0.0600 
    237 H237       -5.7189  -19.1423  -51.3983 H         1 UNK         0.0600 
    238 H238       -5.9229  -20.1072  -52.8566 H         1 UNK         0.0600 
    239 H239       -5.6107  -20.8924  -51.3132 H         1 UNK         0.0600 
    240 H240       -3.5259  -17.5252  -51.4412 H         1 UNK         0.3000 
    241 H241       -2.1692  -16.5616  -53.7699 H         1 UNK         0.0600 
    242 H242       -5.5641  -16.8468  -53.4055 H         1 UNK         0.3800 
    243 H243       -5.9901  -15.5927  -54.5406 H         1 UNK         0.3800 
    244 H244       -1.8937  -14.4749  -52.5538 H         1 UNK         0.0800 
    245 H245       -3.1715  -14.8793  -51.4392 H         1 UNK         0.0800 
    246 H246        0.5202  -15.2748  -52.4237 H         1 UNK         0.0800 
    247 H247        0.0568  -16.9221  -52.7915 H         1 UNK         0.0800 
@<TRIPOS>BOND
     1    1    2 1    
     2    1  127 1    
     3    1  128 1    
     4    1  129 1    
     5    2    3 2    
     6    2    4 am   BACKBONE|DICT|INTERRES
     7    4    5 1    
     8    4  130 1    
     9    5    6 1    
    10    5   65 1    
    11    5  131 1    
    12    6    7 1    
    13    6  132 1    
    14    6  133 1    
    15    7    8 1    
    16    8    9 1    
    17    8  134 1    
    18    8  135 1    
    19    9   10 ar   
    20    9   14 ar   
    21   10   11 ar   
    22   10  136 1    
    23   11   12 ar   
    24   11  126 1    
    25   12   13 ar   
    26   12  137 1    
    27   13   14 ar   
    28   13   15 1    
    29   14  138 1    
    30   15   16 1    
    31   15  139 1    
    32   15  140 1    
    33   16   17 1    
    34   17   18 1    
    35   17  141 1    
    36   17  142 1    
    37   18   19 1    
    38   18   67 1    
    39   18  143 1    
    40   19   20 am   BACKBONE|DICT|INTERRES
    41   19  144 1    
    42   20   21 2    
    43   20   22 1    
    44   22   23 1    
    45   22   24 1    
    46   22  145 1    
    47   23  146 1    
    48   23  147 1    
    49   23  148 1    
    50   24   25 am   BACKBONE|DICT|INTERRES
    51   24  149 1    
    52   25   26 2    
    53   25   27 1    
    54   27   28 1    
    55   27   29 1    
    56   27  150 1    
    57   28  151 1    
    58   28  152 1    
    59   28  153 1    
    60   29   30 am   BACKBONE|DICT|INTERRES
    61   29  154 1    
    62   30   31 2    
    63   30   32 1    
    64   32   33 1    
    65   32   34 1    
    66   32  155 1    
    67   33  156 1    
    68   33  157 1    
    69   33  158 1    
    70   34   35 am   BACKBONE|DICT|INTERRES
    71   34  159 1    
    72   35   36 2    
    73   35   37 1    
    74   37   38 1    
    75   37   39 1    
    76   37  160 1    
    77   38  161 1    
    78   38  162 1    
    79   38  163 1    
    80   39   40 am   BACKBONE|DICT|INTERRES
    81   39  164 1    
    82   40   41 2    
    83   40   42 1    
    84   42   43 1    
    85   42   44 1    
    86   42  165 1    
    87   43  166 1    
    88   43  167 1    
    89   43  168 1    
    90   44   45 am   BACKBONE|DICT|INTERRES
    91   44  169 1    
    92   45   46 2    
    93   45   47 1    
    94   47   48 1    
    95   47   49 1    
    96   47  170 1    
    97   48  171 1    
    98   48  172 1    
    99   48  173 1    
   100   49   50 am   BACKBONE|DICT|INTERRES
   101   49  174 1    
   102   50   51 2    
   103   50   52 1    
   104   52   53 1    
   105   52   54 1    
   106   52  175 1    
   107   53  176 1    
   108   53  177 1    
   109   53  178 1    
   110   54   55 am   BACKBONE|DICT|INTERRES
   111   54  179 1    
   112   55   56 2    
   113   55   57 1    
   114   57   58 1    
   115   57   59 1    
   116   57  180 1    
   117   58  181 1    
   118   58  182 1    
   119   58  183 1    
   120   59   60 am   BACKBONE|DICT|INTERRES
   121   59  184 1    
   122   60   61 2    
   123   60   62 1    
   124   62   63 1    
   125   62   64 1    
   126   62  185 1    
   127   63  186 1    
   128   63  187 1    
   129   63  188 1    
   130   64   65 am   BACKBONE|DICT|INTERRES
   131   64  189 1    
   132   65   66 2    
   133   67   68 2    
   134   67   69 am   BACKBONE|DICT|INTERRES
   135   69   70 1    
   136   69  190 1    
   137   70   71 1    
   138   70   72 1    
   139   70  191 1    
   140   71  192 1    
   141   71  193 1    
   142   71  194 1    
   143   72   73 2    
   144   72   74 am   BACKBONE|DICT|INTERRES
   145   74   75 1    
   146   74  195 1    
   147   75   76 1    
   148   75   77 1    
   149   75  196 1    
   150   76  197 1    
   151   76  198 1    
   152   76  199 1    
   153   77   78 2    
   154   77   79 am   BACKBONE|DICT|INTERRES
   155   79   80 1    
   156   79  200 1    
   157   80   81 1    
   158   80   82 1    
   159   80  201 1    
   160   81  202 1    
   161   81  203 1    
   162   81  204 1    
   163   82   83 2    
   164   82   84 am   BACKBONE|DICT|INTERRES
   165   84   85 1    
   166   84  205 1    
   167   85   86 1    
   168   85   87 1    
   169   85  206 1    
   170   86  207 1    
   171   86  208 1    
   172   86  209 1    
   173   87   88 2    
   174   87   89 am   BACKBONE|DICT|INTERRES
   175   89   90 1    
   176   89  210 1    
   177   90   91 1    
   178   90   92 1    
   179   90  211 1    
   180   91  212 1    
   181   91  213 1    
   182   91  214 1    
   183   92   93 2    
   184   92   94 am   BACKBONE|DICT|INTERRES
   185   94   95 1    
   186   94  215 1    
   187   95   96 1    
   188   95   97 1    
   189   95  216 1    
   190   96  217 1    
   191   96  218 1    
   192   96  219 1    
   193   97   98 2    
   194   97   99 am   BACKBONE|DICT|INTERRES
   195   99  100 1    
   196   99  220 1    
   197  100  101 1    
   198  100  102 1    
   199  100  221 1    
   200  101  222 1    
   201  101  223 1    
   202  101  224 1    
   203  102  103 2    
   204  102  104 am   BACKBONE|DICT|INTERRES
   205  104  105 1    
   206  104  225 1    
   207  105  106 1    
   208  105  107 1    
   209  105  226 1    
   210  106  227 1    
   211  106  228 1    
   212  106  229 1    
   213  107  108 2    
   214  107  109 am   BACKBONE|DICT|INTERRES
   215  109  110 1    
   216  109  230 1    
   217  110  111 1    
   218  110  112 1    
   219  110  231 1    
   220  111  232 1    
   221  111  233 1    
   222  111  234 1    
   223  112  113 2    
   224  112  114 am   BACKBONE|DICT|INTERRES
   225  114  115 1    
   226  114  235 1    
   227  115  116 1    
   228  115  117 1    
   229  115  236 1    
   230  116  237 1    
   231  116  238 1    
   232  116  239 1    
   233  117  118 2    
   234  117  119 am   BACKBONE|DICT|INTERRES
   235  119  120 1    
   236  119  240 1    
   237  120  121 1    
   238  120  124 1    
   239  120  241 1    
   240  121  122 am   BACKBONE|DICT|INTERRES
   241  121  123 2    
   242  122  242 1    
   243  122  243 1    
   244  124  125 1    
   245  124  244 1    
   246  124  245 1    
   247  125  126 1    
   248  126  246 1    
   249  126  247 1    
@<TRIPOS>SUBSTRUCTURE
     1 UNK         1 GROUP             0       ****    0 ROOT    
