@<TRIPOS>MOLECULE
3R540
247   249    1
SMALL
USER_CHARGES


@<TRIPOS>ATOM
      1 CA         -1.4365  -12.6808  -47.7206 C.3       0 UNK        -0.1800 
      2 C           0.0565  -12.5415  -47.9789 C.2       0 UNK         0.5000 
      3 O           0.5894  -11.4349  -47.8970 O.2       0 UNK        -0.5000 
      4 N           0.7298  -13.6642  -48.2693 N.am      1 UNK        -0.5000 
      5 CA          2.1595  -13.7754  -48.6074 C.3       1 UNK         0.1400 
      6 C6          2.5241  -15.2519  -48.8998 C.3       23 UNK        -0.0398 
      7 S7          4.0802  -15.4632  -49.8352 S.3       23 UNK        -0.2404 
      8 C8          3.4891  -15.7494  -51.5400 C.3       23 UNK        -0.0205 
      9 C9          2.5024  -16.9065  -51.6661 C.ar      23 UNK        -0.0193 
     10 C10         1.3343  -16.7419  -52.4159 C.ar      23 UNK        -0.1150 
     11 C11         0.4031  -17.7787  -52.5235 C.ar      23 UNK        -0.0193 
     12 C12         0.6407  -18.9864  -51.8593 C.ar      23 UNK        -0.1150 
     13 C13         1.8017  -19.1637  -51.1004 C.ar      23 UNK        -0.0193 
     14 C14         2.7384  -18.1292  -51.0294 C.ar      23 UNK        -0.1150 
     15 C15         2.0516  -20.4653  -50.3507 C.3       23 UNK        -0.0205 
     16 S16         2.0122  -20.2296  -48.5419 S.3       23 UNK        -0.2404 
     17 C17         0.2315  -19.9908  -48.2263 C.3       23 UNK        -0.0398 
     18 CA         -0.3812  -21.2037  -47.4879 C.3       11 UNK         0.1400 
     19 N           0.0520  -21.3079  -46.0901 N.am      11 UNK        -0.5000 
     20 C          -0.2049  -22.3638  -45.3030 C.2       10 UNK         0.5000 
     21 O          -0.7911  -23.3758  -45.6875 O.2       10 UNK        -0.5000 
     22 CA          0.2114  -22.2548  -43.8266 C.3       10 UNK         0.1400 
     23 CB          1.7220  -22.4809  -43.6653 C.3       10 UNK        -0.1800 
     24 N          -0.1702  -20.9753  -43.2282 N.am      10 UNK        -0.5000 
     25 C          -1.4326  -20.5464  -43.0845 C.2       9 UNK         0.5000 
     26 O          -2.4187  -21.2097  -43.4018 O.2       9 UNK        -0.5000 
     27 CA         -1.6308  -19.1180  -42.5443 C.3       9 UNK         0.1400 
     28 CB         -1.5216  -19.0876  -41.0133 C.3       9 UNK        -0.1800 
     29 N          -0.6909  -18.1595  -43.1245 N.am      9 UNK        -0.5000 
     30 C          -0.6161  -17.8578  -44.4289 C.2       8 UNK         0.5000 
     31 O          -1.3560  -18.3309  -45.2911 O.2       8 UNK        -0.5000 
     32 CA          0.5168  -16.9072  -44.8439 C.3       8 UNK         0.1400 
     33 CB          0.1315  -15.4462  -44.5690 C.3       8 UNK        -0.1800 
     34 N           1.7649  -17.2339  -44.1543 N.am      8 UNK        -0.5000 
     35 C           2.4832  -18.3406  -44.3950 C.2       7 UNK         0.5000 
     36 O           2.1840  -19.1741  -45.2497 O.2       7 UNK        -0.5000 
     37 CA          3.7124  -18.5790  -43.4979 C.3       7 UNK         0.1400 
     38 CB          4.9253  -17.7899  -44.0127 C.3       7 UNK        -0.1800 
     39 N           3.4647  -18.2362  -42.0956 N.am      7 UNK        -0.5000 
     40 C           2.6136  -18.9000  -41.3006 C.2       6 UNK         0.5000 
     41 O           1.9804  -19.8906  -41.6604 O.2       6 UNK        -0.5000 
     42 CA          2.3966  -18.3473  -39.8788 C.3       6 UNK         0.1400 
     43 CB          3.4169  -18.9579  -38.9067 C.3       6 UNK        -0.1800 
     44 N           2.4458  -16.8855  -39.7745 N.am      6 UNK        -0.5000 
     45 C           1.6936  -16.0252  -40.4744 C.2       5 UNK         0.5000 
     46 O           0.9131  -16.3706  -41.3657 O.2       5 UNK        -0.5000 
     47 CA          1.8900  -14.5338  -40.1340 C.3       5 UNK         0.1400 
     48 CB          3.2946  -14.0663  -40.5464 C.3       5 UNK        -0.1800 
     49 N           0.8909  -13.6704  -40.7698 N.am      5 UNK        -0.5000 
     50 C          -0.4020  -13.6220  -40.4124 C.2       4 UNK         0.5000 
     51 O          -0.8630  -14.2728  -39.4725 O.2       4 UNK        -0.5000 
     52 CA         -1.3414  -12.6889  -41.2045 C.3       4 UNK         0.1400 
     53 CB         -2.2007  -11.8269  -40.2621 C.3       4 UNK        -0.1800 
     54 N          -0.6131  -11.7968  -42.1074 N.am      4 UNK        -0.5000 
     55 C          -0.7188  -11.7859  -43.4411 C.2       3 UNK         0.5000 
     56 O          -1.4475  -12.5453  -44.0795 O.2       3 UNK        -0.5000 
     57 CA          0.1441  -10.7610  -44.2064 C.3       3 UNK         0.1400 
     58 CB          0.5647   -9.5370  -43.3616 C.3       3 UNK        -0.1800 
     59 N           1.3126  -11.3950  -44.8219 N.am      3 UNK        -0.5000 
     60 C           2.2845  -12.0772  -44.1960 C.2       2 UNK         0.5000 
     61 O           2.3318  -12.2306  -42.9751 O.2       2 UNK        -0.5000 
     62 CA          3.3478  -12.7289  -45.0978 C.3       2 UNK         0.1400 
     63 CB          4.1546  -13.8294  -44.3865 C.3       2 UNK        -0.1800 
     64 N           2.6937  -13.3001  -46.2700 N.am      2 UNK        -0.5000 
     65 C           3.0974  -13.1698  -47.5368 C.2       1 UNK         0.5000 
     66 O           4.1256  -12.5818  -47.8749 O.2       1 UNK        -0.5000 
     67 C          -1.9167  -21.2099  -47.6135 C.2       11 UNK         0.5000 
     68 O          -2.4363  -21.9086  -48.4822 O.2       11 UNK        -0.5000 
     69 N          -2.6187  -20.4819  -46.7339 N.am      12 UNK        -0.5000 
     70 CA         -4.0810  -20.4586  -46.6693 C.3       12 UNK         0.1400 
     71 CB         -4.5437  -19.3834  -45.6751 C.3       12 UNK        -0.1800 
     72 C          -4.6832  -21.8330  -46.3214 C.2       12 UNK         0.5000 
     73 O          -5.6135  -22.2711  -46.9982 O.2       12 UNK        -0.5000 
     74 N          -4.1135  -22.5098  -45.3136 N.am      13 UNK        -0.5000 
     75 CA         -4.5027  -23.8549  -44.8796 C.3       13 UNK         0.1400 
     76 CB         -3.7524  -24.2138  -43.5882 C.3       13 UNK        -0.1800 
     77 C          -4.2727  -24.9319  -45.9569 C.2       13 UNK         0.5000 
     78 O          -5.0971  -25.8351  -46.1005 O.2       13 UNK        -0.5000 
     79 N          -3.1788  -24.7958  -46.7177 N.am      14 UNK        -0.5000 
     80 CA         -2.8401  -25.6432  -47.8629 C.3       14 UNK         0.1400 
     81 CB         -1.3294  -25.5273  -48.1250 C.3       14 UNK        -0.1800 
     82 C          -3.6289  -25.2956  -49.1429 C.2       14 UNK         0.5000 
     83 O          -3.4527  -25.9758  -50.1553 O.2       14 UNK        -0.5000 
     84 N          -4.4302  -24.2198  -49.1091 N.am      15 UNK        -0.5000 
     85 CA         -5.1688  -23.6277  -50.2283 C.3       15 UNK         0.1400 
     86 CB         -6.3200  -24.5505  -50.6766 C.3       15 UNK        -0.1800 
     87 C          -4.2400  -23.2212  -51.3901 C.2       15 UNK         0.5000 
     88 O          -4.5740  -23.4443  -52.5543 O.2       15 UNK        -0.5000 
     89 N          -3.0851  -22.6373  -51.0425 N.am      16 UNK        -0.5000 
     90 CA         -1.9678  -22.2622  -51.9144 C.3       16 UNK         0.1400 
     91 CB         -2.3888  -21.1657  -52.9120 C.3       16 UNK        -0.1800 
     92 C          -1.2934  -23.4790  -52.5813 C.2       16 UNK         0.5000 
     93 O          -0.8218  -23.3789  -53.7131 O.2       16 UNK        -0.5000 
     94 N          -1.2689  -24.6062  -51.8533 N.am      17 UNK        -0.5000 
     95 CA         -0.8582  -25.9428  -52.2956 C.3       17 UNK         0.1400 
     96 CB          0.6356  -25.9810  -52.6819 C.3       17 UNK        -0.1800 
     97 C          -1.8019  -26.4705  -53.3944 C.2       17 UNK         0.5000 
     98 O          -1.3483  -26.8892  -54.4611 O.2       17 UNK        -0.5000 
     99 N          -3.1087  -26.4115  -53.0946 N.am      18 UNK        -0.5000 
    100 CA        -4.2404  -26.7544  -53.9609 C.3       18 UNK         0.1400 
    101 CB        -4.2848  -28.2742  -54.2230 C.3       18 UNK        -0.1800 
    102 C         -4.2752  -25.9098  -55.2536 C.2       18 UNK         0.5000 
    103 O         -4.3596  -26.4561  -56.3555 O.2       18 UNK        -0.5000 
    104 N         -4.2131  -24.5843  -55.0851 N.am      19 UNK        -0.5000 
    105 CA        -4.2603  -23.5842  -56.1510 C.3       19 UNK         0.1400 
    106 CB        -2.8438  -23.0601  -56.4444 C.3       19 UNK        -0.1800 
    107 C         -5.2582  -22.4713  -55.7835 C.2       19 UNK         0.5000 
    108 O         -4.9712  -21.2871  -55.9692 O.2       19 UNK        -0.5000 
    109 N         -6.4212  -22.8882  -55.2598 N.am      20 UNK        -0.5000 
    110 CA        -7.6115  -22.0808  -54.9674 C.3       20 UNK         0.1400 
    111 CB        -8.2691  -21.6167  -56.2842 C.3       20 UNK        -0.1800 
    112 C         -7.3723  -20.9153  -53.9837 C.2       20 UNK         0.5000 
    113 O         -7.9980  -19.8622  -54.1222 O.2       20 UNK        -0.5000 
    114 N         -6.4646  -21.1159  -53.0147 N.am      21 UNK        -0.5000 
    115 CA        -6.0996  -20.1674  -51.9507 C.3       21 UNK         0.1400 
    116 CB        -7.2376  -20.0582  -50.9156 C.3       21 UNK        -0.1800 
    117 C         -5.6318  -18.7990  -52.4900 C.2       21 UNK         0.5000 
    118 O         -6.0069  -17.7553  -51.9538 O.2       21 UNK        -0.5000 
    119 N         -4.8330  -18.8526  -53.5630 N.am      22 UNK        -0.5000 
    120 CA        -4.2969  -17.7162  -54.3301 C.3       22 UNK         0.1400 
    121 C         -5.3310  -17.0424  -55.2838 C.2       22 UNK         0.5000 
    122 N         -6.5556  -17.5398  -55.4175 N.am      22 UNK        -0.7600 
    123 O         -5.0082  -16.0584  -55.9440 O.2       22 UNK        -0.5000 
    124 C124       -3.5248  -16.6597  -53.4818 C.3       23 UNK        -0.0398 
    125 S125       -2.3126  -17.3400  -52.2943 S.3       23 UNK        -0.2404 
    126 C126       -0.8571  -17.5865  -53.3546 C.3       23 UNK        -0.0205 
    127 H127       -1.7397  -13.7252  -47.6437 H         1 UNK         0.0600 
    128 H128       -2.0010  -12.2184  -48.5301 H         1 UNK         0.0600 
    129 H129       -1.7055  -12.1822  -46.7898 H         1 UNK         0.0600 
    130 H130        0.2097  -14.5282  -48.3197 H         1 UNK         0.3000 
    131 H131        2.3010  -13.1988  -49.5239 H         1 UNK         0.0600 
    132 H132        2.6011  -15.8241  -47.9731 H         1 UNK         0.0800 
    133 H133        1.7152  -15.7246  -49.4564 H         1 UNK         0.0800 
    134 H134        3.0430  -14.8234  -51.9063 H         1 UNK         0.0800 
    135 H135        4.3482  -15.9523  -52.1803 H         1 UNK         0.0800 
    136 H136        1.1459  -15.8017  -52.9152 H         1 UNK         0.1150 
    137 H137       -0.0856  -19.7815  -51.9264 H         1 UNK         0.1150 
    138 H138        3.6379  -18.2672  -50.4459 H         1 UNK         0.1150 
    139 H139        1.3284  -21.2309  -50.6355 H         1 UNK         0.0800 
    140 H140        3.0322  -20.8514  -50.6324 H         1 UNK         0.0800 
    141 H141       -0.2729  -19.8153  -49.1781 H         1 UNK         0.0800 
    142 H142        0.0991  -19.0780  -47.6432 H         1 UNK         0.0800 
    143 H143       -0.0353  -22.1072  -47.9953 H         1 UNK         0.0600 
    144 H144        0.5743  -20.5240  -45.7142 H         1 UNK         0.3000 
    145 H145       -0.3077  -23.0436  -43.2784 H         1 UNK         0.0600 
    146 H146        2.0246  -23.4306  -44.1081 H         1 UNK         0.0600 
    147 H147        2.3024  -21.6936  -44.1467 H         1 UNK         0.0600 
    148 H148        2.0051  -22.5088  -42.6131 H         1 UNK         0.0600 
    149 H149        0.5876  -20.3966  -42.8770 H         1 UNK         0.3000 
    150 H150       -2.6373  -18.7953  -42.8179 H         1 UNK         0.0600 
    151 H151       -1.6678  -18.0791  -40.6253 H         1 UNK         0.0600 
    152 H152       -0.5493  -19.4408  -40.6722 H         1 UNK         0.0600 
    153 H153       -2.2791  -19.7266  -40.5578 H         1 UNK         0.0600 
    154 H154       -0.0558  -17.6907  -42.4852 H         1 UNK         0.3000 
    155 H155        0.6803  -17.0204  -45.9179 H         1 UNK         0.0600 
    156 H156       -0.1315  -15.2794  -43.5241 H         1 UNK         0.0600 
    157 H157       -0.7299  -15.1517  -45.1697 H         1 UNK         0.0600 
    158 H158        0.9458  -14.7695  -44.8126 H         1 UNK         0.0600 
    159 H159        2.0100  -16.6556  -43.3629 H         1 UNK         0.3000 
    160 H160        3.9551  -19.6427  -43.5487 H         1 UNK         0.0600 
    161 H161        5.1270  -18.0224  -45.0593 H         1 UNK         0.0600 
    162 H162        5.8239  -18.0369  -43.4471 H         1 UNK         0.0600 
    163 H163        4.7692  -16.7140  -43.9396 H         1 UNK         0.0600 
    164 H164        3.9475  -17.4322  -41.7233 H         1 UNK         0.3000 
    165 H165        1.4005  -18.6572  -39.5589 H         1 UNK         0.0600 
    166 H166        3.2071  -18.6651  -37.8778 H         1 UNK         0.0600 
    167 H167        3.3887  -20.0479  -38.9440 H         1 UNK         0.0600 
    168 H168        4.4351  -18.6475  -39.1443 H         1 UNK         0.0600 
    169 H169        3.0725  -16.5161  -39.0742 H         1 UNK         0.3000 
    170 H170        1.7944  -14.4203  -39.0522 H         1 UNK         0.0600 
    171 H171        3.4237  -12.9974  -40.3752 H         1 UNK         0.0600 
    172 H172        4.0688  -14.5790  -39.9748 H         1 UNK         0.0600 
    173 H173        3.4850  -14.2620  -41.6004 H         1 UNK         0.0600 
    174 H174        1.2083  -13.1326  -41.5701 H         1 UNK         0.3000 
    175 H175       -2.0109  -13.3402  -41.7696 H         1 UNK         0.0600 
    176 H176       -1.5844  -11.1858  -39.6309 H         1 UNK         0.0600 
    177 H177       -2.8811  -11.1880  -40.8255 H         1 UNK         0.0600 
    178 H178       -2.8124  -12.4468  -39.6055 H         1 UNK         0.0600 
    179 H179        0.0468  -11.1653  -41.6753 H         1 UNK         0.3000 
    180 H180       -0.4746  -10.3934  -45.0265 H         1 UNK         0.0600 
    181 H181        1.0629   -8.7927  -43.9827 H         1 UNK         0.0600 
    182 H182        1.2491   -9.7985  -42.5542 H         1 UNK         0.0600 
    183 H183       -0.3046   -9.0518  -42.9158 H         1 UNK         0.0600 
    184 H184        1.3409  -11.3488  -45.8342 H         1 UNK         0.3000 
    185 H185        4.0329  -11.9325  -45.3949 H         1 UNK         0.0600 
    186 H186        3.5049  -14.6241  -44.0194 H         1 UNK         0.0600 
    187 H187        4.8858  -14.2782  -45.0590 H         1 UNK         0.0600 
    188 H188        4.7039  -13.4248  -43.5358 H         1 UNK         0.0600 
    189 H189        1.8110  -13.7596  -46.1012 H         1 UNK         0.3000 
    190 H190       -2.1229  -19.8899  -46.0721 H         1 UNK         0.3000 
    191 H191       -4.4490  -20.1793  -47.6589 H         1 UNK         0.0600 
    192 H192       -4.1914  -19.5881  -44.6644 H         1 UNK         0.0600 
    193 H193       -5.6323  -19.3283  -45.6386 H         1 UNK         0.0600 
    194 H194       -4.1771  -18.3978  -45.9626 H         1 UNK         0.0600 
    195 H195       -3.3741  -22.0600  -44.7783 H         1 UNK         0.3000 
    196 H196       -5.5714  -23.8346  -44.6570 H         1 UNK         0.0600 
    197 H197       -4.0322  -25.2071  -43.2351 H         1 UNK         0.0600 
    198 H198       -3.9829  -23.5081  -42.7900 H         1 UNK         0.0600 
    199 H199       -2.6720  -24.2087  -43.7368 H         1 UNK         0.0600 
    200 H200       -2.5158  -24.0613  -46.4884 H         1 UNK         0.3000 
    201 H201       -3.0654  -26.6817  -47.6125 H         1 UNK         0.0600 
    202 H202       -0.7549  -25.8008  -47.2397 H         1 UNK         0.0600 
    203 H203       -1.0470  -24.5114  -48.4040 H         1 UNK         0.0600 
    204 H204       -1.0143  -26.1919  -48.9299 H         1 UNK         0.0600 
    205 H205       -4.4952  -23.7097  -48.2367 H         1 UNK         0.3000 
    206 H206       -5.6101  -22.7047  -49.8506 H         1 UNK         0.0600 
    207 H207       -6.9429  -24.0626  -51.4274 H         1 UNK         0.0600 
    208 H208       -5.9511  -25.4800  -51.1109 H         1 UNK         0.0600 
    209 H209       -6.9664  -24.8066  -49.8373 H         1 UNK         0.0600 
    210 H210       -2.9219  -22.4659  -50.0488 H         1 UNK         0.3000 
    211 H211       -1.2098  -21.8319  -51.2590 H         1 UNK         0.0600 
    212 H212       -3.1799  -21.4988  -53.5817 H         1 UNK         0.0600 
    213 H213       -1.5506  -20.8497  -53.5332 H         1 UNK         0.0600 
    214 H214       -2.7455  -20.2859  -52.3798 H         1 UNK         0.0600 
    215 H215       -1.7267  -24.5808  -50.9537 H         1 UNK         0.3000 
    216 H216       -0.9871  -26.6050  -51.4384 H         1 UNK         0.0600 
    217 H217        0.9566  -27.0040  -52.8812 H         1 UNK         0.0600 
    218 H218        1.2605  -25.5956  -51.8764 H         1 UNK         0.0600 
    219 H219        0.8444  -25.3967  -53.5781 H         1 UNK         0.0600 
    220 H220       -3.3559  -26.0777  -52.1679 H         1 UNK         0.3000 
    221 H221       -5.1405  -26.4928  -53.4026 H         1 UNK         0.0600 
    222 H222       -3.4277  -28.6125  -54.8059 H         1 UNK         0.0600 
    223 H223       -4.2961  -28.8342  -53.2879 H         1 UNK         0.0600 
    224 H224       -5.1842  -28.5482  -54.7756 H         1 UNK         0.0600 
    225 H225       -4.1971  -24.2114  -54.1361 H         1 UNK         0.3000 
    226 H226       -4.6439  -24.0369  -57.0673 H         1 UNK         0.0600 
    227 H227       -2.1570  -23.8780  -56.6625 H         1 UNK         0.0600 
    228 H228       -2.8449  -22.3949  -57.3084 H         1 UNK         0.0600 
    229 H229       -2.4394  -22.5006  -55.6026 H         1 UNK         0.0600 
    230 H230       -6.5248  -23.8812  -55.1059 H         1 UNK         0.3000 
    231 H231       -8.3149  -22.7485  -54.4680 H         1 UNK         0.0600 
    232 H232       -7.6428  -20.8993  -56.8159 H         1 UNK         0.0600 
    233 H233       -8.4546  -22.4587  -56.9510 H         1 UNK         0.0600 
    234 H234       -9.2306  -21.1371  -56.0974 H         1 UNK         0.0600 
    235 H235       -5.9579  -21.9948  -53.0213 H         1 UNK         0.3000 
    236 H236       -5.2340  -20.5820  -51.4363 H         1 UNK         0.0600 
    237 H237       -8.1291  -19.5980  -51.3431 H         1 UNK         0.0600 
    238 H238       -7.5181  -21.0392  -50.5325 H         1 UNK         0.0600 
    239 H239       -6.9332  -19.4525  -50.0612 H         1 UNK         0.0600 
    240 H240       -4.6482  -19.7603  -53.9677 H         1 UNK         0.3000 
    241 H241       -3.5669  -18.1687  -55.0019 H         1 UNK         0.0600 
    242 H242       -7.2003  -17.0920  -56.0489 H         1 UNK         0.3800 
    243 H243       -6.8632  -18.3429  -54.8806 H         1 UNK         0.3800 
    244 H244       -3.0067  -15.9569  -54.1360 H         1 UNK         0.0800 
    245 H245       -4.2301  -16.0542  -52.9110 H         1 UNK         0.0800 
    246 H246       -0.7397  -16.7309  -54.0213 H         1 UNK         0.0800 
    247 H247       -1.0162  -18.4557  -53.9938 H         1 UNK         0.0800 
@<TRIPOS>BOND
     1    1    2 1    
     2    1  127 1    
     3    1  128 1    
     4    1  129 1    
     5    2    3 2    
     6    2    4 am   BACKBONE|DICT|INTERRES
     7    4    5 1    
     8    4  130 1    
     9    5    6 1    
    10    5   65 1    
    11    5  131 1    
    12    6    7 1    
    13    6  132 1    
    14    6  133 1    
    15    7    8 1    
    16    8    9 1    
    17    8  134 1    
    18    8  135 1    
    19    9   10 ar   
    20    9   14 ar   
    21   10   11 ar   
    22   10  136 1    
    23   11   12 ar   
    24   11  126 1    
    25   12   13 ar   
    26   12  137 1    
    27   13   14 ar   
    28   13   15 1    
    29   14  138 1    
    30   15   16 1    
    31   15  139 1    
    32   15  140 1    
    33   16   17 1    
    34   17   18 1    
    35   17  141 1    
    36   17  142 1    
    37   18   19 1    
    38   18   67 1    
    39   18  143 1    
    40   19   20 am   BACKBONE|DICT|INTERRES
    41   19  144 1    
    42   20   21 2    
    43   20   22 1    
    44   22   23 1    
    45   22   24 1    
    46   22  145 1    
    47   23  146 1    
    48   23  147 1    
    49   23  148 1    
    50   24   25 am   BACKBONE|DICT|INTERRES
    51   24  149 1    
    52   25   26 2    
    53   25   27 1    
    54   27   28 1    
    55   27   29 1    
    56   27  150 1    
    57   28  151 1    
    58   28  152 1    
    59   28  153 1    
    60   29   30 am   BACKBONE|DICT|INTERRES
    61   29  154 1    
    62   30   31 2    
    63   30   32 1    
    64   32   33 1    
    65   32   34 1    
    66   32  155 1    
    67   33  156 1    
    68   33  157 1    
    69   33  158 1    
    70   34   35 am   BACKBONE|DICT|INTERRES
    71   34  159 1    
    72   35   36 2    
    73   35   37 1    
    74   37   38 1    
    75   37   39 1    
    76   37  160 1    
    77   38  161 1    
    78   38  162 1    
    79   38  163 1    
    80   39   40 am   BACKBONE|DICT|INTERRES
    81   39  164 1    
    82   40   41 2    
    83   40   42 1    
    84   42   43 1    
    85   42   44 1    
    86   42  165 1    
    87   43  166 1    
    88   43  167 1    
    89   43  168 1    
    90   44   45 am   BACKBONE|DICT|INTERRES
    91   44  169 1    
    92   45   46 2    
    93   45   47 1    
    94   47   48 1    
    95   47   49 1    
    96   47  170 1    
    97   48  171 1    
    98   48  172 1    
    99   48  173 1    
   100   49   50 am   BACKBONE|DICT|INTERRES
   101   49  174 1    
   102   50   51 2    
   103   50   52 1    
   104   52   53 1    
   105   52   54 1    
   106   52  175 1    
   107   53  176 1    
   108   53  177 1    
   109   53  178 1    
   110   54   55 am   BACKBONE|DICT|INTERRES
   111   54  179 1    
   112   55   56 2    
   113   55   57 1    
   114   57   58 1    
   115   57   59 1    
   116   57  180 1    
   117   58  181 1    
   118   58  182 1    
   119   58  183 1    
   120   59   60 am   BACKBONE|DICT|INTERRES
   121   59  184 1    
   122   60   61 2    
   123   60   62 1    
   124   62   63 1    
   125   62   64 1    
   126   62  185 1    
   127   63  186 1    
   128   63  187 1    
   129   63  188 1    
   130   64   65 am   BACKBONE|DICT|INTERRES
   131   64  189 1    
   132   65   66 2    
   133   67   68 2    
   134   67   69 am   BACKBONE|DICT|INTERRES
   135   69   70 1    
   136   69  190 1    
   137   70   71 1    
   138   70   72 1    
   139   70  191 1    
   140   71  192 1    
   141   71  193 1    
   142   71  194 1    
   143   72   73 2    
   144   72   74 am   BACKBONE|DICT|INTERRES
   145   74   75 1    
   146   74  195 1    
   147   75   76 1    
   148   75   77 1    
   149   75  196 1    
   150   76  197 1    
   151   76  198 1    
   152   76  199 1    
   153   77   78 2    
   154   77   79 am   BACKBONE|DICT|INTERRES
   155   79   80 1    
   156   79  200 1    
   157   80   81 1    
   158   80   82 1    
   159   80  201 1    
   160   81  202 1    
   161   81  203 1    
   162   81  204 1    
   163   82   83 2    
   164   82   84 am   BACKBONE|DICT|INTERRES
   165   84   85 1    
   166   84  205 1    
   167   85   86 1    
   168   85   87 1    
   169   85  206 1    
   170   86  207 1    
   171   86  208 1    
   172   86  209 1    
   173   87   88 2    
   174   87   89 am   BACKBONE|DICT|INTERRES
   175   89   90 1    
   176   89  210 1    
   177   90   91 1    
   178   90   92 1    
   179   90  211 1    
   180   91  212 1    
   181   91  213 1    
   182   91  214 1    
   183   92   93 2    
   184   92   94 am   BACKBONE|DICT|INTERRES
   185   94   95 1    
   186   94  215 1    
   187   95   96 1    
   188   95   97 1    
   189   95  216 1    
   190   96  217 1    
   191   96  218 1    
   192   96  219 1    
   193   97   98 2    
   194   97   99 am   BACKBONE|DICT|INTERRES
   195   99  100 1    
   196   99  220 1    
   197  100  101 1    
   198  100  102 1    
   199  100  221 1    
   200  101  222 1    
   201  101  223 1    
   202  101  224 1    
   203  102  103 2    
   204  102  104 am   BACKBONE|DICT|INTERRES
   205  104  105 1    
   206  104  225 1    
   207  105  106 1    
   208  105  107 1    
   209  105  226 1    
   210  106  227 1    
   211  106  228 1    
   212  106  229 1    
   213  107  108 2    
   214  107  109 am   BACKBONE|DICT|INTERRES
   215  109  110 1    
   216  109  230 1    
   217  110  111 1    
   218  110  112 1    
   219  110  231 1    
   220  111  232 1    
   221  111  233 1    
   222  111  234 1    
   223  112  113 2    
   224  112  114 am   BACKBONE|DICT|INTERRES
   225  114  115 1    
   226  114  235 1    
   227  115  116 1    
   228  115  117 1    
   229  115  236 1    
   230  116  237 1    
   231  116  238 1    
   232  116  239 1    
   233  117  118 2    
   234  117  119 am   BACKBONE|DICT|INTERRES
   235  119  120 1    
   236  119  240 1    
   237  120  121 1    
   238  120  124 1    
   239  120  241 1    
   240  121  122 am   BACKBONE|DICT|INTERRES
   241  121  123 2    
   242  122  242 1    
   243  122  243 1    
   244  124  125 1    
   245  124  244 1    
   246  124  245 1    
   247  125  126 1    
   248  126  246 1    
   249  126  247 1    
@<TRIPOS>SUBSTRUCTURE
     1 UNK         1 GROUP             0       ****    0 ROOT    
