@<TRIPOS>MOLECULE
3R540
247   249    1
SMALL
USER_CHARGES


@<TRIPOS>ATOM
      1 CA          1.2707  -12.6849  -53.0168 C.3       0 UNK        -0.1800 
      2 C           0.4741  -12.2986  -51.7784 C.2       0 UNK         0.5000 
      3 O           0.3413  -11.1106  -51.4846 O.2       0 UNK        -0.5000 
      4 N          -0.0473  -13.3006  -51.0582 N.am      1 UNK        -0.5000 
      5 CA         -0.8467  -13.1751  -49.8308 C.3       1 UNK         0.1400 
      6 C6         -2.2264  -12.4803  -50.0302 C.3       23 UNK        -0.0398 
      7 S7         -3.2439  -13.2005  -51.3682 S.3       23 UNK        -0.2404 
      8 C8         -4.2357  -14.4412  -50.4727 C.3       23 UNK        -0.0205 
      9 C9         -3.3623  -15.5795  -49.9740 C.ar      23 UNK        -0.0193 
     10 C10        -2.8199  -16.4888  -50.8844 C.ar      23 UNK        -0.1150 
     11 C11        -1.9338  -17.4818  -50.4596 C.ar      23 UNK        -0.0193 
     12 C12        -1.6175  -17.5788  -49.1023 C.ar      23 UNK        -0.1150 
     13 C13        -2.1837  -16.6968  -48.1763 C.ar      23 UNK        -0.0193 
     14 C14        -3.0562  -15.6988  -48.6164 C.ar      23 UNK        -0.1150 
     15 C15        -1.8319  -16.8029  -46.7034 C.3       23 UNK        -0.0205 
     16 S16        -3.2235  -17.3970  -45.6904 S.3       23 UNK        -0.2404 
     17 C17        -3.6075  -19.0223  -46.4236 C.3       23 UNK        -0.0398 
     18 CA         -2.4561  -20.0685  -46.3539 C.3       11 UNK         0.1400 
     19 N          -1.9618  -20.2917  -44.9901 N.am      11 UNK        -0.5000 
     20 C          -2.5498  -20.9890  -44.0068 C.2       10 UNK         0.5000 
     21 O          -3.5904  -21.6355  -44.1488 O.2       10 UNK        -0.5000 
     22 CA         -1.8533  -20.9253  -42.6286 C.3       10 UNK         0.1400 
     23 CB         -2.3680  -21.9721  -41.6194 C.3       10 UNK        -0.1800 
     24 N          -0.3894  -20.9552  -42.7114 N.am      10 UNK        -0.5000 
     25 C           0.3815  -21.9194  -43.2353 C.2       9 UNK         0.5000 
     26 O          -0.0552  -22.9722  -43.6986 O.2       9 UNK        -0.5000 
     27 CA          1.9035  -21.6706  -43.2434 C.3       9 UNK         0.1400 
     28 CB          2.4055  -21.2891  -44.6458 C.3       9 UNK        -0.1800 
     29 N           2.3334  -20.6445  -42.2873 N.am      9 UNK        -0.5000 
     30 C           2.5605  -20.8944  -40.9907 C.2       8 UNK         0.5000 
     31 O           2.3194  -21.9737  -40.4486 O.2       8 UNK        -0.5000 
     32 CA          3.1927  -19.7632  -40.1688 C.3       8 UNK         0.1400 
     33 CB          4.6701  -19.5742  -40.5519 C.3       8 UNK        -0.1800 
     34 N           2.4814  -18.4961  -40.3322 N.am      8 UNK        -0.5000 
     35 C           1.5347  -18.0665  -39.4875 C.2       7 UNK         0.5000 
     36 O           1.0858  -18.7413  -38.5597 O.2       7 UNK        -0.5000 
     37 CA          1.0266  -16.6280  -39.6836 C.3       7 UNK         0.1400 
     38 CB          2.1102  -15.6100  -39.2932 C.3       7 UNK        -0.1800 
     39 N           0.5697  -16.3522  -41.0426 N.am      7 UNK        -0.5000 
     40 C          -0.5376  -16.8659  -41.5928 C.2       6 UNK         0.5000 
     41 O          -1.2722  -17.6773  -41.0299 O.2       6 UNK        -0.5000 
     42 CA         -0.8780  -16.3982  -43.0171 C.3       6 UNK         0.1400 
     43 CB         -1.5333  -15.0088  -43.0122 C.3       6 UNK        -0.1800 
     44 N           0.3015  -16.3848  -43.8791 N.am      6 UNK        -0.5000 
     45 C           0.8523  -17.4902  -44.3941 C.2       5 UNK         0.5000 
     46 O           0.3475  -18.6062  -44.2905 O.2       5 UNK        -0.5000 
     47 CA          2.1908  -17.3368  -45.1371 C.3       5 UNK         0.1400 
     48 CB          1.9667  -17.1706  -46.6479 C.3       5 UNK        -0.1800 
     49 N           2.9888  -16.2229  -44.6265 N.am      5 UNK        -0.5000 
     50 C           3.5865  -16.2151  -43.4263 C.2       4 UNK         0.5000 
     51 O           3.5465  -17.1597  -42.6373 O.2       4 UNK        -0.5000 
     52 CA          4.3026  -14.9138  -43.0214 C.3       4 UNK         0.1400 
     53 CB          5.7299  -14.8843  -43.5869 C.3       4 UNK        -0.1800 
     54 N           3.5809  -13.7164  -43.4579 N.am      4 UNK        -0.5000 
     55 C           2.3692  -13.3574  -43.0099 C.2       3 UNK         0.5000 
     56 O           1.7500  -13.9815  -42.1500 O.2       3 UNK        -0.5000 
     57 CA          1.7158  -12.1316  -43.6734 C.3       3 UNK         0.1400 
     58 CB          2.1293  -10.8416  -42.9501 C.3       3 UNK        -0.1800 
     59 N           2.0321  -12.0148  -45.0997 N.am      3 UNK        -0.5000 
     60 C           1.6597  -12.8993  -46.0343 C.2       2 UNK         0.5000 
     61 O           1.0205  -13.9253  -45.7897 O.2       2 UNK        -0.5000 
     62 CA          2.1482  -12.6182  -47.4675 C.3       2 UNK         0.1400 
     63 CB          3.4946  -13.3184  -47.7099 C.3       2 UNK        -0.1800 
     64 N           1.1999  -13.0594  -48.4900 N.am      2 UNK        -0.5000 
     65 C          -0.0300  -12.5578  -48.6720 C.2       1 UNK         0.5000 
     66 O          -0.4991  -11.6404  -47.9948 O.2       1 UNK        -0.5000 
     67 C          -2.8064  -21.3893  -47.0793 C.2       11 UNK         0.5000 
     68 O          -1.8987  -22.1233  -47.4774 O.2       11 UNK        -0.5000 
     69 N          -4.1102  -21.6746  -47.2291 N.am      12 UNK        -0.5000 
     70 CA         -4.6815  -22.8384  -47.9097 C.3       12 UNK         0.1400 
     71 CB         -6.2138  -22.7351  -47.8841 C.3       12 UNK        -0.1800 
     72 C          -4.2286  -24.1955  -47.3447 C.2       12 UNK         0.5000 
     73 O          -4.2085  -25.1715  -48.0929 O.2       12 UNK        -0.5000 
     74 N          -3.8395  -24.2338  -46.0625 N.am      13 UNK        -0.5000 
     75 CA         -3.2901  -25.4203  -45.4044 C.3       13 UNK         0.1400 
     76 CB         -3.1359  -25.1361  -43.9049 C.3       13 UNK        -0.1800 
     77 C          -1.9479  -25.8857  -46.0053 C.2       13 UNK         0.5000 
     78 O          -1.6772  -27.0872  -46.0087 O.2       13 UNK        -0.5000 
     79 N          -1.1489  -24.9384  -46.5146 N.am      14 UNK        -0.5000 
     80 CA          0.1192  -25.2007  -47.1919 C.3       14 UNK         0.1400 
     81 CB          1.1626  -24.1816  -46.7188 C.3       14 UNK        -0.1800 
     82 C          -0.0339  -25.1344  -48.7185 C.2       14 UNK         0.5000 
     83 O           0.5594  -25.9550  -49.4193 O.2       14 UNK        -0.5000 
     84 N          -0.8171  -24.1630  -49.2110 N.am      15 UNK        -0.5000 
     85 CA         -1.0320  -23.9208  -50.6399 C.3       15 UNK         0.1400 
     86 CB         -1.6641  -22.5337  -50.8241 C.3       15 UNK        -0.1800 
     87 C          -1.8792  -25.0024  -51.3370 C.2       15 UNK         0.5000 
     88 O          -1.7596  -25.1620  -52.5523 O.2       15 UNK        -0.5000 
     89 N          -2.7208  -25.7095  -50.5674 N.am      16 UNK        -0.5000 
     90 CA         -3.6135  -26.8177  -50.9316 C.3       16 UNK         0.1400 
     91 CB         -2.8267  -28.0110  -51.5058 C.3       16 UNK        -0.1800 
     92 C          -4.7812  -26.4209  -51.8538 C.2       16 UNK         0.5000 
     93 O          -5.9307  -26.7478  -51.5561 O.2       16 UNK        -0.5000 
     94 N          -4.4830  -25.7035  -52.9416 N.am      17 UNK        -0.5000 
     95 CA         -5.4180  -25.2462  -53.9696 C.3       17 UNK         0.1400 
     96 CB         -4.6306  -25.0071  -55.2709 C.3       17 UNK        -0.1800 
     97 C          -6.2194  -24.0032  -53.5288 C.2       17 UNK         0.5000 
     98 O          -6.2411  -23.0012  -54.2436 O.2       17 UNK        -0.5000 
     99 N          -6.8357  -24.0712  -52.3393 N.am      18 UNK        -0.5000 
    100 CA        -7.7323  -23.0731  -51.7344 C.3       18 UNK         0.1400 
    101 CB        -9.0818  -23.0678  -52.4815 C.3       18 UNK        -0.1800 
    102 C         -7.1291  -21.6537  -51.6090 C.2       18 UNK         0.5000 
    103 O         -7.8685  -20.6690  -51.6316 O.2       18 UNK        -0.5000 
    104 N         -5.7930  -21.5818  -51.5029 N.am      19 UNK        -0.5000 
    105 CA        -4.9635  -20.3703  -51.5032 C.3       19 UNK         0.1400 
    106 CB        -5.2739  -19.4760  -50.2845 C.3       19 UNK        -0.1800 
    107 C         -4.9755  -19.5917  -52.8404 C.2       19 UNK         0.5000 
    108 O         -4.5617  -18.4334  -52.8684 O.2       19 UNK        -0.5000 
    109 N         -5.3910  -20.2341  -53.9428 N.am      20 UNK        -0.5000 
    110 CA        -5.3454  -19.6549  -55.2897 C.3       20 UNK         0.1400 
    111 CB        -6.3634  -20.3738  -56.1878 C.3       20 UNK        -0.1800 
    112 C         -3.9376  -19.7216  -55.9148 C.2       20 UNK         0.5000 
    113 O         -3.6498  -18.9635  -56.8423 O.2       20 UNK        -0.5000 
    114 N         -3.0821  -20.6146  -55.3923 N.am      21 UNK        -0.5000 
    115 CA        -1.7263  -20.9044  -55.8736 C.3       21 UNK         0.1400 
    116 CB        -1.1389  -22.0509  -55.0358 C.3       21 UNK        -0.1800 
    117 C         -0.7634  -19.6992  -55.8697 C.2       21 UNK         0.5000 
    118 O          0.1917  -19.6895  -56.6473 O.2       21 UNK        -0.5000 
    119 N         -1.0345  -18.7083  -55.0117 N.am      22 UNK        -0.5000 
    120 CA        -0.3047  -17.4316  -54.9497 C.3       22 UNK         0.1400 
    121 C         -0.6898  -16.4263  -56.0774 C.2       22 UNK         0.5000 
    122 N         -1.7115  -16.6778  -56.8892 N.am      22 UNK        -0.7600 
    123 O         -0.0394  -15.3954  -56.2247 O.2       22 UNK        -0.5000 
    124 C124       -0.4242  -16.7638  -53.5556 C.3       23 UNK        -0.0398 
    125 S125        0.2096  -17.8113  -52.1981 S.3       23 UNK        -0.2404 
    126 C126       -1.3237  -18.4556  -51.4569 C.3       23 UNK        -0.0205 
    127 H127        2.2420  -12.1902  -53.0087 H         1 UNK         0.0600 
    128 H128        1.4410  -13.7601  -53.0714 H         1 UNK         0.0600 
    129 H129        0.7375  -12.3777  -53.9164 H         1 UNK         0.0600 
    130 H130        0.0999  -14.2495  -51.3702 H         1 UNK         0.3000 
    131 H131       -1.0335  -14.1996  -49.5172 H         1 UNK         0.0600 
    132 H132       -2.0852  -11.4230  -50.2592 H         1 UNK         0.0800 
    133 H133       -2.8025  -12.5092  -49.1039 H         1 UNK         0.0800 
    134 H134       -4.9966  -14.8408  -51.1446 H         1 UNK         0.0800 
    135 H135       -4.7702  -13.9640  -49.6500 H         1 UNK         0.0800 
    136 H136       -3.0833  -16.4047  -51.9279 H         1 UNK         0.1150 
    137 H137       -0.9264  -18.3406  -48.7712 H         1 UNK         0.1150 
    138 H138       -3.4752  -15.0027  -47.9034 H         1 UNK         0.1150 
    139 H139       -0.9795  -17.4643  -46.5633 H         1 UNK         0.0800 
    140 H140       -1.5174  -15.8243  -46.3373 H         1 UNK         0.0800 
    141 H141       -3.9126  -18.8543  -47.4580 H         1 UNK         0.0800 
    142 H142       -4.4905  -19.3899  -45.8989 H         1 UNK         0.0800 
    143 H143       -1.6069  -19.6668  -46.9048 H         1 UNK         0.0600 
    144 H144       -1.1018  -19.8017  -44.7575 H         1 UNK         0.3000 
    145 H145       -2.1097  -19.9446  -42.2273 H         1 UNK         0.0600 
    146 H146       -1.9373  -21.8038  -40.6324 H         1 UNK         0.0600 
    147 H147       -3.4518  -21.9177  -41.5111 H         1 UNK         0.0600 
    148 H148       -2.1176  -22.9883  -41.9190 H         1 UNK         0.0600 
    149 H149        0.0780  -20.1081  -42.4199 H         1 UNK         0.3000 
    150 H150        2.3854  -22.6133  -42.9748 H         1 UNK         0.0600 
    151 H151        2.3660  -22.1467  -45.3135 H         1 UNK         0.0600 
    152 H152        3.4429  -20.9550  -44.6232 H         1 UNK         0.0600 
    153 H153        1.8068  -20.5033  -45.1019 H         1 UNK         0.0600 
    154 H154        2.5457  -19.7283  -42.6552 H         1 UNK         0.3000 
    155 H155        3.1716  -20.0656  -39.1193 H         1 UNK         0.0600 
    156 H156        4.7899  -19.2939  -41.5987 H         1 UNK         0.0600 
    157 H157        5.2334  -20.4948  -40.3943 H         1 UNK         0.0600 
    158 H158        5.1374  -18.7995  -39.9440 H         1 UNK         0.0600 
    159 H159        2.7907  -17.8943  -41.0920 H         1 UNK         0.3000 
    160 H160        0.1784  -16.4833  -39.0110 H         1 UNK         0.0600 
    161 H161        1.7231  -14.5914  -39.3277 H         1 UNK         0.0600 
    162 H162        2.9715  -15.6612  -39.9601 H         1 UNK         0.0600 
    163 H163        2.4680  -15.7877  -38.2783 H         1 UNK         0.0600 
    164 H164        1.0864  -15.6439  -41.5572 H         1 UNK         0.3000 
    165 H165       -1.5998  -17.1087  -43.4196 H         1 UNK         0.0600 
    166 H166       -1.8134  -14.7035  -44.0205 H         1 UNK         0.0600 
    167 H167       -2.4418  -15.0108  -42.4090 H         1 UNK         0.0600 
    168 H168       -0.8705  -14.2461  -42.6043 H         1 UNK         0.0600 
    169 H169        0.7461  -15.4921  -44.0466 H         1 UNK         0.3000 
    170 H170        2.7608  -18.2548  -44.9820 H         1 UNK         0.0600 
    171 H171        1.4400  -18.0329  -47.0587 H         1 UNK         0.0600 
    172 H172        1.3734  -16.2859  -46.8786 H         1 UNK         0.0600 
    173 H173        2.9139  -17.0876  -47.1807 H         1 UNK         0.0600 
    174 H174        3.0182  -15.3881  -45.1925 H         1 UNK         0.3000 
    175 H175        4.3657  -14.8938  -41.9316 H         1 UNK         0.0600 
    176 H176        6.2720  -14.0035  -43.2425 H         1 UNK         0.0600 
    177 H177        6.2953  -15.7595  -43.2635 H         1 UNK         0.0600 
    178 H178        5.7328  -14.8758  -44.6776 H         1 UNK         0.0600 
    179 H179        4.0233  -13.1457  -44.1628 H         1 UNK         0.3000 
    180 H180        0.6337  -12.2446  -43.5785 H         1 UNK         0.0600 
    181 H181        3.2012  -10.6577  -43.0326 H         1 UNK         0.0600 
    182 H182        1.8861  -10.8952  -41.8880 H         1 UNK         0.0600 
    183 H183        1.6070   -9.9760  -43.3579 H         1 UNK         0.0600 
    184 H184        2.5639  -11.2019  -45.3764 H         1 UNK         0.3000 
    185 H185        2.2874  -11.5415  -47.5849 H         1 UNK         0.0600 
    186 H186        3.4049  -14.4027  -47.6305 H         1 UNK         0.0600 
    187 H187        3.8869  -13.0866  -48.7003 H         1 UNK         0.0600 
    188 H188        4.2426  -12.9967  -46.9840 H         1 UNK         0.0600 
    189 H189        1.5037  -13.8133  -49.0877 H         1 UNK         0.3000 
    190 H190       -4.7818  -21.0497  -46.8091 H         1 UNK         0.3000 
    191 H191       -4.3643  -22.8003  -48.9512 H         1 UNK         0.0600 
    192 H192       -6.5983  -22.7321  -46.8634 H         1 UNK         0.0600 
    193 H193       -6.6710  -23.5781  -48.4039 H         1 UNK         0.0600 
    194 H194       -6.5613  -21.8270  -48.3762 H         1 UNK         0.0600 
    195 H195       -3.8714  -23.3808  -45.5155 H         1 UNK         0.3000 
    196 H196       -4.0086  -26.2334  -45.5267 H         1 UNK         0.0600 
    197 H197       -2.7849  -26.0204  -43.3717 H         1 UNK         0.0600 
    198 H198       -4.0826  -24.8356  -43.4557 H         1 UNK         0.0600 
    199 H199       -2.4131  -24.3398  -43.7322 H         1 UNK         0.0600 
    200 H200       -1.4552  -23.9734  -46.4844 H         1 UNK         0.3000 
    201 H201        0.4887  -26.1963  -46.9378 H         1 UNK         0.0600 
    202 H202        1.3576  -24.2979  -45.6529 H         1 UNK         0.0600 
    203 H203        0.8309  -23.1569  -46.8923 H         1 UNK         0.0600 
    204 H204        2.1116  -24.3167  -47.2392 H         1 UNK         0.0600 
    205 H205       -1.2330  -23.4929  -48.5695 H         1 UNK         0.3000 
    206 H206       -0.0565  -23.9119  -51.1308 H         1 UNK         0.0600 
    207 H207       -1.0146  -21.7540  -50.4269 H         1 UNK         0.0600 
    208 H208       -1.8346  -22.3136  -51.8776 H         1 UNK         0.0600 
    209 H209       -2.6223  -22.4596  -50.3150 H         1 UNK         0.0600 
    210 H210       -2.7889  -25.4444  -49.5912 H         1 UNK         0.3000 
    211 H211       -4.0602  -27.1507  -49.9935 H         1 UNK         0.0600 
    212 H212       -2.3584  -27.7730  -52.4612 H         1 UNK         0.0600 
    213 H213       -3.4840  -28.8656  -51.6707 H         1 UNK         0.0600 
    214 H214       -2.0429  -28.3311  -50.8192 H         1 UNK         0.0600 
    215 H215       -3.5044  -25.4564  -53.0707 H         1 UNK         0.3000 
    216 H216       -6.1426  -26.0404  -54.1606 H         1 UNK         0.0600 
    217 H217       -5.2954  -24.7187  -56.0861 H         1 UNK         0.0600 
    218 H218       -4.1064  -25.9095  -55.5861 H         1 UNK         0.0600 
    219 H219       -3.8911  -24.2146  -55.1526 H         1 UNK         0.0600 
    220 H220       -6.7306  -24.9416  -51.8263 H         1 UNK         0.3000 
    221 H221       -7.9204  -23.4100  -50.7142 H         1 UNK         0.0600 
    222 H222       -8.9762  -22.6892  -53.4989 H         1 UNK         0.0600 
    223 H223       -9.5043  -24.0709  -52.5395 H         1 UNK         0.0600 
    224 H224       -9.8138  -22.4402  -51.9717 H         1 UNK         0.0600 
    225 H225       -5.2905  -22.4568  -51.5233 H         1 UNK         0.3000 
    226 H226       -3.9365  -20.7155  -51.3867 H         1 UNK         0.0600 
    227 H227       -5.2337  -20.0444  -49.3571 H         1 UNK         0.0600 
    228 H228       -4.5492  -18.6679  -50.1940 H         1 UNK         0.0600 
    229 H229       -6.2594  -19.0162  -50.3557 H         1 UNK         0.0600 
    230 H230       -5.7339  -21.1893  -53.8760 H         1 UNK         0.3000 
    231 H231       -5.6337  -18.6031  -55.2324 H         1 UNK         0.0600 
    232 H232       -7.3608  -20.3575  -55.7479 H         1 UNK         0.0600 
    233 H233       -6.0880  -21.4151  -56.3579 H         1 UNK         0.0600 
    234 H234       -6.4293  -19.8913  -57.1638 H         1 UNK         0.0600 
    235 H235       -3.4216  -21.1925  -54.6388 H         1 UNK         0.3000 
    236 H236       -1.8154  -21.2450  -56.9071 H         1 UNK         0.0600 
    237 H237       -0.1627  -22.3520  -55.4181 H         1 UNK         0.0600 
    238 H238       -1.0028  -21.7556  -53.9956 H         1 UNK         0.0600 
    239 H239       -1.7787  -22.9330  -55.0567 H         1 UNK         0.0600 
    240 H240       -1.8524  -18.7887  -54.4279 H         1 UNK         0.3000 
    241 H241        0.7532  -17.6512  -55.1062 H         1 UNK         0.0600 
    242 H242       -2.2682  -17.5212  -56.7981 H         1 UNK         0.3800 
    243 H243       -1.9367  -16.0146  -57.6136 H         1 UNK         0.3800 
    244 H244        0.1490  -15.8361  -53.5330 H         1 UNK         0.0800 
    245 H245       -1.4569  -16.4781  -53.3670 H         1 UNK         0.0800 
    246 H246       -2.0394  -18.7006  -52.2398 H         1 UNK         0.0800 
    247 H247       -1.0951  -19.3962  -50.9554 H         1 UNK         0.0800 
@<TRIPOS>BOND
     1    1    2 1    
     2    1  127 1    
     3    1  128 1    
     4    1  129 1    
     5    2    3 2    
     6    2    4 am   BACKBONE|DICT|INTERRES
     7    4    5 1    
     8    4  130 1    
     9    5    6 1    
    10    5   65 1    
    11    5  131 1    
    12    6    7 1    
    13    6  132 1    
    14    6  133 1    
    15    7    8 1    
    16    8    9 1    
    17    8  134 1    
    18    8  135 1    
    19    9   10 ar   
    20    9   14 ar   
    21   10   11 ar   
    22   10  136 1    
    23   11   12 ar   
    24   11  126 1    
    25   12   13 ar   
    26   12  137 1    
    27   13   14 ar   
    28   13   15 1    
    29   14  138 1    
    30   15   16 1    
    31   15  139 1    
    32   15  140 1    
    33   16   17 1    
    34   17   18 1    
    35   17  141 1    
    36   17  142 1    
    37   18   19 1    
    38   18   67 1    
    39   18  143 1    
    40   19   20 am   BACKBONE|DICT|INTERRES
    41   19  144 1    
    42   20   21 2    
    43   20   22 1    
    44   22   23 1    
    45   22   24 1    
    46   22  145 1    
    47   23  146 1    
    48   23  147 1    
    49   23  148 1    
    50   24   25 am   BACKBONE|DICT|INTERRES
    51   24  149 1    
    52   25   26 2    
    53   25   27 1    
    54   27   28 1    
    55   27   29 1    
    56   27  150 1    
    57   28  151 1    
    58   28  152 1    
    59   28  153 1    
    60   29   30 am   BACKBONE|DICT|INTERRES
    61   29  154 1    
    62   30   31 2    
    63   30   32 1    
    64   32   33 1    
    65   32   34 1    
    66   32  155 1    
    67   33  156 1    
    68   33  157 1    
    69   33  158 1    
    70   34   35 am   BACKBONE|DICT|INTERRES
    71   34  159 1    
    72   35   36 2    
    73   35   37 1    
    74   37   38 1    
    75   37   39 1    
    76   37  160 1    
    77   38  161 1    
    78   38  162 1    
    79   38  163 1    
    80   39   40 am   BACKBONE|DICT|INTERRES
    81   39  164 1    
    82   40   41 2    
    83   40   42 1    
    84   42   43 1    
    85   42   44 1    
    86   42  165 1    
    87   43  166 1    
    88   43  167 1    
    89   43  168 1    
    90   44   45 am   BACKBONE|DICT|INTERRES
    91   44  169 1    
    92   45   46 2    
    93   45   47 1    
    94   47   48 1    
    95   47   49 1    
    96   47  170 1    
    97   48  171 1    
    98   48  172 1    
    99   48  173 1    
   100   49   50 am   BACKBONE|DICT|INTERRES
   101   49  174 1    
   102   50   51 2    
   103   50   52 1    
   104   52   53 1    
   105   52   54 1    
   106   52  175 1    
   107   53  176 1    
   108   53  177 1    
   109   53  178 1    
   110   54   55 am   BACKBONE|DICT|INTERRES
   111   54  179 1    
   112   55   56 2    
   113   55   57 1    
   114   57   58 1    
   115   57   59 1    
   116   57  180 1    
   117   58  181 1    
   118   58  182 1    
   119   58  183 1    
   120   59   60 am   BACKBONE|DICT|INTERRES
   121   59  184 1    
   122   60   61 2    
   123   60   62 1    
   124   62   63 1    
   125   62   64 1    
   126   62  185 1    
   127   63  186 1    
   128   63  187 1    
   129   63  188 1    
   130   64   65 am   BACKBONE|DICT|INTERRES
   131   64  189 1    
   132   65   66 2    
   133   67   68 2    
   134   67   69 am   BACKBONE|DICT|INTERRES
   135   69   70 1    
   136   69  190 1    
   137   70   71 1    
   138   70   72 1    
   139   70  191 1    
   140   71  192 1    
   141   71  193 1    
   142   71  194 1    
   143   72   73 2    
   144   72   74 am   BACKBONE|DICT|INTERRES
   145   74   75 1    
   146   74  195 1    
   147   75   76 1    
   148   75   77 1    
   149   75  196 1    
   150   76  197 1    
   151   76  198 1    
   152   76  199 1    
   153   77   78 2    
   154   77   79 am   BACKBONE|DICT|INTERRES
   155   79   80 1    
   156   79  200 1    
   157   80   81 1    
   158   80   82 1    
   159   80  201 1    
   160   81  202 1    
   161   81  203 1    
   162   81  204 1    
   163   82   83 2    
   164   82   84 am   BACKBONE|DICT|INTERRES
   165   84   85 1    
   166   84  205 1    
   167   85   86 1    
   168   85   87 1    
   169   85  206 1    
   170   86  207 1    
   171   86  208 1    
   172   86  209 1    
   173   87   88 2    
   174   87   89 am   BACKBONE|DICT|INTERRES
   175   89   90 1    
   176   89  210 1    
   177   90   91 1    
   178   90   92 1    
   179   90  211 1    
   180   91  212 1    
   181   91  213 1    
   182   91  214 1    
   183   92   93 2    
   184   92   94 am   BACKBONE|DICT|INTERRES
   185   94   95 1    
   186   94  215 1    
   187   95   96 1    
   188   95   97 1    
   189   95  216 1    
   190   96  217 1    
   191   96  218 1    
   192   96  219 1    
   193   97   98 2    
   194   97   99 am   BACKBONE|DICT|INTERRES
   195   99  100 1    
   196   99  220 1    
   197  100  101 1    
   198  100  102 1    
   199  100  221 1    
   200  101  222 1    
   201  101  223 1    
   202  101  224 1    
   203  102  103 2    
   204  102  104 am   BACKBONE|DICT|INTERRES
   205  104  105 1    
   206  104  225 1    
   207  105  106 1    
   208  105  107 1    
   209  105  226 1    
   210  106  227 1    
   211  106  228 1    
   212  106  229 1    
   213  107  108 2    
   214  107  109 am   BACKBONE|DICT|INTERRES
   215  109  110 1    
   216  109  230 1    
   217  110  111 1    
   218  110  112 1    
   219  110  231 1    
   220  111  232 1    
   221  111  233 1    
   222  111  234 1    
   223  112  113 2    
   224  112  114 am   BACKBONE|DICT|INTERRES
   225  114  115 1    
   226  114  235 1    
   227  115  116 1    
   228  115  117 1    
   229  115  236 1    
   230  116  237 1    
   231  116  238 1    
   232  116  239 1    
   233  117  118 2    
   234  117  119 am   BACKBONE|DICT|INTERRES
   235  119  120 1    
   236  119  240 1    
   237  120  121 1    
   238  120  124 1    
   239  120  241 1    
   240  121  122 am   BACKBONE|DICT|INTERRES
   241  121  123 2    
   242  122  242 1    
   243  122  243 1    
   244  124  125 1    
   245  124  244 1    
   246  124  245 1    
   247  125  126 1    
   248  126  246 1    
   249  126  247 1    
@<TRIPOS>SUBSTRUCTURE
     1 UNK         1 GROUP             0       ****    0 ROOT    
