@<TRIPOS>MOLECULE
3R540
247   249    1
SMALL
USER_CHARGES


@<TRIPOS>ATOM
      1 CA          5.9198  -13.0517  -43.9254 C.3       0 UNK        -0.1800 
      2 C           4.6245  -12.8091  -44.6850 C.2       0 UNK         0.5000 
      3 O           4.0668  -11.7142  -44.6141 O.2       0 UNK        -0.5000 
      4 N           4.1526  -13.8166  -45.4319 N.am      1 UNK        -0.5000 
      5 CA          2.8859  -13.7919  -46.1774 C.3       1 UNK         0.1400 
      6 C6          2.4855  -15.1961  -46.6896 C.3       23 UNK        -0.0398 
      7 S7          3.6464  -15.9360  -47.8932 S.3       23 UNK        -0.2404 
      8 C8          2.7643  -15.6897  -49.4715 C.3       23 UNK        -0.0205 
      9 C9          1.5961  -16.6523  -49.6300 C.ar      23 UNK        -0.0193 
     10 C10         0.2924  -16.2441  -49.3311 C.ar      23 UNK        -0.1150 
     11 C11        -0.7751  -17.1387  -49.4454 C.ar      23 UNK        -0.0193 
     12 C12        -0.5329  -18.4471  -49.8693 C.ar      23 UNK        -0.1150 
     13 C13         0.7604  -18.8600  -50.2024 C.ar      23 UNK        -0.0193 
     14 C14         1.8203  -17.9556  -50.0827 C.ar      23 UNK        -0.1150 
     15 C15         1.0040  -20.2846  -50.6871 C.3       23 UNK        -0.0205 
     16 S16         2.2153  -21.1894  -49.6708 S.3       23 UNK        -0.2404 
     17 C17         1.4427  -21.1009  -48.0223 C.3       23 UNK        -0.0398 
     18 CA          0.7990  -22.4256  -47.5582 C.3       11 UNK         0.1400 
     19 N           0.5544  -22.3918  -46.1185 N.am      11 UNK        -0.5000 
     20 C           0.1819  -23.4294  -45.3620 C.2       10 UNK         0.5000 
     21 O           0.0206  -24.5696  -45.7917 O.2       10 UNK        -0.5000 
     22 CA         -0.0965  -23.1253  -43.8809 C.3       10 UNK         0.1400 
     23 CB          1.2119  -23.0661  -43.0780 C.3       10 UNK        -0.1800 
     24 N          -0.8339  -21.8738  -43.7064 N.am      10 UNK        -0.5000 
     25 C          -2.0996  -21.6796  -44.1011 C.2       9 UNK         0.5000 
     26 O          -2.7892  -22.5416  -44.6442 O.2       9 UNK        -0.5000 
     27 CA         -2.6777  -20.2714  -43.8845 C.3       9 UNK         0.1400 
     28 CB         -3.1335  -20.0859  -42.4295 C.3       9 UNK        -0.1800 
     29 N          -1.7317  -19.2128  -44.2372 N.am      9 UNK        -0.5000 
     30 C          -1.3035  -18.9705  -45.4833 C.2       8 UNK         0.5000 
     31 O          -1.6295  -19.6352  -46.4668 O.2       8 UNK        -0.5000 
     32 CA         -0.3227  -17.7972  -45.6485 C.3       8 UNK         0.1400 
     33 CB         -1.0787  -16.4672  -45.4970 C.3       8 UNK        -0.1800 
     34 N           0.8216  -17.8155  -44.7282 N.am      8 UNK        -0.5000 
     35 C           1.6371  -18.8595  -44.5043 C.2       7 UNK         0.5000 
     36 O           1.4506  -19.9821  -44.9699 O.2       7 UNK        -0.5000 
     37 CA          2.8890  -18.6371  -43.6340 C.3       7 UNK         0.1400 
     38 CB          4.1503  -18.6610  -44.5118 C.3       7 UNK        -0.1800 
     39 N           2.8825  -17.3942  -42.8661 N.am      7 UNK        -0.5000 
     40 C           2.1107  -17.1404  -41.8027 C.2       6 UNK         0.5000 
     41 O           1.2867  -17.9360  -41.3492 O.2       6 UNK        -0.5000 
     42 CA          2.2672  -15.7534  -41.1447 C.3       6 UNK         0.1400 
     43 CB          3.5608  -15.0081  -41.5471 C.3       6 UNK        -0.1800 
     44 N           1.1012  -14.9017  -41.3905 N.am      6 UNK        -0.5000 
     45 C           0.5879  -14.5553  -42.5802 C.2       5 UNK         0.5000 
     46 O           1.0280  -14.9600  -43.6579 O.2       5 UNK        -0.5000 
     47 CA         -0.6410  -13.6194  -42.5781 C.3       5 UNK         0.1400 
     48 CB         -1.0572  -13.1210  -41.1751 C.3       5 UNK        -0.1800 
     49 N          -0.4922  -12.4788  -43.4892 N.am      5 UNK        -0.5000 
     50 C           0.4840  -11.5595  -43.4822 C.2       4 UNK         0.5000 
     51 O           1.4580  -11.5787  -42.7265 O.2       4 UNK        -0.5000 
     52 CA          0.2905  -10.3718  -44.4352 C.3       4 UNK         0.1400 
     53 CB         -0.5374   -9.2810  -43.7208 C.3       4 UNK        -0.1800 
     54 N           1.5970   -9.8639  -44.8516 N.am      4 UNK        -0.5000 
     55 C           1.8185   -8.8644  -45.7159 C.2       3 UNK         0.5000 
     56 O           0.9283   -8.2259  -46.2786 O.2       3 UNK        -0.5000 
     57 CA          3.2864   -8.5561  -46.0488 C.3       3 UNK         0.1400 
     58 CB          4.1276   -8.2750  -44.7910 C.3       3 UNK        -0.1800 
     59 N           3.8469   -9.6817  -46.7887 N.am      3 UNK        -0.5000 
     60 C           3.7693   -9.8223  -48.1207 C.2       2 UNK         0.5000 
     61 O           3.3739   -8.9373  -48.8807 O.2       2 UNK        -0.5000 
     62 CA          4.1821  -11.1860  -48.7113 C.3       2 UNK         0.1400 
     63 CB          5.6442  -11.1528  -49.1809 C.3       2 UNK        -0.1800 
     64 N           4.0107  -12.2922  -47.7704 N.am      2 UNK        -0.5000 
     65 C           2.8346  -12.7321  -47.2994 C.2       1 UNK         0.5000 
     66 O           1.7429  -12.3205  -47.6927 O.2       1 UNK        -0.5000 
     67 C          -0.4830  -22.7736  -48.3453 C.2       11 UNK         0.5000 
     68 O          -0.4459  -23.6561  -49.2040 O.2       11 UNK        -0.5000 
     69 N          -1.6056  -22.1228  -48.0036 N.am      12 UNK        -0.5000 
     70 CA         -2.9242  -22.4077  -48.5730 C.3       12 UNK         0.1400 
     71 CB         -3.9334  -21.3535  -48.0961 C.3       12 UNK        -0.1800 
     72 C          -3.4190  -23.8292  -48.2430 C.2       12 UNK         0.5000 
     73 O          -3.9687  -24.4946  -49.1212 O.2       12 UNK        -0.5000 
     74 N          -3.1851  -24.2839  -47.0022 N.am      13 UNK        -0.5000 
     75 CA         -3.4998  -25.6374  -46.5411 C.3       13 UNK         0.1400 
     76 CB         -3.3473  -25.7230  -45.0156 C.3       13 UNK        -0.1800 
     77 C          -2.6535  -26.7190  -47.2358 C.2       13 UNK         0.5000 
     78 O          -3.1982  -27.7564  -47.6115 O.2       13 UNK        -0.5000 
     79 N          -1.3557  -26.4512  -47.4411 N.am      14 UNK        -0.5000 
     80 CA         -0.4325  -27.3149  -48.1849 C.3       14 UNK         0.1400 
     81 CB          1.0022  -26.7861  -48.0379 C.3       14 UNK        -0.1800 
     82 C          -0.8131  -27.4550  -49.6716 C.2       14 UNK         0.5000 
     83 O          -0.6542  -28.5336  -50.2435 O.2       14 UNK        -0.5000 
     84 N          -1.3576  -26.3775  -50.2510 N.am      15 UNK        -0.5000 
     85 CA         -1.9448  -26.3413  -51.5912 C.3       15 UNK         0.1400 
     86 CB         -1.8858  -24.8949  -52.1058 C.3       15 UNK        -0.1800 
     87 C          -3.3895  -26.8900  -51.6426 C.2       15 UNK         0.5000 
     88 O          -3.9985  -26.8743  -52.7136 O.2       15 UNK        -0.5000 
     89 N          -3.9303  -27.3345  -50.4956 N.am      16 UNK        -0.5000 
     90 CA         -5.2715  -27.8947  -50.2794 C.3       16 UNK         0.1400 
     91 CB         -5.3918  -29.2652  -50.9770 C.3       16 UNK        -0.1800 
     92 C          -6.4211  -26.9374  -50.6621 C.2       16 UNK         0.5000 
     93 O          -7.5234  -27.3962  -50.9660 O.2       16 UNK        -0.5000 
     94 N          -6.1294  -25.6278  -50.6794 N.am      17 UNK        -0.5000 
     95 CA         -6.9546  -24.5253  -51.1829 C.3       17 UNK         0.1400 
     96 CB         -8.1823  -24.3063  -50.2763 C.3       17 UNK        -0.1800 
     97 C          -7.3352  -24.6420  -52.6793 C.2       17 UNK         0.5000 
     98 O          -8.2240  -23.9200  -53.1336 O.2       17 UNK        -0.5000 
     99 N          -6.6551  -25.5207  -53.4328 N.am      18 UNK        -0.5000 
    100 CA        -6.8370  -25.6963  -54.8765 C.3       18 UNK         0.1400 
    101 CB        -6.3235  -27.0859  -55.2829 C.3       18 UNK        -0.1800 
    102 C         -6.1214  -24.5946  -55.6797 C.2       18 UNK         0.5000 
    103 O         -6.5147  -24.3004  -56.8091 O.2       18 UNK        -0.5000 
    104 N         -5.1008  -23.9948  -55.0634 N.am      19 UNK        -0.5000 
    105 CA        -4.3797  -22.8138  -55.5043 C.3       19 UNK         0.1400 
    106 CB        -3.1420  -23.2384  -56.3118 C.3       19 UNK        -0.1800 
    107 C         -3.9840  -22.0334  -54.2434 C.2       19 UNK         0.5000 
    108 O         -3.9582  -22.6116  -53.1532 O.2       19 UNK        -0.5000 
    109 N         -3.6818  -20.7399  -54.4162 N.am      20 UNK        -0.5000 
    110 CA        -3.1905  -19.8141  -53.3859 C.3       20 UNK         0.1400 
    111 CB        -1.7584  -20.2001  -52.9690 C.3       20 UNK        -0.1800 
    112 C         -4.1388  -19.6494  -52.1757 C.2       20 UNK         0.5000 
    113 O         -3.6856  -19.4091  -51.0561 O.2       20 UNK        -0.5000 
    114 N         -5.4499  -19.7653  -52.4218 N.am      21 UNK        -0.5000 
    115 CA        -6.5100  -19.5725  -51.4353 C.3       21 UNK         0.1400 
    116 CB        -7.7444  -20.3812  -51.8720 C.3       21 UNK        -0.1800 
    117 C         -6.8038  -18.0690  -51.2708 C.2       21 UNK         0.5000 
    118 O         -7.8211  -17.5788  -51.7652 O.2       21 UNK        -0.5000 
    119 N         -5.8632  -17.3604  -50.6352 N.am      22 UNK        -0.5000 
    120 CA        -5.8797  -15.9079  -50.4005 C.3       22 UNK         0.1400 
    121 C         -7.1398  -15.4130  -49.6336 C.2       22 UNK         0.5000 
    122 N         -7.7003  -14.2735  -50.0158 N.am      22 UNK        -0.7600 
    123 O         -7.5822  -16.0283  -48.6657 O.2       22 UNK        -0.5000 
    124 C124       -4.6021  -15.4318  -49.6629 C.3       23 UNK        -0.0398 
    125 S125       -3.0449  -15.9263  -50.4826 S.3       23 UNK        -0.2404 
    126 C126       -2.1837  -16.7013  -49.0811 C.3       23 UNK        -0.0205 
    127 H127        5.7562  -12.9130  -42.8567 H         1 UNK         0.0600 
    128 H128        6.6828  -12.3441  -44.2496 H         1 UNK         0.0600 
    129 H129        6.2999  -14.0612  -44.0831 H         1 UNK         0.0600 
    130 H130        4.6748  -14.6789  -45.4932 H         1 UNK         0.3000 
    131 H131        2.1210  -13.4840  -45.4627 H         1 UNK         0.0600 
    132 H132        1.4805  -15.1674  -47.1060 H         1 UNK         0.0800 
    133 H133        2.4234  -15.8764  -45.8416 H         1 UNK         0.0800 
    134 H134        3.4685  -15.8395  -50.2912 H         1 UNK         0.0800 
    135 H135        2.4248  -14.6562  -49.5526 H         1 UNK         0.0800 
    136 H136        0.1062  -15.2320  -49.0003 H         1 UNK         0.1150 
    137 H137       -1.3567  -19.1431  -49.9420 H         1 UNK         0.1150 
    138 H138        2.8247  -18.2732  -50.3251 H         1 UNK         0.1150 
    139 H139        0.0734  -20.8535  -50.7006 H         1 UNK         0.0800 
    140 H140        1.3596  -20.2513  -51.7176 H         1 UNK         0.0800 
    141 H141        0.7271  -20.2806  -47.9593 H         1 UNK         0.0800 
    142 H142        2.2480  -20.8317  -47.3377 H         1 UNK         0.0800 
    143 H143        1.5172  -23.2293  -47.7346 H         1 UNK         0.0600 
    144 H144        0.7009  -21.4928  -45.6634 H         1 UNK         0.3000 
    145 H145       -0.7060  -23.9382  -43.4807 H         1 UNK         0.0600 
    146 H146        1.0162  -22.9162  -42.0162 H         1 UNK         0.0600 
    147 H147        1.7713  -23.9973  -43.1769 H         1 UNK         0.0600 
    148 H148        1.8596  -22.2569  -43.4172 H         1 UNK         0.0600 
    149 H149       -0.3224  -21.0931  -43.3224 H         1 UNK         0.3000 
    150 H150       -3.5526  -20.1705  -44.5305 H         1 UNK         0.0600 
    151 H151       -3.8491  -20.8580  -42.1437 H         1 UNK         0.0600 
    152 H152       -3.6241  -19.1223  -42.2903 H         1 UNK         0.0600 
    153 H153       -2.2959  -20.1399  -41.7329 H         1 UNK         0.0600 
    154 H154       -1.3882  -18.6327  -43.4857 H         1 UNK         0.3000 
    155 H155        0.0778  -17.8519  -46.6626 H         1 UNK         0.0600 
    156 H156       -1.3420  -16.2747  -44.4570 H         1 UNK         0.0600 
    157 H157       -2.0102  -16.4719  -46.0621 H         1 UNK         0.0600 
    158 H158       -0.4851  -15.6265  -45.8535 H         1 UNK         0.0600 
    159 H159        1.0447  -16.9313  -44.2834 H         1 UNK         0.3000 
    160 H160        2.9453  -19.4713  -42.9316 H         1 UNK         0.0600 
    161 H161        4.2190  -19.5931  -45.0747 H         1 UNK         0.0600 
    162 H162        5.0544  -18.5822  -43.9078 H         1 UNK         0.0600 
    163 H163        4.1545  -17.8430  -45.2334 H         1 UNK         0.0600 
    164 H164        3.5062  -16.6665  -43.1815 H         1 UNK         0.3000 
    165 H165        2.3082  -15.9279  -40.0686 H         1 UNK         0.0600 
    166 H166        3.6642  -14.0808  -40.9835 H         1 UNK         0.0600 
    167 H167        4.4464  -15.6098  -41.3387 H         1 UNK         0.0600 
    168 H168        3.5735  -14.7462  -42.6049 H         1 UNK         0.0600 
    169 H169        0.6477  -14.5415  -40.5632 H         1 UNK         0.3000 
    170 H170       -1.4665  -14.2147  -42.9700 H         1 UNK         0.0600 
    171 H171       -1.3066  -13.9520  -40.5141 H         1 UNK         0.0600 
    172 H172       -0.2702  -12.5347  -40.6989 H         1 UNK         0.0600 
    173 H173       -1.9441  -12.4900  -41.2351 H         1 UNK         0.0600 
    174 H174       -1.2345  -12.3768  -44.1666 H         1 UNK         0.3000 
    175 H175       -0.2417  -10.7155  -45.3243 H         1 UNK         0.0600 
    176 H176        0.0171   -8.8381  -42.8926 H         1 UNK         0.0600 
    177 H177       -0.8277   -8.4782  -44.3973 H         1 UNK         0.0600 
    178 H178       -1.4609   -9.6929  -43.3115 H         1 UNK         0.0600 
    179 H179        2.3868  -10.3680  -44.4568 H         1 UNK         0.3000 
    180 H180        3.3120   -7.6558  -46.6665 H         1 UNK         0.0600 
    181 H181        4.1754   -9.1320  -44.1196 H         1 UNK         0.0600 
    182 H182        3.7110   -7.4405  -44.2259 H         1 UNK         0.0600 
    183 H183        5.1500   -8.0075  -45.0581 H         1 UNK         0.0600 
    184 H184        4.1296  -10.4787  -46.2287 H         1 UNK         0.3000 
    185 H185        3.5462  -11.3780  -49.5780 H         1 UNK         0.0600 
    186 H186        5.8027  -10.3547  -49.9074 H         1 UNK         0.0600 
    187 H187        6.3300  -10.9816  -48.3501 H         1 UNK         0.0600 
    188 H188        5.9256  -12.0895  -49.6625 H         1 UNK         0.0600 
    189 H189        4.8529  -12.7015  -47.3934 H         1 UNK         0.3000 
    190 H190       -1.5628  -21.3800  -47.3108 H         1 UNK         0.3000 
    191 H191       -2.8425  -22.3279  -49.6595 H         1 UNK         0.0600 
    192 H192       -4.0393  -21.3588  -47.0106 H         1 UNK         0.0600 
    193 H193       -4.9189  -21.5329  -48.5277 H         1 UNK         0.0600 
    194 H194       -3.6251  -20.3518  -48.3970 H         1 UNK         0.0600 
    195 H195       -2.7788  -23.6558  -46.3161 H         1 UNK         0.3000 
    196 H196       -4.5461  -25.8341  -46.7842 H         1 UNK         0.0600 
    197 H197       -3.5877  -26.7235  -44.6540 H         1 UNK         0.0600 
    198 H198       -4.0193  -25.0269  -44.5135 H         1 UNK         0.0600 
    199 H199       -2.3300  -25.4946  -44.6980 H         1 UNK         0.0600 
    200 H200       -0.9595  -25.6057  -47.0382 H         1 UNK         0.3000 
    201 H201       -0.4747  -28.3104  -47.7384 H         1 UNK         0.0600 
    202 H202        1.3091  -26.7662  -46.9921 H         1 UNK         0.0600 
    203 H203        1.1021  -25.7757  -48.4350 H         1 UNK         0.0600 
    204 H204        1.7099  -27.4211  -48.5722 H         1 UNK         0.0600 
    205 H205       -1.3956  -25.5136  -49.7209 H         1 UNK         0.3000 
    206 H206       -1.3420  -26.9610  -52.2579 H         1 UNK         0.0600 
    207 H207       -0.8639  -24.5155  -52.1055 H         1 UNK         0.0600 
    208 H208       -2.2570  -24.8245  -53.1288 H         1 UNK         0.0600 
    209 H209       -2.4882  -24.2263  -51.4899 H         1 UNK         0.0600 
    210 H210       -3.3624  -27.2804  -49.6589 H         1 UNK         0.3000 
    211 H211       -5.3658  -28.0601  -49.2058 H         1 UNK         0.0600 
    212 H212       -5.3754  -29.1683  -52.0631 H         1 UNK         0.0600 
    213 H213       -6.3231  -29.7641  -50.7069 H         1 UNK         0.0600 
    214 H214       -4.5760  -29.9272  -50.6866 H         1 UNK         0.0600 
    215 H215       -5.2100  -25.3518  -50.3420 H         1 UNK         0.3000 
    216 H216       -6.3283  -23.6349  -51.1078 H         1 UNK         0.0600 
    217 H217       -8.7185  -23.3979  -50.5530 H         1 UNK         0.0600 
    218 H218       -7.8861  -24.1999  -49.2327 H         1 UNK         0.0600 
    219 H219       -8.8877  -25.1348  -50.3432 H         1 UNK         0.0600 
    220 H220       -5.9139  -26.0647  -53.0038 H         1 UNK         0.3000 
    221 H221       -7.9028  -25.6444  -55.1087 H         1 UNK         0.0600 
    222 H222       -5.2517  -27.1867  -55.1086 H         1 UNK         0.0600 
    223 H223       -6.8296  -27.8729  -54.7234 H         1 UNK         0.0600 
    224 H224       -6.5019  -27.2722  -56.3426 H         1 UNK         0.0600 
    225 H225       -4.8809  -24.2683  -54.1132 H         1 UNK         0.3000 
    226 H226       -5.0307  -22.1868  -56.1170 H         1 UNK         0.0600 
    227 H227       -3.4254  -23.8118  -57.1945 H         1 UNK         0.0600 
    228 H228       -2.5798  -22.3693  -56.6552 H         1 UNK         0.0600 
    229 H229       -2.4664  -23.8536  -55.7160 H         1 UNK         0.0600 
    230 H230       -3.7502  -20.3524  -55.3472 H         1 UNK         0.3000 
    231 H231       -3.1391  -18.8329  -53.8597 H         1 UNK         0.0600 
    232 H232       -1.1202  -20.3609  -53.8376 H         1 UNK         0.0600 
    233 H233       -1.7447  -21.1100  -52.3676 H         1 UNK         0.0600 
    234 H234       -1.3040  -19.4034  -52.3821 H         1 UNK         0.0600 
    235 H235       -5.7442  -19.9392  -53.3711 H         1 UNK         0.3000 
    236 H236       -6.1842  -19.9611  -50.4678 H         1 UNK         0.0600 
    237 H237       -8.5584  -20.2686  -51.1550 H         1 UNK         0.0600 
    238 H238       -8.1161  -20.0627  -52.8466 H         1 UNK         0.0600 
    239 H239       -7.5129  -21.4440  -51.9356 H         1 UNK         0.0600 
    240 H240       -5.0253  -17.8475  -50.3404 H         1 UNK         0.3000 
    241 H241       -5.8867  -15.4420  -51.3877 H         1 UNK         0.0600 
    242 H242       -8.5080  -13.9338  -49.5165 H         1 UNK         0.3800 
    243 H243       -7.3501  -13.7473  -50.8019 H         1 UNK         0.3800 
    244 H244       -4.5970  -14.3431  -49.5854 H         1 UNK         0.0800 
    245 H245       -4.6066  -15.8039  -48.6366 H         1 UNK         0.0800 
    246 H246       -2.7607  -17.5551  -48.7207 H         1 UNK         0.0800 
    247 H247       -2.1396  -15.9818  -48.2641 H         1 UNK         0.0800 
@<TRIPOS>BOND
     1    1    2 1    
     2    1  127 1    
     3    1  128 1    
     4    1  129 1    
     5    2    3 2    
     6    2    4 am   BACKBONE|DICT|INTERRES
     7    4    5 1    
     8    4  130 1    
     9    5    6 1    
    10    5   65 1    
    11    5  131 1    
    12    6    7 1    
    13    6  132 1    
    14    6  133 1    
    15    7    8 1    
    16    8    9 1    
    17    8  134 1    
    18    8  135 1    
    19    9   10 ar   
    20    9   14 ar   
    21   10   11 ar   
    22   10  136 1    
    23   11   12 ar   
    24   11  126 1    
    25   12   13 ar   
    26   12  137 1    
    27   13   14 ar   
    28   13   15 1    
    29   14  138 1    
    30   15   16 1    
    31   15  139 1    
    32   15  140 1    
    33   16   17 1    
    34   17   18 1    
    35   17  141 1    
    36   17  142 1    
    37   18   19 1    
    38   18   67 1    
    39   18  143 1    
    40   19   20 am   BACKBONE|DICT|INTERRES
    41   19  144 1    
    42   20   21 2    
    43   20   22 1    
    44   22   23 1    
    45   22   24 1    
    46   22  145 1    
    47   23  146 1    
    48   23  147 1    
    49   23  148 1    
    50   24   25 am   BACKBONE|DICT|INTERRES
    51   24  149 1    
    52   25   26 2    
    53   25   27 1    
    54   27   28 1    
    55   27   29 1    
    56   27  150 1    
    57   28  151 1    
    58   28  152 1    
    59   28  153 1    
    60   29   30 am   BACKBONE|DICT|INTERRES
    61   29  154 1    
    62   30   31 2    
    63   30   32 1    
    64   32   33 1    
    65   32   34 1    
    66   32  155 1    
    67   33  156 1    
    68   33  157 1    
    69   33  158 1    
    70   34   35 am   BACKBONE|DICT|INTERRES
    71   34  159 1    
    72   35   36 2    
    73   35   37 1    
    74   37   38 1    
    75   37   39 1    
    76   37  160 1    
    77   38  161 1    
    78   38  162 1    
    79   38  163 1    
    80   39   40 am   BACKBONE|DICT|INTERRES
    81   39  164 1    
    82   40   41 2    
    83   40   42 1    
    84   42   43 1    
    85   42   44 1    
    86   42  165 1    
    87   43  166 1    
    88   43  167 1    
    89   43  168 1    
    90   44   45 am   BACKBONE|DICT|INTERRES
    91   44  169 1    
    92   45   46 2    
    93   45   47 1    
    94   47   48 1    
    95   47   49 1    
    96   47  170 1    
    97   48  171 1    
    98   48  172 1    
    99   48  173 1    
   100   49   50 am   BACKBONE|DICT|INTERRES
   101   49  174 1    
   102   50   51 2    
   103   50   52 1    
   104   52   53 1    
   105   52   54 1    
   106   52  175 1    
   107   53  176 1    
   108   53  177 1    
   109   53  178 1    
   110   54   55 am   BACKBONE|DICT|INTERRES
   111   54  179 1    
   112   55   56 2    
   113   55   57 1    
   114   57   58 1    
   115   57   59 1    
   116   57  180 1    
   117   58  181 1    
   118   58  182 1    
   119   58  183 1    
   120   59   60 am   BACKBONE|DICT|INTERRES
   121   59  184 1    
   122   60   61 2    
   123   60   62 1    
   124   62   63 1    
   125   62   64 1    
   126   62  185 1    
   127   63  186 1    
   128   63  187 1    
   129   63  188 1    
   130   64   65 am   BACKBONE|DICT|INTERRES
   131   64  189 1    
   132   65   66 2    
   133   67   68 2    
   134   67   69 am   BACKBONE|DICT|INTERRES
   135   69   70 1    
   136   69  190 1    
   137   70   71 1    
   138   70   72 1    
   139   70  191 1    
   140   71  192 1    
   141   71  193 1    
   142   71  194 1    
   143   72   73 2    
   144   72   74 am   BACKBONE|DICT|INTERRES
   145   74   75 1    
   146   74  195 1    
   147   75   76 1    
   148   75   77 1    
   149   75  196 1    
   150   76  197 1    
   151   76  198 1    
   152   76  199 1    
   153   77   78 2    
   154   77   79 am   BACKBONE|DICT|INTERRES
   155   79   80 1    
   156   79  200 1    
   157   80   81 1    
   158   80   82 1    
   159   80  201 1    
   160   81  202 1    
   161   81  203 1    
   162   81  204 1    
   163   82   83 2    
   164   82   84 am   BACKBONE|DICT|INTERRES
   165   84   85 1    
   166   84  205 1    
   167   85   86 1    
   168   85   87 1    
   169   85  206 1    
   170   86  207 1    
   171   86  208 1    
   172   86  209 1    
   173   87   88 2    
   174   87   89 am   BACKBONE|DICT|INTERRES
   175   89   90 1    
   176   89  210 1    
   177   90   91 1    
   178   90   92 1    
   179   90  211 1    
   180   91  212 1    
   181   91  213 1    
   182   91  214 1    
   183   92   93 2    
   184   92   94 am   BACKBONE|DICT|INTERRES
   185   94   95 1    
   186   94  215 1    
   187   95   96 1    
   188   95   97 1    
   189   95  216 1    
   190   96  217 1    
   191   96  218 1    
   192   96  219 1    
   193   97   98 2    
   194   97   99 am   BACKBONE|DICT|INTERRES
   195   99  100 1    
   196   99  220 1    
   197  100  101 1    
   198  100  102 1    
   199  100  221 1    
   200  101  222 1    
   201  101  223 1    
   202  101  224 1    
   203  102  103 2    
   204  102  104 am   BACKBONE|DICT|INTERRES
   205  104  105 1    
   206  104  225 1    
   207  105  106 1    
   208  105  107 1    
   209  105  226 1    
   210  106  227 1    
   211  106  228 1    
   212  106  229 1    
   213  107  108 2    
   214  107  109 am   BACKBONE|DICT|INTERRES
   215  109  110 1    
   216  109  230 1    
   217  110  111 1    
   218  110  112 1    
   219  110  231 1    
   220  111  232 1    
   221  111  233 1    
   222  111  234 1    
   223  112  113 2    
   224  112  114 am   BACKBONE|DICT|INTERRES
   225  114  115 1    
   226  114  235 1    
   227  115  116 1    
   228  115  117 1    
   229  115  236 1    
   230  116  237 1    
   231  116  238 1    
   232  116  239 1    
   233  117  118 2    
   234  117  119 am   BACKBONE|DICT|INTERRES
   235  119  120 1    
   236  119  240 1    
   237  120  121 1    
   238  120  124 1    
   239  120  241 1    
   240  121  122 am   BACKBONE|DICT|INTERRES
   241  121  123 2    
   242  122  242 1    
   243  122  243 1    
   244  124  125 1    
   245  124  244 1    
   246  124  245 1    
   247  125  126 1    
   248  126  246 1    
   249  126  247 1    
@<TRIPOS>SUBSTRUCTURE
     1 UNK         1 GROUP             0       ****    0 ROOT    
