@<TRIPOS>MOLECULE
3R540
247   249    1
SMALL
USER_CHARGES


@<TRIPOS>ATOM
      1 CA          4.3254  -10.4578  -50.9448 C.3       0 UNK        -0.1800 
      2 C           5.1130  -11.2286  -49.8945 C.2       0 UNK         0.5000 
      3 O           6.3131  -11.0001  -49.7384 O.2       0 UNK        -0.5000 
      4 N           4.4456  -12.1451  -49.1832 N.am      1 UNK        -0.5000 
      5 CA          5.0167  -12.9525  -48.1001 C.3       1 UNK         0.1400 
      6 C6          4.0708  -14.1026  -47.6786 C.3       23 UNK        -0.0398 
      7 S7          3.7445  -15.2681  -49.0403 S.3       23 UNK        -0.2404 
      8 C8          1.9968  -15.6838  -48.7359 C.3       23 UNK        -0.0205 
      9 C9          1.5805  -16.9499  -49.4699 C.ar      23 UNK        -0.0193 
     10 C10         0.4828  -16.9429  -50.3368 C.ar      23 UNK        -0.1150 
     11 C11         0.0844  -18.1171  -50.9839 C.ar      23 UNK        -0.0193 
     12 C12         0.8043  -19.2964  -50.7770 C.ar      23 UNK        -0.1150 
     13 C13         1.9035  -19.3152  -49.9152 C.ar      23 UNK        -0.0193 
     14 C14         2.2787  -18.1430  -49.2568 C.ar      23 UNK        -0.1150 
     15 C15         2.6816  -20.6024  -49.6888 C.3       23 UNK        -0.0205 
     16 S16         2.2009  -21.4169  -48.1354 S.3       23 UNK        -0.2404 
     17 C17         0.4313  -21.7121  -48.4495 C.3       23 UNK        -0.0398 
     18 CA         -0.1828  -22.7015  -47.4400 C.3       11 UNK         0.1400 
     19 N          -0.2299  -22.1534  -46.0790 N.am      11 UNK        -0.5000 
     20 C          -0.5998  -22.8310  -44.9826 C.2       10 UNK         0.5000 
     21 O          -0.9721  -24.0050  -44.9957 O.2       10 UNK        -0.5000 
     22 CA         -0.6192  -22.0457  -43.6611 C.3       10 UNK         0.1400 
     23 CB          0.8023  -21.7518  -43.1578 C.3       10 UNK        -0.1800 
     24 N          -1.3744  -20.8019  -43.8018 N.am      10 UNK        -0.5000 
     25 C          -2.7067  -20.7541  -43.9428 C.2       9 UNK         0.5000 
     26 O          -3.4347  -21.7432  -43.8575 O.2       9 UNK        -0.5000 
     27 CA         -3.3380  -19.3840  -44.2508 C.3       9 UNK         0.1400 
     28 CB         -3.7173  -18.6661  -42.9472 C.3       9 UNK        -0.1800 
     29 N          -2.4812  -18.5125  -45.0569 N.am      9 UNK        -0.5000 
     30 C          -2.1035  -18.7601  -46.3194 C.2       8 UNK         0.5000 
     31 O          -2.4562  -19.7530  -46.9529 O.2       8 UNK        -0.5000 
     32 CA         -1.1194  -17.7627  -46.9602 C.3       8 UNK         0.1400 
     33 CB         -1.8503  -16.5076  -47.4562 C.3       8 UNK        -0.1800 
     34 N          -0.0372  -17.3760  -46.0527 N.am      8 UNK        -0.5000 
     35 C           0.8528  -18.2375  -45.5393 C.2       7 UNK         0.5000 
     36 O           0.8557  -19.4436  -45.7810 O.2       7 UNK        -0.5000 
     37 CA          1.8671  -17.6675  -44.5353 C.3       7 UNK         0.1400 
     38 CB          3.0332  -16.9652  -45.2485 C.3       7 UNK        -0.1800 
     39 N           1.2274  -16.7552  -43.5869 N.am      7 UNK        -0.5000 
     40 C           0.3974  -17.1585  -42.6134 C.2       6 UNK         0.5000 
     41 O           0.1585  -18.3406  -42.3655 O.2       6 UNK        -0.5000 
     42 CA         -0.3253  -16.0588  -41.8145 C.3       6 UNK         0.1400 
     43 CB          0.5154  -15.6087  -40.6119 C.3       6 UNK        -0.1800 
     44 N          -0.6755  -14.9007  -42.6407 N.am      6 UNK        -0.5000 
     45 C          -1.6125  -14.9359  -43.6002 C.2       5 UNK         0.5000 
     46 O          -2.2608  -15.9437  -43.8736 O.2       5 UNK        -0.5000 
     47 CA         -1.8640  -13.6550  -44.4151 C.3       5 UNK         0.1400 
     48 CB         -3.0328  -12.8607  -43.8140 C.3       5 UNK        -0.1800 
     49 N          -0.7015  -12.7785  -44.5314 N.am      5 UNK        -0.5000 
     50 C           0.4649  -13.0970  -45.1066 C.2       4 UNK         0.5000 
     51 O           0.7135  -14.2070  -45.5852 O.2       4 UNK        -0.5000 
     52 CA          1.5457  -11.9954  -45.1351 C.3       4 UNK         0.1400 
     53 CB          1.0680  -10.6192  -44.6197 C.3       4 UNK        -0.1800 
     54 N           2.7642  -12.3895  -44.4263 N.am      4 UNK        -0.5000 
     55 C           2.8732  -12.8456  -43.1681 C.2       3 UNK         0.5000 
     56 O           1.9089  -13.0293  -42.4237 O.2       3 UNK        -0.5000 
     57 CA          4.2937  -13.1610  -42.6511 C.3       3 UNK         0.1400 
     58 CB          4.4014  -14.6240  -42.1941 C.3       3 UNK        -0.1800 
     59 N           5.3289  -12.9064  -43.6577 N.am      3 UNK        -0.5000 
     60 C           5.9860  -11.7477  -43.8043 C.2       2 UNK         0.5000 
     61 O           5.8425  -10.7773  -43.0603 O.2       2 UNK        -0.5000 
     62 CA          6.9387  -11.6472  -45.0125 C.3       2 UNK         0.1400 
     63 CB          8.3407  -12.1508  -44.6369 C.3       2 UNK        -0.1800 
     64 N           6.4653  -12.3727  -46.1982 N.am      2 UNK        -0.5000 
     65 C           5.3484  -12.0745  -46.8768 C.2       1 UNK         0.5000 
     66 O           4.5655  -11.1835  -46.5406 O.2       1 UNK        -0.5000 
     67 C          -1.5537  -23.1845  -47.9499 C.2       11 UNK         0.5000 
     68 O          -1.5970  -24.1370  -48.7297 O.2       11 UNK        -0.5000 
     69 N          -2.6480  -22.5634  -47.4883 N.am      12 UNK        -0.5000 
     70 CA         -4.0240  -22.9662  -47.7818 C.3       12 UNK         0.1400 
     71 CB         -5.0083  -22.0104  -47.0938 C.3       12 UNK        -0.1800 
     72 C          -4.3235  -24.4314  -47.4140 C.2       12 UNK         0.5000 
     73 O          -5.0533  -25.0958  -48.1496 O.2       12 UNK        -0.5000 
     74 N          -3.7081  -24.9120  -46.3260 N.am      13 UNK        -0.5000 
     75 CA         -3.7410  -26.3076  -45.9051 C.3       13 UNK         0.1400 
     76 CB         -3.8104  -26.3692  -44.3707 C.3       13 UNK        -0.1800 
     77 C          -2.5145  -27.0756  -46.4272 C.2       13 UNK         0.5000 
     78 O          -2.6778  -28.1319  -47.0375 O.2       13 UNK        -0.5000 
     79 N          -1.3100  -26.5453  -46.1687 N.am      14 UNK        -0.5000 
     80 CA         -0.0341  -27.2409  -46.3620 C.3       14 UNK         0.1400 
     81 CB          1.0782  -26.4701  -45.6341 C.3       14 UNK        -0.1800 
     82 C           0.3537  -27.4755  -47.8322 C.2       14 UNK         0.5000 
     83 O           0.9515  -28.5080  -48.1379 O.2       14 UNK        -0.5000 
     84 N           0.0123  -26.5243  -48.7083 N.am      15 UNK        -0.5000 
     85 CA          0.2697  -26.5775  -50.1496 C.3       15 UNK         0.1400 
     86 CB          1.0131  -25.2946  -50.5639 C.3       15 UNK        -0.1800 
     87 C          -1.0354  -26.7414  -50.9523 C.2       15 UNK         0.5000 
     88 O          -0.9857  -26.7492  -52.1828 O.2       15 UNK        -0.5000 
     89 N          -2.1744  -26.8490  -50.2485 N.am      16 UNK        -0.5000 
     90 CA         -3.5451  -26.9058  -50.7656 C.3       16 UNK         0.1400 
     91 CB         -3.7833  -28.2131  -51.5491 C.3       16 UNK        -0.1800 
     92 C          -3.9425  -25.6438  -51.5633 C.2       16 UNK         0.5000 
     93 O          -4.7410  -25.7304  -52.4987 O.2       16 UNK        -0.5000 
     94 N          -3.3907  -24.4816  -51.1773 N.am      17 UNK        -0.5000 
     95 CA         -3.5835  -23.1990  -51.8639 C.3       17 UNK         0.1400 
     96 CB         -2.5226  -22.1919  -51.3900 C.3       17 UNK        -0.1800 
     97 C          -5.0042  -22.6109  -51.7335 C.2       17 UNK         0.5000 
     98 O          -5.3078  -21.6308  -52.4130 O.2       17 UNK        -0.5000 
     99 N          -5.8658  -23.2221  -50.9049 N.am      18 UNK        -0.5000 
    100 CA        -7.2694  -22.8548  -50.6866 C.3       18 UNK         0.1400 
    101 CB        -7.8718  -23.7918  -49.6290 C.3       18 UNK        -0.1800 
    102 C         -8.1412  -22.8668  -51.9595 C.2       18 UNK         0.5000 
    103 O         -9.1585  -22.1750  -51.9960 O.2       18 UNK        -0.5000 
    104 N         -7.7201  -23.6237  -52.9837 N.am      19 UNK        -0.5000 
    105 CA        -8.3276  -23.6402  -54.3156 C.3       19 UNK         0.1400 
    106 CB        -7.7127  -24.7876  -55.1312 C.3       19 UNK        -0.1800 
    107 C         -8.1759  -22.2998  -55.0650 C.2       19 UNK         0.5000 
    108 O         -9.0778  -21.9215  -55.8136 O.2       19 UNK        -0.5000 
    109 N         -7.0528  -21.6039  -54.8390 N.am      20 UNK        -0.5000 
    110 CA        -6.7938  -20.2540  -55.3426 C.3       20 UNK         0.1400 
    111 CB        -5.2977  -20.1186  -55.6683 C.3       20 UNK        -0.1800 
    112 C         -7.2141  -19.1862  -54.3168 C.2       20 UNK         0.5000 
    113 O         -7.6444  -18.1019  -54.7096 O.2       20 UNK        -0.5000 
    114 N         -7.0579  -19.5130  -53.0249 N.am      21 UNK        -0.5000 
    115 CA        -7.3521  -18.7120  -51.8302 C.3       21 UNK         0.1400 
    116 CB        -8.8361  -18.2948  -51.7832 C.3       21 UNK        -0.1800 
    117 C         -6.3946  -17.5210  -51.6120 C.2       21 UNK         0.5000 
    118 O         -6.6137  -16.7335  -50.6905 O.2       21 UNK        -0.5000 
    119 N         -5.3393  -17.4284  -52.4329 N.am      22 UNK        -0.5000 
    120 CA        -4.2468  -16.4410  -52.3617 C.3       22 UNK         0.1400 
    121 C         -4.6766  -14.9615  -52.6081 C.2       22 UNK         0.5000 
    122 N         -5.8233  -14.7047  -53.2260 N.am      22 UNK        -0.7600 
    123 O         -3.9501  -14.0311  -52.2694 O.2       22 UNK        -0.5000 
    124 C124       -3.3614  -16.6163  -51.0944 C.3       23 UNK        -0.0398 
    125 S125       -2.6715  -18.3038  -50.9683 S.3       23 UNK        -0.2404 
    126 C126       -1.1223  -18.1233  -51.9068 C.3       23 UNK        -0.0205 
    127 H127        4.7626  -10.6135  -51.9311 H         1 UNK         0.0600 
    128 H128        4.3505   -9.3908  -50.7239 H         1 UNK         0.0600 
    129 H129        3.2823  -10.7730  -50.9818 H         1 UNK         0.0600 
    130 H130        3.4612  -12.2842  -49.3574 H         1 UNK         0.3000 
    131 H131        5.9473  -13.3904  -48.4681 H         1 UNK         0.0600 
    132 H132        3.1244  -13.7047  -47.3082 H         1 UNK         0.0800 
    133 H133        4.5051  -14.6763  -46.8580 H         1 UNK         0.0800 
    134 H134        1.8294  -15.8345  -47.6707 H         1 UNK         0.0800 
    135 H135        1.3737  -14.8376  -49.0293 H         1 UNK         0.0800 
    136 H136       -0.0723  -16.0297  -50.4972 H         1 UNK         0.1150 
    137 H137        0.5009  -20.2042  -51.2794 H         1 UNK         0.1150 
    138 H138        3.1200  -18.1593  -48.5785 H         1 UNK         0.1150 
    139 H139        2.5357  -21.2925  -50.5213 H         1 UNK         0.0800 
    140 H140        3.7498  -20.3831  -49.6581 H         1 UNK         0.0800 
    141 H141        0.3354  -22.0893  -49.4695 H         1 UNK         0.0800 
    142 H142       -0.1006  -20.7592  -48.4178 H         1 UNK         0.0800 
    143 H143        0.4569  -23.5854  -47.4058 H         1 UNK         0.0600 
    144 H144        0.0779  -21.1886  -45.9779 H         1 UNK         0.3000 
    145 H145       -1.1150  -22.6657  -42.9110 H         1 UNK         0.0600 
    146 H146        0.7797  -21.2280  -42.2019 H         1 UNK         0.0600 
    147 H147        1.3598  -22.6773  -43.0093 H         1 UNK         0.0600 
    148 H148        1.3687  -21.1392  -43.8585 H         1 UNK         0.0600 
    149 H149       -0.8416  -19.9443  -43.8642 H         1 UNK         0.3000 
    150 H150       -4.2529  -19.5655  -44.8185 H         1 UNK         0.0600 
    151 H151       -4.3619  -19.2911  -42.3280 H         1 UNK         0.0600 
    152 H152       -4.2593  -17.7421  -43.1496 H         1 UNK         0.0600 
    153 H153       -2.8351  -18.4152  -42.3569 H         1 UNK         0.0600 
    154 H154       -2.1942  -17.6389  -44.6213 H         1 UNK         0.3000 
    155 H155       -0.6667  -18.2546  -47.8238 H         1 UNK         0.0600 
    156 H156       -2.3429  -15.9789  -46.6412 H         1 UNK         0.0600 
    157 H157       -2.6185  -16.7732  -48.1819 H         1 UNK         0.0600 
    158 H158       -1.1646  -15.8149  -47.9440 H         1 UNK         0.0600 
    159 H159        0.0264  -16.3986  -45.7988 H         1 UNK         0.3000 
    160 H160        2.2800  -18.5137  -43.9815 H         1 UNK         0.0600 
    161 H161        2.7704  -15.9556  -45.5607 H         1 UNK         0.0600 
    162 H162        3.3478  -17.5167  -46.1357 H         1 UNK         0.0600 
    163 H163        3.9026  -16.8981  -44.5968 H         1 UNK         0.0600 
    164 H164        1.3229  -15.7647  -43.7628 H         1 UNK         0.3000 
    165 H165       -1.2521  -16.4893  -41.4290 H         1 UNK         0.0600 
    166 H166       -0.0135  -14.8644  -40.0165 H         1 UNK         0.0600 
    167 H167        0.7393  -16.4513  -39.9564 H         1 UNK         0.0600 
    168 H168        1.4646  -15.1760  -40.9231 H         1 UNK         0.0600 
    169 H169       -0.1393  -14.0532  -42.4987 H         1 UNK         0.3000 
    170 H170       -2.1446  -13.9589  -45.4248 H         1 UNK         0.0600 
    171 H171       -3.9282  -13.4794  -43.7392 H         1 UNK         0.0600 
    172 H172       -2.7996  -12.4982  -42.8120 H         1 UNK         0.0600 
    173 H173       -3.2860  -11.9999  -44.4333 H         1 UNK         0.0600 
    174 H174       -0.7994  -11.8526  -44.1412 H         1 UNK         0.3000 
    175 H175        1.8211  -11.8738  -46.1834 H         1 UNK         0.0600 
    176 H176        0.7971  -10.6458  -43.5635 H         1 UNK         0.0600 
    177 H177        1.8535   -9.8721  -44.7359 H         1 UNK         0.0600 
    178 H178        0.2053  -10.2604  -45.1825 H         1 UNK         0.0600 
    179 H179        3.6192  -12.2275  -44.9416 H         1 UNK         0.3000 
    180 H180        4.4667  -12.5266  -41.7794 H         1 UNK         0.0600 
    181 H181        4.1381  -15.3150  -42.9925 H         1 UNK         0.0600 
    182 H182        3.7351  -14.8220  -41.3548 H         1 UNK         0.0600 
    183 H183        5.4122  -14.8616  -41.8622 H         1 UNK         0.0600 
    184 H184        5.5239  -13.6548  -44.3063 H         1 UNK         0.3000 
    185 H185        7.0177  -10.5911  -45.2793 H         1 UNK         0.0600 
    186 H186        8.7295  -11.6136  -43.7707 H         1 UNK         0.0600 
    187 H187        8.3352  -13.2129  -44.3889 H         1 UNK         0.0600 
    188 H188        9.0465  -11.9996  -45.4539 H         1 UNK         0.0600 
    189 H189        7.0593  -13.1193  -46.5307 H         1 UNK         0.3000 
    190 H190       -2.5294  -21.7152  -46.9422 H         1 UNK         0.3000 
    191 H191       -4.1619  -22.8661  -48.8556 H         1 UNK         0.0600 
    192 H192       -4.8489  -20.9808  -47.4140 H         1 UNK         0.0600 
    193 H193       -6.0395  -22.2664  -47.3364 H         1 UNK         0.0600 
    194 H194       -4.9115  -22.0455  -46.0094 H         1 UNK         0.0600 
    195 H195       -3.0898  -24.2980  -45.8108 H         1 UNK         0.3000 
    196 H196       -4.6357  -26.7958  -46.2979 H         1 UNK         0.0600 
    197 H197       -3.8207  -27.4022  -44.0208 H         1 UNK         0.0600 
    198 H198       -4.7179  -25.8917  -44.0008 H         1 UNK         0.0600 
    199 H199       -2.9593  -25.8713  -43.9039 H         1 UNK         0.0600 
    200 H200       -1.2578  -25.6516  -45.6830 H         1 UNK         0.3000 
    201 H201       -0.1218  -28.2221  -45.8905 H         1 UNK         0.0600 
    202 H202        0.8527  -26.3594  -44.5733 H         1 UNK         0.0600 
    203 H203        1.2179  -25.4728  -46.0517 H         1 UNK         0.0600 
    204 H204        2.0319  -26.9938  -45.7106 H         1 UNK         0.0600 
    205 H205       -0.5087  -25.7137  -48.3897 H         1 UNK         0.3000 
    206 H206        0.9048  -27.4302  -50.3972 H         1 UNK         0.0600 
    207 H207        1.9172  -25.1522  -49.9718 H         1 UNK         0.0600 
    208 H208        1.3155  -25.3396  -51.6107 H         1 UNK         0.0600 
    209 H209        0.3912  -24.4079  -50.4443 H         1 UNK         0.0600 
    210 H210       -2.0920  -26.8482  -49.2418 H         1 UNK         0.3000 
    211 H211       -4.1964  -26.9295  -49.8916 H         1 UNK         0.0600 
    212 H212       -3.2174  -28.2377  -52.4807 H         1 UNK         0.0600 
    213 H213       -4.8371  -28.3289  -51.8049 H         1 UNK         0.0600 
    214 H214       -3.4971  -29.0835  -50.9587 H         1 UNK         0.0600 
    215 H215       -2.7466  -24.4867  -50.3930 H         1 UNK         0.3000 
    216 H216       -3.4155  -23.3735  -52.9286 H         1 UNK         0.0600 
    217 H217       -2.5369  -21.2962  -52.0123 H         1 UNK         0.0600 
    218 H218       -1.5184  -22.6114  -51.4522 H         1 UNK         0.0600 
    219 H219       -2.6908  -21.8686  -50.3639 H         1 UNK         0.0600 
    220 H220       -5.5379  -24.0347  -50.4015 H         1 UNK         0.3000 
    221 H221       -7.2847  -21.8369  -50.2928 H         1 UNK         0.0600 
    222 H222       -7.8268  -24.8348  -49.9450 H         1 UNK         0.0600 
    223 H223       -7.3479  -23.7086  -48.6781 H         1 UNK         0.0600 
    224 H224       -8.9186  -23.5501  -49.4398 H         1 UNK         0.0600 
    225 H225       -6.8851  -24.1796  -52.8577 H         1 UNK         0.3000 
    226 H226       -9.3954  -23.8365  -54.1983 H         1 UNK         0.0600 
    227 H227       -7.8829  -25.7500  -54.6482 H         1 UNK         0.0600 
    228 H228       -8.1555  -24.8409  -56.1266 H         1 UNK         0.0600 
    229 H229       -6.6363  -24.6613  -55.2558 H         1 UNK         0.0600 
    230 H230       -6.3811  -21.9694  -54.1754 H         1 UNK         0.3000 
    231 H231       -7.3583  -20.0812  -56.2613 H         1 UNK         0.0600 
    232 H232       -4.9950  -20.8399  -56.4276 H         1 UNK         0.0600 
    233 H233       -4.6735  -20.2789  -54.7882 H         1 UNK         0.0600 
    234 H234       -5.0708  -19.1247  -56.0563 H         1 UNK         0.0600 
    235 H235       -6.5891  -20.3940  -52.8285 H         1 UNK         0.3000 
    236 H236       -7.1788  -19.3809  -50.9865 H         1 UNK         0.0600 
    237 H237       -9.0877  -17.8552  -50.8175 H         1 UNK         0.0600 
    238 H238       -9.0767  -17.5560  -52.5477 H         1 UNK         0.0600 
    239 H239       -9.4906  -19.1548  -51.9270 H         1 UNK         0.0600 
    240 H240       -5.2490  -18.1294  -53.1522 H         1 UNK         0.3000 
    241 H241       -3.6113  -16.6670  -53.2185 H         1 UNK         0.0600 
    242 H242       -6.0948  -13.7488  -53.3946 H         1 UNK         0.3800 
    243 H243       -6.4254  -15.4584  -53.5198 H         1 UNK         0.3800 
    244 H244       -3.9455  -16.4133  -50.1963 H         1 UNK         0.0800 
    245 H245       -2.5387  -15.9001  -51.0837 H         1 UNK         0.0800 
    246 H246       -1.1353  -17.2161  -52.5122 H         1 UNK         0.0800 
    247 H247       -1.0492  -18.9514  -52.6134 H         1 UNK         0.0800 
@<TRIPOS>BOND
     1    1    2 1    
     2    1  127 1    
     3    1  128 1    
     4    1  129 1    
     5    2    3 2    
     6    2    4 am   BACKBONE|DICT|INTERRES
     7    4    5 1    
     8    4  130 1    
     9    5    6 1    
    10    5   65 1    
    11    5  131 1    
    12    6    7 1    
    13    6  132 1    
    14    6  133 1    
    15    7    8 1    
    16    8    9 1    
    17    8  134 1    
    18    8  135 1    
    19    9   10 ar   
    20    9   14 ar   
    21   10   11 ar   
    22   10  136 1    
    23   11   12 ar   
    24   11  126 1    
    25   12   13 ar   
    26   12  137 1    
    27   13   14 ar   
    28   13   15 1    
    29   14  138 1    
    30   15   16 1    
    31   15  139 1    
    32   15  140 1    
    33   16   17 1    
    34   17   18 1    
    35   17  141 1    
    36   17  142 1    
    37   18   19 1    
    38   18   67 1    
    39   18  143 1    
    40   19   20 am   BACKBONE|DICT|INTERRES
    41   19  144 1    
    42   20   21 2    
    43   20   22 1    
    44   22   23 1    
    45   22   24 1    
    46   22  145 1    
    47   23  146 1    
    48   23  147 1    
    49   23  148 1    
    50   24   25 am   BACKBONE|DICT|INTERRES
    51   24  149 1    
    52   25   26 2    
    53   25   27 1    
    54   27   28 1    
    55   27   29 1    
    56   27  150 1    
    57   28  151 1    
    58   28  152 1    
    59   28  153 1    
    60   29   30 am   BACKBONE|DICT|INTERRES
    61   29  154 1    
    62   30   31 2    
    63   30   32 1    
    64   32   33 1    
    65   32   34 1    
    66   32  155 1    
    67   33  156 1    
    68   33  157 1    
    69   33  158 1    
    70   34   35 am   BACKBONE|DICT|INTERRES
    71   34  159 1    
    72   35   36 2    
    73   35   37 1    
    74   37   38 1    
    75   37   39 1    
    76   37  160 1    
    77   38  161 1    
    78   38  162 1    
    79   38  163 1    
    80   39   40 am   BACKBONE|DICT|INTERRES
    81   39  164 1    
    82   40   41 2    
    83   40   42 1    
    84   42   43 1    
    85   42   44 1    
    86   42  165 1    
    87   43  166 1    
    88   43  167 1    
    89   43  168 1    
    90   44   45 am   BACKBONE|DICT|INTERRES
    91   44  169 1    
    92   45   46 2    
    93   45   47 1    
    94   47   48 1    
    95   47   49 1    
    96   47  170 1    
    97   48  171 1    
    98   48  172 1    
    99   48  173 1    
   100   49   50 am   BACKBONE|DICT|INTERRES
   101   49  174 1    
   102   50   51 2    
   103   50   52 1    
   104   52   53 1    
   105   52   54 1    
   106   52  175 1    
   107   53  176 1    
   108   53  177 1    
   109   53  178 1    
   110   54   55 am   BACKBONE|DICT|INTERRES
   111   54  179 1    
   112   55   56 2    
   113   55   57 1    
   114   57   58 1    
   115   57   59 1    
   116   57  180 1    
   117   58  181 1    
   118   58  182 1    
   119   58  183 1    
   120   59   60 am   BACKBONE|DICT|INTERRES
   121   59  184 1    
   122   60   61 2    
   123   60   62 1    
   124   62   63 1    
   125   62   64 1    
   126   62  185 1    
   127   63  186 1    
   128   63  187 1    
   129   63  188 1    
   130   64   65 am   BACKBONE|DICT|INTERRES
   131   64  189 1    
   132   65   66 2    
   133   67   68 2    
   134   67   69 am   BACKBONE|DICT|INTERRES
   135   69   70 1    
   136   69  190 1    
   137   70   71 1    
   138   70   72 1    
   139   70  191 1    
   140   71  192 1    
   141   71  193 1    
   142   71  194 1    
   143   72   73 2    
   144   72   74 am   BACKBONE|DICT|INTERRES
   145   74   75 1    
   146   74  195 1    
   147   75   76 1    
   148   75   77 1    
   149   75  196 1    
   150   76  197 1    
   151   76  198 1    
   152   76  199 1    
   153   77   78 2    
   154   77   79 am   BACKBONE|DICT|INTERRES
   155   79   80 1    
   156   79  200 1    
   157   80   81 1    
   158   80   82 1    
   159   80  201 1    
   160   81  202 1    
   161   81  203 1    
   162   81  204 1    
   163   82   83 2    
   164   82   84 am   BACKBONE|DICT|INTERRES
   165   84   85 1    
   166   84  205 1    
   167   85   86 1    
   168   85   87 1    
   169   85  206 1    
   170   86  207 1    
   171   86  208 1    
   172   86  209 1    
   173   87   88 2    
   174   87   89 am   BACKBONE|DICT|INTERRES
   175   89   90 1    
   176   89  210 1    
   177   90   91 1    
   178   90   92 1    
   179   90  211 1    
   180   91  212 1    
   181   91  213 1    
   182   91  214 1    
   183   92   93 2    
   184   92   94 am   BACKBONE|DICT|INTERRES
   185   94   95 1    
   186   94  215 1    
   187   95   96 1    
   188   95   97 1    
   189   95  216 1    
   190   96  217 1    
   191   96  218 1    
   192   96  219 1    
   193   97   98 2    
   194   97   99 am   BACKBONE|DICT|INTERRES
   195   99  100 1    
   196   99  220 1    
   197  100  101 1    
   198  100  102 1    
   199  100  221 1    
   200  101  222 1    
   201  101  223 1    
   202  101  224 1    
   203  102  103 2    
   204  102  104 am   BACKBONE|DICT|INTERRES
   205  104  105 1    
   206  104  225 1    
   207  105  106 1    
   208  105  107 1    
   209  105  226 1    
   210  106  227 1    
   211  106  228 1    
   212  106  229 1    
   213  107  108 2    
   214  107  109 am   BACKBONE|DICT|INTERRES
   215  109  110 1    
   216  109  230 1    
   217  110  111 1    
   218  110  112 1    
   219  110  231 1    
   220  111  232 1    
   221  111  233 1    
   222  111  234 1    
   223  112  113 2    
   224  112  114 am   BACKBONE|DICT|INTERRES
   225  114  115 1    
   226  114  235 1    
   227  115  116 1    
   228  115  117 1    
   229  115  236 1    
   230  116  237 1    
   231  116  238 1    
   232  116  239 1    
   233  117  118 2    
   234  117  119 am   BACKBONE|DICT|INTERRES
   235  119  120 1    
   236  119  240 1    
   237  120  121 1    
   238  120  124 1    
   239  120  241 1    
   240  121  122 am   BACKBONE|DICT|INTERRES
   241  121  123 2    
   242  122  242 1    
   243  122  243 1    
   244  124  125 1    
   245  124  244 1    
   246  124  245 1    
   247  125  126 1    
   248  126  246 1    
   249  126  247 1    
@<TRIPOS>SUBSTRUCTURE
     1 UNK         1 GROUP             0       ****    0 ROOT    
