@<TRIPOS>MOLECULE
3R540
247   249    1
SMALL
USER_CHARGES


@<TRIPOS>ATOM
      1 CA          1.8406   -9.2801  -45.8306 C.3       0 UNK        -0.1800 
      2 C           1.3047  -10.6366  -45.3971 C.2       0 UNK         0.5000 
      3 O           2.0904  -11.5411  -45.1089 O.2       0 UNK        -0.5000 
      4 N          -0.0271  -10.7843  -45.3668 N.am      1 UNK        -0.5000 
      5 CA         -0.7492  -12.0337  -45.0949 C.3       1 UNK         0.1400 
      6 C6         -2.2809  -11.8396  -45.2319 C.3       23 UNK        -0.0398 
      7 S7         -3.1727  -13.4221  -45.3923 S.3       23 UNK        -0.2404 
      8 C8         -3.7691  -13.3927  -47.1196 C.3       23 UNK        -0.0205 
      9 C9         -3.9113  -14.7895  -47.7215 C.ar      23 UNK        -0.0193 
     10 C10        -3.5623  -15.0074  -49.0578 C.ar      23 UNK        -0.1150 
     11 C11        -3.6123  -16.2916  -49.6088 C.ar      23 UNK        -0.0193 
     12 C12        -4.0085  -17.3676  -48.8104 C.ar      23 UNK        -0.1150 
     13 C13        -4.3928  -17.1619  -47.4817 C.ar      23 UNK        -0.0193 
     14 C14        -4.3627  -15.8693  -46.9548 C.ar      23 UNK        -0.1150 
     15 C15        -4.7383  -18.3279  -46.5666 C.3       23 UNK        -0.0205 
     16 S16        -5.8190  -19.5802  -47.3232 S.3       23 UNK        -0.2404 
     17 C17        -5.6915  -20.8904  -46.0591 C.3       23 UNK        -0.0398 
     18 CA         -4.6868  -21.9938  -46.4639 C.3       11 UNK         0.1400 
     19 N          -3.3259  -21.4815  -46.6726 N.am      11 UNK        -0.5000 
     20 C          -2.3339  -22.1684  -47.2531 C.2       10 UNK         0.5000 
     21 O          -2.4461  -23.3315  -47.6350 O.2       10 UNK        -0.5000 
     22 CA         -0.9819  -21.4557  -47.3970 C.3       10 UNK         0.1400 
     23 CB         -0.9903  -20.5385  -48.6293 C.3       10 UNK        -0.1800 
     24 N          -0.6237  -20.6983  -46.1960 N.am      10 UNK        -0.5000 
     25 C          -0.3367  -21.2711  -45.0149 C.2       9 UNK         0.5000 
     26 O          -0.3576  -22.4890  -44.8358 O.2       9 UNK        -0.5000 
     27 CA          0.0263  -20.3559  -43.8282 C.3       9 UNK         0.1400 
     28 CB          1.5469  -20.3376  -43.6136 C.3       9 UNK        -0.1800 
     29 N          -0.4493  -18.9809  -43.9708 N.am      9 UNK        -0.5000 
     30 C          -1.7373  -18.6093  -43.9382 C.2       8 UNK         0.5000 
     31 O          -2.6692  -19.3956  -43.7607 O.2       8 UNK        -0.5000 
     32 CA         -2.0402  -17.1175  -44.1926 C.3       8 UNK         0.1400 
     33 CB         -2.1463  -16.3617  -42.8602 C.3       8 UNK        -0.1800 
     34 N          -1.0661  -16.4409  -45.0553 N.am      8 UNK        -0.5000 
     35 C          -0.7038  -16.8397  -46.2857 C.2       7 UNK         0.5000 
     36 O          -1.1758  -17.8283  -46.8455 O.2       7 UNK        -0.5000 
     37 CA          0.4268  -16.0609  -46.9861 C.3       7 UNK         0.1400 
     38 CB         -0.1485  -15.0500  -47.9876 C.3       7 UNK        -0.1800 
     39 N           1.3454  -15.3738  -46.0749 N.am      7 UNK        -0.5000 
     40 C           2.0883  -15.9622  -45.1255 C.2       6 UNK         0.5000 
     41 O           2.0487  -17.1689  -44.8766 O.2       6 UNK        -0.5000 
     42 CA          3.0091  -15.0288  -44.3149 C.3       6 UNK         0.1400 
     43 CB          4.1069  -15.7810  -43.5349 C.3       6 UNK        -0.1800 
     44 N           3.5854  -13.9473  -45.1225 N.am      6 UNK        -0.5000 
     45 C           4.4359  -14.0614  -46.1539 C.2       5 UNK         0.5000 
     46 O           4.8245  -15.1317  -46.6220 O.2       5 UNK        -0.5000 
     47 CA          4.9718  -12.7390  -46.7353 C.3       5 UNK         0.1400 
     48 CB          4.0391  -12.1912  -47.8274 C.3       5 UNK        -0.1800 
     49 N           5.1945  -11.7243  -45.6958 N.am      5 UNK        -0.5000 
     50 C           6.2061  -11.7871  -44.8166 C.2       4 UNK         0.5000 
     51 O           7.0444  -12.6888  -44.8142 O.2       4 UNK        -0.5000 
     52 CA          6.3236  -10.6771  -43.7552 C.3       4 UNK         0.1400 
     53 CB          7.4211   -9.6822  -44.1641 C.3       4 UNK        -0.1800 
     54 N           5.0929   -9.9212  -43.5024 N.am      4 UNK        -0.5000 
     55 C           4.0337  -10.2576  -42.7498 C.2       3 UNK         0.5000 
     56 O           3.1306   -9.4430  -42.5598 O.2       3 UNK        -0.5000 
     57 CA          3.9302  -11.6682  -42.1193 C.3       3 UNK         0.1400 
     58 CB          4.6847  -11.7736  -40.7754 C.3       3 UNK        -0.1800 
     59 N           2.5266  -12.0920  -41.9956 N.am      3 UNK        -0.5000 
     60 C           1.6107  -11.7465  -41.0768 C.2       2 UNK         0.5000 
     61 O           1.8418  -11.0659  -40.0760 O.2       2 UNK        -0.5000 
     62 CA          0.1793  -12.2439  -41.3553 C.3       2 UNK         0.1400 
     63 CB         -0.8540  -11.6997  -40.3517 C.3       2 UNK        -0.1800 
     64 N          -0.2248  -11.8507  -42.7042 N.am      2 UNK        -0.5000 
     65 C          -0.3703  -12.6805  -43.7435 C.2       1 UNK         0.5000 
     66 O          -0.1686  -13.8942  -43.6881 O.2       1 UNK        -0.5000 
     67 C          -4.7094  -23.1576  -45.4534 C.2       11 UNK         0.5000 
     68 O          -5.4559  -24.1165  -45.6514 O.2       11 UNK        -0.5000 
     69 N          -3.8387  -23.0910  -44.4349 N.am      12 UNK        -0.5000 
     70 CA         -3.6060  -24.1635  -43.4627 C.3       12 UNK         0.1400 
     71 CB         -2.7369  -23.6229  -42.3171 C.3       12 UNK        -0.1800 
     72 C          -2.9654  -25.4206  -44.0889 C.2       12 UNK         0.5000 
     73 O          -3.1497  -26.5199  -43.5666 O.2       12 UNK        -0.5000 
     74 N          -2.2615  -25.2393  -45.2134 N.am      13 UNK        -0.5000 
     75 CA         -1.6674  -26.2886  -46.0391 C.3       13 UNK         0.1400 
     76 CB         -0.2762  -25.8153  -46.4982 C.3       13 UNK        -0.1800 
     77 C          -2.5698  -26.6650  -47.2352 C.2       13 UNK         0.5000 
     78 O          -2.0656  -27.2048  -48.2202 O.2       13 UNK        -0.5000 
     79 N          -3.8767  -26.3661  -47.1492 N.am      14 UNK        -0.5000 
     80 CA         -4.9154  -26.6298  -48.1535 C.3       14 UNK         0.1400 
     81 CB         -5.1354  -28.1470  -48.3308 C.3       14 UNK        -0.1800 
     82 C          -4.6416  -25.9000  -49.4839 C.2       14 UNK         0.5000 
     83 O          -4.6192  -26.5222  -50.5472 O.2       14 UNK        -0.5000 
     84 N          -4.3886  -24.5881  -49.3781 N.am      15 UNK        -0.5000 
     85 CA         -3.9697  -23.6752  -50.4480 C.3       15 UNK         0.1400 
     86 CB         -5.0912  -23.4814  -51.4888 C.3       15 UNK        -0.1800 
     87 C          -2.6232  -24.1049  -51.0624 C.2       15 UNK         0.5000 
     88 O          -2.4776  -24.1289  -52.2842 O.2       15 UNK        -0.5000 
     89 N          -1.6770  -24.4732  -50.1857 N.am      16 UNK        -0.5000 
     90 CA         -0.3545  -25.0298  -50.4891 C.3       16 UNK         0.1400 
     91 CB          0.5552  -23.9385  -51.0911 C.3       16 UNK        -0.1800 
     92 C          -0.4491  -26.2947  -51.3696 C.2       16 UNK         0.5000 
     93 O           0.1938  -26.3700  -52.4159 O.2       16 UNK        -0.5000 
     94 N          -1.3028  -27.2403  -50.9505 N.am      17 UNK        -0.5000 
     95 CA         -1.7138  -28.4470  -51.6780 C.3       17 UNK         0.1400 
     96 CB         -0.5466  -29.4511  -51.7747 C.3       17 UNK        -0.1800 
     97 C          -2.3513  -28.1168  -53.0467 C.2       17 UNK         0.5000 
     98 O          -2.0117  -28.7302  -54.0602 O.2       17 UNK        -0.5000 
     99 N          -3.2516  -27.1237  -53.0365 N.am      18 UNK        -0.5000 
    100 CA        -3.9812  -26.5447  -54.1696 C.3       18 UNK         0.1400 
    101 CB        -4.9404  -27.5845  -54.7853 C.3       18 UNK        -0.1800 
    102 C         -3.0976  -25.8500  -55.2318 C.2       18 UNK         0.5000 
    103 O         -3.5668  -25.6240  -56.3491 O.2       18 UNK        -0.5000 
    104 N         -1.8491  -25.5085  -54.8848 N.am      19 UNK        -0.5000 
    105 CA        -0.9177  -24.8016  -55.7641 C.3       19 UNK         0.1400 
    106 CB         0.5252  -25.1513  -55.3721 C.3       19 UNK        -0.1800 
    107 C         -1.1165  -23.2755  -55.7397 C.2       19 UNK         0.5000 
    108 O         -0.8087  -22.6192  -56.7362 O.2       19 UNK        -0.5000 
    109 N         -1.5999  -22.7267  -54.6160 N.am      20 UNK        -0.5000 
    110 CA        -1.8409  -21.2951  -54.4472 C.3       20 UNK         0.1400 
    111 CB        -1.9146  -20.9524  -52.9498 C.3       20 UNK        -0.1800 
    112 C         -3.1340  -20.8659  -55.1584 C.2       20 UNK         0.5000 
    113 O         -4.1435  -21.5719  -55.0825 O.2       20 UNK        -0.5000 
    114 N         -3.0985  -19.6803  -55.7815 N.am      21 UNK        -0.5000 
    115 CA        -4.2278  -19.0611  -56.4867 C.3       21 UNK         0.1400 
    116 CB        -3.7325  -17.7978  -57.2074 C.3       21 UNK        -0.1800 
    117 C         -5.4273  -18.7270  -55.5757 C.2       21 UNK         0.5000 
    118 O         -6.5517  -18.6187  -56.0667 O.2       21 UNK        -0.5000 
    119 N         -5.1665  -18.5928  -54.2698 N.am      22 UNK        -0.5000 
    120 CA        -6.1738  -18.4293  -53.2115 C.3       22 UNK         0.1400 
    121 C         -7.0006  -19.7162  -52.9098 C.2       22 UNK         0.5000 
    122 N         -6.6396  -20.8868  -53.4255 N.am      22 UNK        -0.7600 
    123 O         -7.9989  -19.6477  -52.1985 O.2       22 UNK        -0.5000 
    124 C124       -5.5501  -17.8641  -51.9090 C.3       23 UNK        -0.0398 
    125 S125       -4.6325  -16.3061  -52.1782 S.3       23 UNK        -0.2404 
    126 C126       -3.2125  -16.5159  -51.0587 C.3       23 UNK        -0.0205 
    127 H127        2.6091   -9.4074  -46.5930 H         1 UNK         0.0600 
    128 H128        2.2822   -8.7571  -44.9838 H         1 UNK         0.0600 
    129 H129        1.0541   -8.6502  -46.2465 H         1 UNK         0.0600 
    130 H130       -0.6046   -9.9899  -45.6031 H         1 UNK         0.3000 
    131 H131       -0.4298  -12.7284  -45.8727 H         1 UNK         0.0600 
    132 H132       -2.6834  -11.2962  -44.3752 H         1 UNK         0.0800 
    133 H133       -2.5060  -11.2230  -46.1029 H         1 UNK         0.0800 
    134 H134       -4.7321  -12.8826  -47.1602 H         1 UNK         0.0800 
    135 H135       -3.0755  -12.8073  -47.7249 H         1 UNK         0.0800 
    136 H136       -3.2306  -14.1795  -49.6686 H         1 UNK         0.1150 
    137 H137       -4.0068  -18.3677  -49.2187 H         1 UNK         0.1150 
    138 H138       -4.6443  -15.7125  -45.9237 H         1 UNK         0.1150 
    139 H139       -3.8003  -18.7928  -46.2678 H         1 UNK         0.0800 
    140 H140       -5.2151  -17.9711  -45.6523 H         1 UNK         0.0800 
    141 H141       -6.6888  -21.3157  -45.9317 H         1 UNK         0.0800 
    142 H142       -5.4237  -20.4538  -45.0948 H         1 UNK         0.0800 
    143 H143       -5.0246  -22.4025  -47.4186 H         1 UNK         0.0600 
    144 H144       -3.1402  -20.5403  -46.3603 H         1 UNK         0.3000 
    145 H145       -0.2179  -22.2205  -47.5527 H         1 UNK         0.0600 
    146 H146       -1.7683  -19.7769  -48.5637 H         1 UNK         0.0600 
    147 H147       -0.0338  -20.0298  -48.7502 H         1 UNK         0.0600 
    148 H148       -1.1714  -21.1119  -49.5396 H         1 UNK         0.0600 
    149 H149       -0.6299  -19.6861  -46.2759 H         1 UNK         0.3000 
    150 H150       -0.4380  -20.7813  -42.9361 H         1 UNK         0.0600 
    151 H151        1.9306  -21.3447  -43.4456 H         1 UNK         0.0600 
    152 H152        1.8170  -19.7376  -42.7443 H         1 UNK         0.0600 
    153 H153        2.0691  -19.9275  -44.4790 H         1 UNK         0.0600 
    154 H154        0.2549  -18.2782  -44.1653 H         1 UNK         0.3000 
    155 H155       -3.0087  -17.0608  -44.6872 H         1 UNK         0.0600 
    156 H156       -2.8629  -16.8408  -42.1919 H         1 UNK         0.0600 
    157 H157       -2.4843  -15.3369  -43.0143 H         1 UNK         0.0600 
    158 H158       -1.1865  -16.3228  -42.3435 H         1 UNK         0.0600 
    159 H159       -0.6284  -15.6118  -44.6663 H         1 UNK         0.3000 
    160 H160        1.0185  -16.7889  -47.5446 H         1 UNK         0.0600 
    161 H161        0.6407  -14.4937  -48.4935 H         1 UNK         0.0600 
    162 H162       -0.8130  -14.3350  -47.5037 H         1 UNK         0.0600 
    163 H163       -0.7272  -15.5619  -48.7572 H         1 UNK         0.0600 
    164 H164        1.4443  -14.3775  -46.1974 H         1 UNK         0.3000 
    165 H165        2.3693  -14.5495  -43.5752 H         1 UNK         0.0600 
    166 H166        4.7596  -16.3489  -44.1984 H         1 UNK         0.0600 
    167 H167        4.7274  -15.0909  -42.9632 H         1 UNK         0.0600 
    168 H168        3.6695  -16.4858  -42.8268 H         1 UNK         0.0600 
    169 H169        3.2397  -13.0114  -44.9266 H         1 UNK         0.3000 
    170 H170        5.9330  -12.9547  -47.2075 H         1 UNK         0.0600 
    171 H171        3.0309  -12.0110  -47.4591 H         1 UNK         0.0600 
    172 H172        4.4191  -11.2562  -48.2392 H         1 UNK         0.0600 
    173 H173        3.9571  -12.8991  -48.6529 H         1 UNK         0.0600 
    174 H174        4.5192  -10.9764  -45.6250 H         1 UNK         0.3000 
    175 H175        6.6498  -11.1498  -42.8302 H         1 UNK         0.0600 
    176 H176        7.1655   -9.1559  -45.0848 H         1 UNK         0.0600 
    177 H177        7.5883   -8.9368  -43.3863 H         1 UNK         0.0600 
    178 H178        8.3716  -10.1912  -44.3309 H         1 UNK         0.0600 
    179 H179        5.0867   -8.9953  -43.9035 H         1 UNK         0.3000 
    180 H180        4.3726  -12.3899  -42.8031 H         1 UNK         0.0600 
    181 H181        4.4195  -10.9641  -40.0950 H         1 UNK         0.0600 
    182 H182        5.7636  -11.7289  -40.9107 H         1 UNK         0.0600 
    183 H183        4.4687  -12.7173  -40.2744 H         1 UNK         0.0600 
    184 H184        2.1642  -12.5706  -42.8071 H         1 UNK         0.3000 
    185 H185        0.1950  -13.3315  -41.2580 H         1 UNK         0.0600 
    186 H186       -1.8506  -12.0854  -40.5675 H         1 UNK         0.0600 
    187 H187       -0.6057  -11.9980  -39.3324 H         1 UNK         0.0600 
    188 H188       -0.9044  -10.6104  -40.3749 H         1 UNK         0.0600 
    189 H189       -0.3337  -10.8589  -42.8630 H         1 UNK         0.3000 
    190 H190       -3.2479  -22.2753  -44.3566 H         1 UNK         0.3000 
    191 H191       -4.5724  -24.4586  -43.0486 H         1 UNK         0.0600 
    192 H192       -1.7513  -23.3162  -42.6681 H         1 UNK         0.0600 
    193 H193       -3.2050  -22.7633  -41.8371 H         1 UNK         0.0600 
    194 H194       -2.5883  -24.3829  -41.5489 H         1 UNK         0.0600 
    195 H195       -2.1712  -24.2995  -45.5769 H         1 UNK         0.3000 
    196 H196       -1.5332  -27.1954  -45.4465 H         1 UNK         0.0600 
    197 H197        0.3559  -25.5724  -45.6438 H         1 UNK         0.0600 
    198 H198       -0.3387  -24.9261  -47.1252 H         1 UNK         0.0600 
    199 H199        0.2382  -26.5887  -47.0698 H         1 UNK         0.0600 
    200 H200       -4.1941  -25.8786  -46.3211 H         1 UNK         0.3000 
    201 H201       -5.8407  -26.2085  -47.7576 H         1 UNK         0.0600 
    202 H202       -5.9803  -28.3424  -48.9920 H         1 UNK         0.0600 
    203 H203       -5.3522  -28.6275  -47.3768 H         1 UNK         0.0600 
    204 H204       -4.2640  -28.6391  -48.7637 H         1 UNK         0.0600 
    205 H205       -4.3133  -24.2098  -48.4438 H         1 UNK         0.3000 
    206 H206       -3.7914  -22.7049  -49.9830 H         1 UNK         0.0600 
    207 H207       -5.9913  -23.0810  -51.0228 H         1 UNK         0.0600 
    208 H208       -5.3589  -24.4142  -51.9826 H         1 UNK         0.0600 
    209 H209       -4.7892  -22.7782  -52.2652 H         1 UNK         0.0600 
    210 H210       -1.9086  -24.3903  -49.2008 H         1 UNK         0.3000 
    211 H211        0.0822  -25.3440  -49.5407 H         1 UNK         0.0600 
    212 H212        0.6160  -23.0708  -50.4343 H         1 UNK         0.0600 
    213 H213        1.5700  -24.3113  -51.2328 H         1 UNK         0.0600 
    214 H214        0.1938  -23.5982  -52.0621 H         1 UNK         0.0600 
    215 H215       -1.7494  -27.1085  -50.0448 H         1 UNK         0.3000 
    216 H216       -2.4993  -28.9099  -51.0786 H         1 UNK         0.0600 
    217 H217       -0.8794  -30.3947  -52.2084 H         1 UNK         0.0600 
    218 H218        0.2644  -29.0731  -52.3979 H         1 UNK         0.0600 
    219 H219       -0.1370  -29.6736  -50.7895 H         1 UNK         0.0600 
    220 H220       -3.4877  -26.7198  -52.1340 H         1 UNK         0.3000 
    221 H221       -4.5955  -25.7514  -53.7445 H         1 UNK         0.0600 
    222 H222       -4.3997  -28.3815  -55.2962 H         1 UNK         0.0600 
    223 H223       -5.5694  -28.0409  -54.0208 H         1 UNK         0.0600 
    224 H224       -5.6060  -27.1220  -55.5150 H         1 UNK         0.0600 
    225 H225       -1.5384  -25.6936  -53.9390 H         1 UNK         0.3000 
    226 H226       -1.0721  -25.1421  -56.7902 H         1 UNK         0.0600 
    227 H227        0.6788  -26.2303  -55.3426 H         1 UNK         0.0600 
    228 H228        1.2335  -24.7397  -56.0920 H         1 UNK         0.0600 
    229 H229        0.7851  -24.7464  -54.3937 H         1 UNK         0.0600 
    230 H230       -1.8896  -23.3299  -53.8488 H         1 UNK         0.3000 
    231 H231       -0.9970  -20.7507  -54.8766 H         1 UNK         0.0600 
    232 H232       -1.9750  -19.8739  -52.7992 H         1 UNK         0.0600 
    233 H233       -1.0314  -21.3058  -52.4173 H         1 UNK         0.0600 
    234 H234       -2.7909  -21.3946  -52.4767 H         1 UNK         0.0600 
    235 H235       -2.2335  -19.1588  -55.7876 H         1 UNK         0.3000 
    236 H236       -4.5794  -19.7704  -57.2388 H         1 UNK         0.0600 
    237 H237       -2.9393  -18.0327  -57.9175 H         1 UNK         0.0600 
    238 H238       -4.5399  -17.3262  -57.7694 H         1 UNK         0.0600 
    239 H239       -3.3475  -17.0585  -56.5037 H         1 UNK         0.0600 
    240 H240       -4.2095  -18.6758  -53.9642 H         1 UNK         0.3000 
    241 H241       -6.8958  -17.6926  -53.5692 H         1 UNK         0.0600 
    242 H242       -5.8240  -20.9755  -54.0206 H         1 UNK         0.3800 
    243 H243       -7.1981  -21.7007  -53.2264 H         1 UNK         0.3800 
    244 H244       -6.3237  -17.6693  -51.1639 H         1 UNK         0.0800 
    245 H245       -4.8842  -18.6077  -51.4689 H         1 UNK         0.0800 
    246 H246       -2.4370  -15.8015  -51.3392 H         1 UNK         0.0800 
    247 H247       -2.7710  -17.5051  -51.1893 H         1 UNK         0.0800 
@<TRIPOS>BOND
     1    1    2 1    
     2    1  127 1    
     3    1  128 1    
     4    1  129 1    
     5    2    3 2    
     6    2    4 am   BACKBONE|DICT|INTERRES
     7    4    5 1    
     8    4  130 1    
     9    5    6 1    
    10    5   65 1    
    11    5  131 1    
    12    6    7 1    
    13    6  132 1    
    14    6  133 1    
    15    7    8 1    
    16    8    9 1    
    17    8  134 1    
    18    8  135 1    
    19    9   10 ar   
    20    9   14 ar   
    21   10   11 ar   
    22   10  136 1    
    23   11   12 ar   
    24   11  126 1    
    25   12   13 ar   
    26   12  137 1    
    27   13   14 ar   
    28   13   15 1    
    29   14  138 1    
    30   15   16 1    
    31   15  139 1    
    32   15  140 1    
    33   16   17 1    
    34   17   18 1    
    35   17  141 1    
    36   17  142 1    
    37   18   19 1    
    38   18   67 1    
    39   18  143 1    
    40   19   20 am   BACKBONE|DICT|INTERRES
    41   19  144 1    
    42   20   21 2    
    43   20   22 1    
    44   22   23 1    
    45   22   24 1    
    46   22  145 1    
    47   23  146 1    
    48   23  147 1    
    49   23  148 1    
    50   24   25 am   BACKBONE|DICT|INTERRES
    51   24  149 1    
    52   25   26 2    
    53   25   27 1    
    54   27   28 1    
    55   27   29 1    
    56   27  150 1    
    57   28  151 1    
    58   28  152 1    
    59   28  153 1    
    60   29   30 am   BACKBONE|DICT|INTERRES
    61   29  154 1    
    62   30   31 2    
    63   30   32 1    
    64   32   33 1    
    65   32   34 1    
    66   32  155 1    
    67   33  156 1    
    68   33  157 1    
    69   33  158 1    
    70   34   35 am   BACKBONE|DICT|INTERRES
    71   34  159 1    
    72   35   36 2    
    73   35   37 1    
    74   37   38 1    
    75   37   39 1    
    76   37  160 1    
    77   38  161 1    
    78   38  162 1    
    79   38  163 1    
    80   39   40 am   BACKBONE|DICT|INTERRES
    81   39  164 1    
    82   40   41 2    
    83   40   42 1    
    84   42   43 1    
    85   42   44 1    
    86   42  165 1    
    87   43  166 1    
    88   43  167 1    
    89   43  168 1    
    90   44   45 am   BACKBONE|DICT|INTERRES
    91   44  169 1    
    92   45   46 2    
    93   45   47 1    
    94   47   48 1    
    95   47   49 1    
    96   47  170 1    
    97   48  171 1    
    98   48  172 1    
    99   48  173 1    
   100   49   50 am   BACKBONE|DICT|INTERRES
   101   49  174 1    
   102   50   51 2    
   103   50   52 1    
   104   52   53 1    
   105   52   54 1    
   106   52  175 1    
   107   53  176 1    
   108   53  177 1    
   109   53  178 1    
   110   54   55 am   BACKBONE|DICT|INTERRES
   111   54  179 1    
   112   55   56 2    
   113   55   57 1    
   114   57   58 1    
   115   57   59 1    
   116   57  180 1    
   117   58  181 1    
   118   58  182 1    
   119   58  183 1    
   120   59   60 am   BACKBONE|DICT|INTERRES
   121   59  184 1    
   122   60   61 2    
   123   60   62 1    
   124   62   63 1    
   125   62   64 1    
   126   62  185 1    
   127   63  186 1    
   128   63  187 1    
   129   63  188 1    
   130   64   65 am   BACKBONE|DICT|INTERRES
   131   64  189 1    
   132   65   66 2    
   133   67   68 2    
   134   67   69 am   BACKBONE|DICT|INTERRES
   135   69   70 1    
   136   69  190 1    
   137   70   71 1    
   138   70   72 1    
   139   70  191 1    
   140   71  192 1    
   141   71  193 1    
   142   71  194 1    
   143   72   73 2    
   144   72   74 am   BACKBONE|DICT|INTERRES
   145   74   75 1    
   146   74  195 1    
   147   75   76 1    
   148   75   77 1    
   149   75  196 1    
   150   76  197 1    
   151   76  198 1    
   152   76  199 1    
   153   77   78 2    
   154   77   79 am   BACKBONE|DICT|INTERRES
   155   79   80 1    
   156   79  200 1    
   157   80   81 1    
   158   80   82 1    
   159   80  201 1    
   160   81  202 1    
   161   81  203 1    
   162   81  204 1    
   163   82   83 2    
   164   82   84 am   BACKBONE|DICT|INTERRES
   165   84   85 1    
   166   84  205 1    
   167   85   86 1    
   168   85   87 1    
   169   85  206 1    
   170   86  207 1    
   171   86  208 1    
   172   86  209 1    
   173   87   88 2    
   174   87   89 am   BACKBONE|DICT|INTERRES
   175   89   90 1    
   176   89  210 1    
   177   90   91 1    
   178   90   92 1    
   179   90  211 1    
   180   91  212 1    
   181   91  213 1    
   182   91  214 1    
   183   92   93 2    
   184   92   94 am   BACKBONE|DICT|INTERRES
   185   94   95 1    
   186   94  215 1    
   187   95   96 1    
   188   95   97 1    
   189   95  216 1    
   190   96  217 1    
   191   96  218 1    
   192   96  219 1    
   193   97   98 2    
   194   97   99 am   BACKBONE|DICT|INTERRES
   195   99  100 1    
   196   99  220 1    
   197  100  101 1    
   198  100  102 1    
   199  100  221 1    
   200  101  222 1    
   201  101  223 1    
   202  101  224 1    
   203  102  103 2    
   204  102  104 am   BACKBONE|DICT|INTERRES
   205  104  105 1    
   206  104  225 1    
   207  105  106 1    
   208  105  107 1    
   209  105  226 1    
   210  106  227 1    
   211  106  228 1    
   212  106  229 1    
   213  107  108 2    
   214  107  109 am   BACKBONE|DICT|INTERRES
   215  109  110 1    
   216  109  230 1    
   217  110  111 1    
   218  110  112 1    
   219  110  231 1    
   220  111  232 1    
   221  111  233 1    
   222  111  234 1    
   223  112  113 2    
   224  112  114 am   BACKBONE|DICT|INTERRES
   225  114  115 1    
   226  114  235 1    
   227  115  116 1    
   228  115  117 1    
   229  115  236 1    
   230  116  237 1    
   231  116  238 1    
   232  116  239 1    
   233  117  118 2    
   234  117  119 am   BACKBONE|DICT|INTERRES
   235  119  120 1    
   236  119  240 1    
   237  120  121 1    
   238  120  124 1    
   239  120  241 1    
   240  121  122 am   BACKBONE|DICT|INTERRES
   241  121  123 2    
   242  122  242 1    
   243  122  243 1    
   244  124  125 1    
   245  124  244 1    
   246  124  245 1    
   247  125  126 1    
   248  126  246 1    
   249  126  247 1    
@<TRIPOS>SUBSTRUCTURE
     1 UNK         1 GROUP             0       ****    0 ROOT    
