@<TRIPOS>MOLECULE
3R540
247   249    1
SMALL
USER_CHARGES


@<TRIPOS>ATOM
      1 CA          7.3866   -9.9971  -48.6724 C.3       0 UNK        -0.1800 
      2 C           6.8455  -11.3949  -48.4067 C.2       0 UNK         0.5000 
      3 O           7.5681  -12.2426  -47.8819 O.2       0 UNK        -0.5000 
      4 N           5.5812  -11.6410  -48.7716 N.am      1 UNK        -0.5000 
      5 CA          4.8706  -12.8984  -48.5386 C.3       1 UNK         0.1400 
      6 C6          3.6640  -13.0450  -49.4987 C.3       23 UNK        -0.0398 
      7 S7          2.8640  -14.6856  -49.4256 S.3       23 UNK        -0.2404 
      8 C8          1.5380  -14.4282  -50.6444 C.3       23 UNK        -0.0205 
      9 C9          0.5432  -15.5812  -50.6939 C.ar      23 UNK        -0.0193 
     10 C10         0.3808  -16.3121  -51.8739 C.ar      23 UNK        -0.1150 
     11 C11        -0.5888  -17.3142  -51.9620 C.ar      23 UNK        -0.0193 
     12 C12        -1.3791  -17.6104  -50.8471 C.ar      23 UNK        -0.1150 
     13 C13        -1.2331  -16.8851  -49.6630 C.ar      23 UNK        -0.0193 
     14 C14        -0.2684  -15.8741  -49.5919 C.ar      23 UNK        -0.1150 
     15 C15        -2.1511  -17.1567  -48.4804 C.3       23 UNK        -0.0205 
     16 S16        -1.4697  -18.4289  -47.3775 S.3       23 UNK        -0.2404 
     17 C17        -2.5298  -19.8856  -47.6897 C.3       23 UNK        -0.0398 
     18 CA         -1.7774  -21.2346  -47.5306 C.3       11 UNK         0.1400 
     19 N          -0.9353  -21.2762  -46.3308 N.am      11 UNK        -0.5000 
     20 C           0.0107  -22.1922  -46.0825 C.2       10 UNK         0.5000 
     21 O           0.2727  -23.1287  -46.8373 O.2       10 UNK        -0.5000 
     22 CA          0.7608  -22.0580  -44.7440 C.3       10 UNK         0.1400 
     23 CB          1.9987  -21.1646  -44.9124 C.3       10 UNK        -0.1800 
     24 N          -0.0847  -21.5319  -43.6685 N.am      10 UNK        -0.5000 
     25 C          -1.1533  -22.1723  -43.1667 C.2       9 UNK         0.5000 
     26 O          -1.5196  -23.2797  -43.5553 O.2       9 UNK        -0.5000 
     27 CA         -1.9885  -21.4515  -42.0906 C.3       9 UNK         0.1400 
     28 CB         -1.5155  -21.8552  -40.6868 C.3       9 UNK        -0.1800 
     29 N          -1.9554  -19.9950  -42.2069 N.am      9 UNK        -0.5000 
     30 C          -2.3719  -19.2948  -43.2708 C.2       8 UNK         0.5000 
     31 O          -2.9266  -19.8040  -44.2457 O.2       8 UNK        -0.5000 
     32 CA         -2.0699  -17.7839  -43.2675 C.3       8 UNK         0.1400 
     33 CB         -3.3189  -16.9828  -42.8731 C.3       8 UNK        -0.1800 
     34 N          -0.9527  -17.3830  -42.4011 N.am      8 UNK        -0.5000 
     35 C           0.3143  -17.8066  -42.5019 C.2       7 UNK         0.5000 
     36 O           0.6725  -18.6741  -43.2993 O.2       7 UNK        -0.5000 
     37 CA          1.3421  -17.1669  -41.5432 C.3       7 UNK         0.1400 
     38 CB          2.7861  -17.6353  -41.8061 C.3       7 UNK        -0.1800 
     39 N           1.3101  -15.6998  -41.5453 N.am      7 UNK        -0.5000 
     40 C           0.4327  -14.9611  -40.8528 C.2       6 UNK         0.5000 
     41 O          -0.5422  -15.4428  -40.2733 O.2       6 UNK        -0.5000 
     42 CA          0.6855  -13.4507  -40.7529 C.3       6 UNK         0.1400 
     43 CB          1.7206  -13.1570  -39.6498 C.3       6 UNK        -0.1800 
     44 N           1.1041  -12.8424  -42.0168 N.am      6 UNK        -0.5000 
     45 C           0.9605  -11.5360  -42.2839 C.2       5 UNK         0.5000 
     46 O           0.4388  -10.7328  -41.5084 O.2       5 UNK        -0.5000 
     47 CA          1.4839  -11.0249  -43.6381 C.3       5 UNK         0.1400 
     48 CB          2.9945  -10.7598  -43.5630 C.3       5 UNK        -0.1800 
     49 N           1.1955  -11.9233  -44.7548 N.am      5 UNK        -0.5000 
     50 C          -0.0351  -12.1924  -45.2148 C.2       4 UNK         0.5000 
     51 O          -1.0682  -11.7346  -44.7252 O.2       4 UNK        -0.5000 
     52 CA         -0.1271  -13.1211  -46.4361 C.3       4 UNK         0.1400 
     53 CB          0.0187  -12.3153  -47.7345 C.3       4 UNK        -0.1800 
     54 N           0.8816  -14.1803  -46.3846 N.am      4 UNK        -0.5000 
     55 C           0.7376  -15.2929  -45.6515 C.2       3 UNK         0.5000 
     56 O          -0.2928  -15.5666  -45.0412 O.2       3 UNK        -0.5000 
     57 CA          1.9553  -16.2294  -45.5332 C.3       3 UNK         0.1400 
     58 CB          1.9663  -17.2988  -46.6328 C.3       3 UNK        -0.1800 
     59 N           3.2272  -15.5153  -45.5451 N.am      3 UNK        -0.5000 
     60 C           3.6605  -14.7020  -44.5722 C.2       2 UNK         0.5000 
     61 O           3.0408  -14.4860  -43.5285 O.2       2 UNK        -0.5000 
     62 CA          4.9971  -13.9813  -44.8359 C.3       2 UNK         0.1400 
     63 CB          6.1634  -14.7930  -44.2546 C.3       2 UNK        -0.1800 
     64 N           5.2471  -13.7233  -46.2580 N.am      2 UNK        -0.5000 
     65 C           4.4606  -12.9864  -47.0546 C.2       1 UNK         0.5000 
     66 O           3.4443  -12.4081  -46.6623 O.2       1 UNK        -0.5000 
     67 C          -2.7702  -22.4179  -47.5522 C.2       11 UNK         0.5000 
     68 O          -3.0762  -22.9477  -48.6223 O.2       11 UNK        -0.5000 
     69 N          -3.2388  -22.8123  -46.3590 N.am      12 UNK        -0.5000 
     70 CA         -4.0929  -23.9745  -46.1349 C.3       12 UNK         0.1400 
     71 CB         -4.8583  -23.7993  -44.8149 C.3       12 UNK        -0.1800 
     72 C          -3.2845  -25.2836  -46.1319 C.2       12 UNK         0.5000 
     73 O          -3.7228  -26.2627  -46.7342 O.2       12 UNK        -0.5000 
     74 N          -2.1121  -25.2778  -45.4788 N.am      13 UNK        -0.5000 
     75 CA         -1.2087  -26.4273  -45.3540 C.3       13 UNK         0.1400 
     76 CB         -0.0461  -26.0751  -44.4155 C.3       13 UNK        -0.1800 
     77 C          -0.6692  -26.9457  -46.6991 C.2       13 UNK         0.5000 
     78 O          -0.4273  -28.1463  -46.8303 O.2       13 UNK        -0.5000 
     79 N          -0.5467  -26.0553  -47.6926 N.am      14 UNK        -0.5000 
     80 CA         -0.2071  -26.3530  -49.0867 C.3       14 UNK         0.1400 
     81 CB          0.2625  -25.0485  -49.7561 C.3       14 UNK        -0.1800 
     82 C          -1.3712  -27.0226  -49.8576 C.2       14 UNK         0.5000 
     83 O          -1.7166  -26.5816  -50.9548 O.2       14 UNK        -0.5000 
     84 N          -1.9875  -28.0503  -49.2520 N.am      15 UNK        -0.5000 
     85 CA         -3.1323  -28.8414  -49.7298 C.3       15 UNK         0.1400 
     86 CB         -2.6904  -29.7447  -50.8995 C.3       15 UNK        -0.1800 
     87 C          -4.3791  -27.9970  -50.0831 C.2       15 UNK         0.5000 
     88 O          -5.1763  -28.4023  -50.9303 O.2       15 UNK        -0.5000 
     89 N          -4.4883  -26.8117  -49.4643 N.am      16 UNK        -0.5000 
     90 CA         -5.4101  -25.7079  -49.7523 C.3       16 UNK         0.1400 
     91 CB         -6.8591  -26.1013  -49.4057 C.3       16 UNK        -0.1800 
     92 C          -5.2916  -25.1211  -51.1773 C.2       16 UNK         0.5000 
     93 O          -6.1169  -24.2876  -51.5506 O.2       16 UNK        -0.5000 
     94 N          -4.2753  -25.5318  -51.9497 N.am      17 UNK        -0.5000 
     95 CA         -4.0833  -25.1430  -53.3443 C.3       17 UNK         0.1400 
     96 CB         -3.0627  -26.0789  -54.0083 C.3       17 UNK        -0.1800 
     97 C          -3.6512  -23.6779  -53.4746 C.2       17 UNK         0.5000 
     98 O          -4.1450  -22.9806  -54.3585 O.2       17 UNK        -0.5000 
     99 N          -2.7772  -23.2251  -52.5649 N.am      18 UNK        -0.5000 
    100 CA        -2.3472  -21.8311  -52.4702 C.3       18 UNK         0.1400 
    101 CB        -1.1657  -21.7174  -51.4971 C.3       18 UNK        -0.1800 
    102 C         -3.5049  -20.9039  -52.0635 C.2       18 UNK         0.5000 
    103 O         -3.6922  -19.8612  -52.6892 O.2       18 UNK        -0.5000 
    104 N         -4.2940  -21.3253  -51.0644 N.am      19 UNK        -0.5000 
    105 CA        -5.5090  -20.6340  -50.6297 C.3       19 UNK         0.1400 
    106 CB        -6.0863  -21.3293  -49.3867 C.3       19 UNK        -0.1800 
    107 C         -6.5667  -20.5240  -51.7455 C.2       19 UNK         0.5000 
    108 O         -7.1370  -19.4495  -51.9331 O.2       19 UNK        -0.5000 
    109 N         -6.7816  -21.6181  -52.4892 N.am      20 UNK        -0.5000 
    110 CA        -7.6902  -21.6714  -53.6347 C.3       20 UNK         0.1400 
    111 CB        -7.8749  -23.1310  -54.0773 C.3       20 UNK        -0.1800 
    112 C         -7.2281  -20.7991  -54.8174 C.2       20 UNK         0.5000 
    113 O         -8.0589  -20.1266  -55.4294 O.2       20 UNK        -0.5000 
    114 N         -5.9229  -20.8266  -55.1201 N.am      21 UNK        -0.5000 
    115 CA        -5.3126  -20.0756  -56.2162 C.3       21 UNK         0.1400 
    116 CB        -3.9002  -20.6152  -56.4940 C.3       21 UNK        -0.1800 
    117 C         -5.2695  -18.5615  -55.9545 C.2       21 UNK         0.5000 
    118 O         -5.6918  -17.7873  -56.8152 O.2       21 UNK        -0.5000 
    119 N         -4.7438  -18.1689  -54.7886 N.am      22 UNK        -0.5000 
    120 CA        -4.5335  -16.7612  -54.4176 C.3       22 UNK         0.1400 
    121 C         -5.7573  -16.0900  -53.7324 C.2       22 UNK         0.5000 
    122 N         -6.7463  -16.8249  -53.2407 N.am      22 UNK        -0.7600 
    123 O         -5.8191  -14.8657  -53.6589 O.2       22 UNK        -0.5000 
    124 C124       -3.2553  -16.5826  -53.5644 C.3       23 UNK        -0.0398 
    125 S125       -1.7290  -17.0164  -54.4769 S.3       23 UNK        -0.2404 
    126 C126       -0.8128  -18.0418  -53.2788 C.3       23 UNK        -0.0205 
    127 H127        8.2566  -10.0497  -49.3270 H         1 UNK         0.0600 
    128 H128        7.6907   -9.5288  -47.7363 H         1 UNK         0.0600 
    129 H129        6.6423   -9.3571  -49.1468 H         1 UNK         0.0600 
    130 H130        5.0309  -10.8941  -49.1716 H         1 UNK         0.3000 
    131 H131        5.5563  -13.7205  -48.7566 H         1 UNK         0.0600 
    132 H132        3.9986  -12.8905  -50.5256 H         1 UNK         0.0800 
    133 H133        2.9184  -12.2719  -49.3067 H         1 UNK         0.0800 
    134 H134        1.9948  -14.2755  -51.6235 H         1 UNK         0.0800 
    135 H135        1.0012  -13.5076  -50.4188 H         1 UNK         0.0800 
    136 H136        0.9816  -16.0775  -52.7414 H         1 UNK         0.1150 
    137 H137       -2.1344  -18.3804  -50.9110 H         1 UNK         0.1150 
    138 H138       -0.1599  -15.3040  -48.6817 H         1 UNK         0.1150 
    139 H139       -2.2849  -16.2402  -47.9034 H         1 UNK         0.0800 
    140 H140       -3.1463  -17.4399  -48.8262 H         1 UNK         0.0800 
    141 H141       -2.9507  -19.8174  -48.6942 H         1 UNK         0.0800 
    142 H142       -3.3722  -19.8254  -46.9979 H         1 UNK         0.0800 
    143 H143       -1.1112  -21.3457  -48.3873 H         1 UNK         0.0600 
    144 H144       -1.1004  -20.5469  -45.6503 H         1 UNK         0.3000 
    145 H145        1.1006  -23.0505  -44.4454 H         1 UNK         0.0600 
    146 H146        2.5459  -21.0637  -43.9750 H         1 UNK         0.0600 
    147 H147        2.6851  -21.5856  -45.6480 H         1 UNK         0.0600 
    148 H148        1.7299  -20.1641  -45.2526 H         1 UNK         0.0600 
    149 H149        0.1339  -20.5945  -43.3440 H         1 UNK         0.3000 
    150 H150       -3.0255  -21.7718  -42.2109 H         1 UNK         0.0600 
    151 H151       -1.5508  -22.9381  -40.5596 H         1 UNK         0.0600 
    152 H152       -2.1497  -21.4181  -39.9152 H         1 UNK         0.0600 
    153 H153       -0.4893  -21.5359  -40.5006 H         1 UNK         0.0600 
    154 H154       -1.5096  -19.4895  -41.4560 H         1 UNK         0.3000 
    155 H155       -1.8053  -17.5204  -44.2923 H         1 UNK         0.0600 
    156 H156       -3.6125  -17.1786  -41.8411 H         1 UNK         0.0600 
    157 H157       -4.1657  -17.2378  -43.5118 H         1 UNK         0.0600 
    158 H158       -3.1462  -15.9113  -42.9772 H         1 UNK         0.0600 
    159 H159       -1.1464  -16.6716  -41.7039 H         1 UNK         0.3000 
    160 H160        1.0783  -17.5156  -40.5424 H         1 UNK         0.0600 
    161 H161        3.1530  -17.3124  -42.7794 H         1 UNK         0.0600 
    162 H162        2.8599  -18.7230  -41.7719 H         1 UNK         0.0600 
    163 H163        3.4673  -17.2440  -41.0504 H         1 UNK         0.0600 
    164 H164        2.0559  -15.2400  -42.0588 H         1 UNK         0.3000 
    165 H165       -0.2658  -13.0043  -40.4543 H         1 UNK         0.0600 
    166 H166        1.8019  -12.0883  -39.4520 H         1 UNK         0.0600 
    167 H167        1.4408  -13.6365  -38.7108 H         1 UNK         0.0600 
    168 H168        2.7109  -13.5224  -39.9241 H         1 UNK         0.0600 
    169 H169        1.5594  -13.4413  -42.6983 H         1 UNK         0.3000 
    170 H170        0.9885  -10.0749  -43.8494 H         1 UNK         0.0600 
    171 H171        3.2127   -9.9727  -42.8404 H         1 UNK         0.0600 
    172 H172        3.5395  -11.6477  -43.2461 H         1 UNK         0.0600 
    173 H173        3.3941  -10.4393  -44.5255 H         1 UNK         0.0600 
    174 H174        1.9929  -12.2878  -45.2646 H         1 UNK         0.3000 
    175 H175       -1.1228  -13.5704  -46.4373 H         1 UNK         0.0600 
    176 H176        1.0249  -11.9142  -47.8539 H         1 UNK         0.0600 
    177 H177       -0.2121  -12.9299  -48.6017 H         1 UNK         0.0600 
    178 H178       -0.6733  -11.4723  -47.7508 H         1 UNK         0.0600 
    179 H179        1.7703  -13.9895  -46.8269 H         1 UNK         0.3000 
    180 H180        1.8845  -16.7408  -44.5773 H         1 UNK         0.0600 
    181 H181        2.8856  -17.8841  -46.6121 H         1 UNK         0.0600 
    182 H182        1.8611  -16.8673  -47.6281 H         1 UNK         0.0600 
    183 H183        1.1466  -17.9988  -46.4849 H         1 UNK         0.0600 
    184 H184        3.8021  -15.6275  -46.3669 H         1 UNK         0.3000 
    185 H185        4.9671  -13.0185  -44.3260 H         1 UNK         0.0600 
    186 H186        7.1079  -14.2592  -44.3621 H         1 UNK         0.0600 
    187 H187        6.0165  -14.9799  -43.1898 H         1 UNK         0.0600 
    188 H188        6.2660  -15.7610  -44.7468 H         1 UNK         0.0600 
    189 H189        6.0918  -14.1200  -46.6462 H         1 UNK         0.3000 
    190 H190       -2.9209  -22.3197  -45.5359 H         1 UNK         0.3000 
    191 H191       -4.8276  -24.0295  -46.9398 H         1 UNK         0.0600 
    192 H192       -5.5266  -24.6429  -44.6380 H         1 UNK         0.0600 
    193 H193       -5.4706  -22.8975  -44.8323 H         1 UNK         0.0600 
    194 H194       -4.1852  -23.7296  -43.9599 H         1 UNK         0.0600 
    195 H195       -1.8533  -24.4496  -44.9480 H         1 UNK         0.3000 
    196 H196       -1.7782  -27.2393  -44.8975 H         1 UNK         0.0600 
    197 H197        0.5637  -25.2697  -44.8231 H         1 UNK         0.0600 
    198 H198       -0.4063  -25.7662  -43.4343 H         1 UNK         0.0600 
    199 H199        0.6074  -26.9351  -44.2641 H         1 UNK         0.0600 
    200 H200       -0.7309  -25.0834  -47.4772 H         1 UNK         0.3000 
    201 H201        0.6284  -27.0555  -49.0975 H         1 UNK         0.0600 
    202 H202       -0.5311  -24.3007  -49.7694 H         1 UNK         0.0600 
    203 H203        0.5740  -25.2208  -50.7871 H         1 UNK         0.0600 
    204 H204        1.1146  -24.6193  -49.2286 H         1 UNK         0.0600 
    205 H205       -1.6206  -28.3179  -48.3432 H         1 UNK         0.3000 
    206 H206       -3.4274  -29.4862  -48.9010 H         1 UNK         0.0600 
    207 H207       -1.8195  -30.3418  -50.6293 H         1 UNK         0.0600 
    208 H208       -3.4819  -30.4397  -51.1821 H         1 UNK         0.0600 
    209 H209       -2.4351  -29.1606  -51.7845 H         1 UNK         0.0600 
    210 H210       -3.8276  -26.6214  -48.7179 H         1 UNK         0.3000 
    211 H211       -5.1199  -24.8983  -49.0835 H         1 UNK         0.0600 
    212 H212       -7.5276  -25.2428  -49.4810 H         1 UNK         0.0600 
    213 H213       -6.9305  -26.4772  -48.3851 H         1 UNK         0.0600 
    214 H214       -7.2409  -26.8715  -50.0761 H         1 UNK         0.0600 
    215 H215       -3.5778  -26.1545  -51.5552 H         1 UNK         0.3000 
    216 H216       -5.0371  -25.2600  -53.8632 H         1 UNK         0.0600 
    217 H217       -2.0746  -25.9878  -53.5561 H         1 UNK         0.0600 
    218 H218       -2.9589  -25.8498  -55.0696 H         1 UNK         0.0600 
    219 H219       -3.3726  -27.1210  -53.9279 H         1 UNK         0.0600 
    220 H220       -2.4323  -23.8679  -51.8662 H         1 UNK         0.3000 
    221 H221       -2.0032  -21.5138  -53.4569 H         1 UNK         0.0600 
    222 H222       -0.2956  -22.2560  -51.8730 H         1 UNK         0.0600 
    223 H223       -1.4131  -22.1303  -50.5217 H         1 UNK         0.0600 
    224 H224       -0.8674  -20.6787  -51.3510 H         1 UNK         0.0600 
    225 H225       -4.0625  -22.1868  -50.5879 H         1 UNK         0.3000 
    226 H226       -5.2265  -19.6177  -50.3469 H         1 UNK         0.0600 
    227 H227       -6.3138  -22.3783  -49.5775 H         1 UNK         0.0600 
    228 H228       -5.3907  -21.2840  -48.5496 H         1 UNK         0.0600 
    229 H229       -7.0097  -20.8471  -49.0634 H         1 UNK         0.0600 
    230 H230       -6.3180  -22.4863  -52.2369 H         1 UNK         0.3000 
    231 H231       -8.6613  -21.2949  -53.3067 H         1 UNK         0.0600 
    232 H232       -6.9297  -23.5820  -54.3809 H         1 UNK         0.0600 
    233 H233       -8.5597  -23.2001  -54.9234 H         1 UNK         0.0600 
    234 H234       -8.2907  -23.7370  -53.2722 H         1 UNK         0.0600 
    235 H235       -5.3098  -21.4517  -54.6047 H         1 UNK         0.3000 
    236 H236       -5.9134  -20.2403  -57.1132 H         1 UNK         0.0600 
    237 H237       -3.9315  -21.6627  -56.7938 H         1 UNK         0.0600 
    238 H238       -3.4205  -20.0607  -57.3014 H         1 UNK         0.0600 
    239 H239       -3.2586  -20.5375  -55.6152 H         1 UNK         0.0600 
    240 H240       -4.4192  -18.8625  -54.1191 H         1 UNK         0.3000 
    241 H241       -4.3738  -16.1890  -55.3338 H         1 UNK         0.0600 
    242 H242       -7.5305  -16.3630  -52.8092 H         1 UNK         0.3800 
    243 H243       -6.6996  -17.8357  -53.2171 H         1 UNK         0.3800 
    244 H244       -3.3415  -17.1835  -52.6602 H         1 UNK         0.0800 
    245 H245       -3.1474  -15.5482  -53.2333 H         1 UNK         0.0800 
    246 H246        0.1510  -18.3133  -53.7113 H         1 UNK         0.0800 
    247 H247       -1.3444  -18.9776  -53.1213 H         1 UNK         0.0800 
@<TRIPOS>BOND
     1    1    2 1    
     2    1  127 1    
     3    1  128 1    
     4    1  129 1    
     5    2    3 2    
     6    2    4 am   BACKBONE|DICT|INTERRES
     7    4    5 1    
     8    4  130 1    
     9    5    6 1    
    10    5   65 1    
    11    5  131 1    
    12    6    7 1    
    13    6  132 1    
    14    6  133 1    
    15    7    8 1    
    16    8    9 1    
    17    8  134 1    
    18    8  135 1    
    19    9   10 ar   
    20    9   14 ar   
    21   10   11 ar   
    22   10  136 1    
    23   11   12 ar   
    24   11  126 1    
    25   12   13 ar   
    26   12  137 1    
    27   13   14 ar   
    28   13   15 1    
    29   14  138 1    
    30   15   16 1    
    31   15  139 1    
    32   15  140 1    
    33   16   17 1    
    34   17   18 1    
    35   17  141 1    
    36   17  142 1    
    37   18   19 1    
    38   18   67 1    
    39   18  143 1    
    40   19   20 am   BACKBONE|DICT|INTERRES
    41   19  144 1    
    42   20   21 2    
    43   20   22 1    
    44   22   23 1    
    45   22   24 1    
    46   22  145 1    
    47   23  146 1    
    48   23  147 1    
    49   23  148 1    
    50   24   25 am   BACKBONE|DICT|INTERRES
    51   24  149 1    
    52   25   26 2    
    53   25   27 1    
    54   27   28 1    
    55   27   29 1    
    56   27  150 1    
    57   28  151 1    
    58   28  152 1    
    59   28  153 1    
    60   29   30 am   BACKBONE|DICT|INTERRES
    61   29  154 1    
    62   30   31 2    
    63   30   32 1    
    64   32   33 1    
    65   32   34 1    
    66   32  155 1    
    67   33  156 1    
    68   33  157 1    
    69   33  158 1    
    70   34   35 am   BACKBONE|DICT|INTERRES
    71   34  159 1    
    72   35   36 2    
    73   35   37 1    
    74   37   38 1    
    75   37   39 1    
    76   37  160 1    
    77   38  161 1    
    78   38  162 1    
    79   38  163 1    
    80   39   40 am   BACKBONE|DICT|INTERRES
    81   39  164 1    
    82   40   41 2    
    83   40   42 1    
    84   42   43 1    
    85   42   44 1    
    86   42  165 1    
    87   43  166 1    
    88   43  167 1    
    89   43  168 1    
    90   44   45 am   BACKBONE|DICT|INTERRES
    91   44  169 1    
    92   45   46 2    
    93   45   47 1    
    94   47   48 1    
    95   47   49 1    
    96   47  170 1    
    97   48  171 1    
    98   48  172 1    
    99   48  173 1    
   100   49   50 am   BACKBONE|DICT|INTERRES
   101   49  174 1    
   102   50   51 2    
   103   50   52 1    
   104   52   53 1    
   105   52   54 1    
   106   52  175 1    
   107   53  176 1    
   108   53  177 1    
   109   53  178 1    
   110   54   55 am   BACKBONE|DICT|INTERRES
   111   54  179 1    
   112   55   56 2    
   113   55   57 1    
   114   57   58 1    
   115   57   59 1    
   116   57  180 1    
   117   58  181 1    
   118   58  182 1    
   119   58  183 1    
   120   59   60 am   BACKBONE|DICT|INTERRES
   121   59  184 1    
   122   60   61 2    
   123   60   62 1    
   124   62   63 1    
   125   62   64 1    
   126   62  185 1    
   127   63  186 1    
   128   63  187 1    
   129   63  188 1    
   130   64   65 am   BACKBONE|DICT|INTERRES
   131   64  189 1    
   132   65   66 2    
   133   67   68 2    
   134   67   69 am   BACKBONE|DICT|INTERRES
   135   69   70 1    
   136   69  190 1    
   137   70   71 1    
   138   70   72 1    
   139   70  191 1    
   140   71  192 1    
   141   71  193 1    
   142   71  194 1    
   143   72   73 2    
   144   72   74 am   BACKBONE|DICT|INTERRES
   145   74   75 1    
   146   74  195 1    
   147   75   76 1    
   148   75   77 1    
   149   75  196 1    
   150   76  197 1    
   151   76  198 1    
   152   76  199 1    
   153   77   78 2    
   154   77   79 am   BACKBONE|DICT|INTERRES
   155   79   80 1    
   156   79  200 1    
   157   80   81 1    
   158   80   82 1    
   159   80  201 1    
   160   81  202 1    
   161   81  203 1    
   162   81  204 1    
   163   82   83 2    
   164   82   84 am   BACKBONE|DICT|INTERRES
   165   84   85 1    
   166   84  205 1    
   167   85   86 1    
   168   85   87 1    
   169   85  206 1    
   170   86  207 1    
   171   86  208 1    
   172   86  209 1    
   173   87   88 2    
   174   87   89 am   BACKBONE|DICT|INTERRES
   175   89   90 1    
   176   89  210 1    
   177   90   91 1    
   178   90   92 1    
   179   90  211 1    
   180   91  212 1    
   181   91  213 1    
   182   91  214 1    
   183   92   93 2    
   184   92   94 am   BACKBONE|DICT|INTERRES
   185   94   95 1    
   186   94  215 1    
   187   95   96 1    
   188   95   97 1    
   189   95  216 1    
   190   96  217 1    
   191   96  218 1    
   192   96  219 1    
   193   97   98 2    
   194   97   99 am   BACKBONE|DICT|INTERRES
   195   99  100 1    
   196   99  220 1    
   197  100  101 1    
   198  100  102 1    
   199  100  221 1    
   200  101  222 1    
   201  101  223 1    
   202  101  224 1    
   203  102  103 2    
   204  102  104 am   BACKBONE|DICT|INTERRES
   205  104  105 1    
   206  104  225 1    
   207  105  106 1    
   208  105  107 1    
   209  105  226 1    
   210  106  227 1    
   211  106  228 1    
   212  106  229 1    
   213  107  108 2    
   214  107  109 am   BACKBONE|DICT|INTERRES
   215  109  110 1    
   216  109  230 1    
   217  110  111 1    
   218  110  112 1    
   219  110  231 1    
   220  111  232 1    
   221  111  233 1    
   222  111  234 1    
   223  112  113 2    
   224  112  114 am   BACKBONE|DICT|INTERRES
   225  114  115 1    
   226  114  235 1    
   227  115  116 1    
   228  115  117 1    
   229  115  236 1    
   230  116  237 1    
   231  116  238 1    
   232  116  239 1    
   233  117  118 2    
   234  117  119 am   BACKBONE|DICT|INTERRES
   235  119  120 1    
   236  119  240 1    
   237  120  121 1    
   238  120  124 1    
   239  120  241 1    
   240  121  122 am   BACKBONE|DICT|INTERRES
   241  121  123 2    
   242  122  242 1    
   243  122  243 1    
   244  124  125 1    
   245  124  244 1    
   246  124  245 1    
   247  125  126 1    
   248  126  246 1    
   249  126  247 1    
@<TRIPOS>SUBSTRUCTURE
     1 UNK         1 GROUP             0       ****    0 ROOT    
