@<TRIPOS>MOLECULE
3R540
247   249    1
SMALL
USER_CHARGES


@<TRIPOS>ATOM
      1 CA          6.9140  -11.4317  -49.3196 C.3       0 UNK        -0.1800 
      2 C           5.6686  -11.7988  -48.5246 C.2       0 UNK         0.5000 
      3 O           5.7800  -12.3979  -47.4546 O.2       0 UNK        -0.5000 
      4 N           4.4865  -11.4511  -49.0475 N.am      1 UNK        -0.5000 
      5 CA          3.1881  -11.6706  -48.4046 C.3       1 UNK         0.1400 
      6 C6          2.0131  -11.4422  -49.3884 C.3       23 UNK        -0.0398 
      7 S7          1.7614  -12.8698  -50.4957 S.3       23 UNK        -0.2404 
      8 C8          0.4161  -13.6990  -49.5948 C.3       23 UNK        -0.0205 
      9 C9         -0.0391  -14.9803  -50.2731 C.ar      23 UNK        -0.0193 
     10 C10        -1.1424  -14.9695  -51.1322 C.ar      23 UNK        -0.1150 
     11 C11        -1.6336  -16.1608  -51.6762 C.ar      23 UNK        -0.0193 
     12 C12        -1.0016  -17.3667  -51.3582 C.ar      23 UNK        -0.1150 
     13 C13         0.1139  -17.3893  -50.5164 C.ar      23 UNK        -0.0193 
     14 C14         0.5980  -16.1901  -49.9854 C.ar      23 UNK        -0.1150 
     15 C15         0.7536  -18.7208  -50.1417 C.3       23 UNK        -0.0205 
     16 S16         0.7507  -19.0283  -48.3429 S.3       23 UNK        -0.2404 
     17 C17        -0.9905  -18.7318  -47.8792 C.3       23 UNK        -0.0398 
     18 CA         -1.7436  -19.9885  -47.3915 C.3       11 UNK         0.1400 
     19 N          -1.0615  -20.6795  -46.2958 N.am      11 UNK        -0.5000 
     20 C          -1.3338  -21.9230  -45.8830 C.2       10 UNK         0.5000 
     21 O          -2.0899  -22.6858  -46.4895 O.2       10 UNK        -0.5000 
     22 CA         -0.7003  -22.3462  -44.5409 C.3       10 UNK         0.1400 
     23 CB         -0.6313  -23.8757  -44.3553 C.3       10 UNK        -0.1800 
     24 N           0.5954  -21.7028  -44.2947 N.am      10 UNK        -0.5000 
     25 C           1.7485  -21.9179  -44.9464 C.2       9 UNK         0.5000 
     26 O           1.8979  -22.7775  -45.8138 O.2       9 UNK        -0.5000 
     27 CA          2.9448  -21.0158  -44.5853 C.3       9 UNK         0.1400 
     28 CB          3.2464  -20.0471  -45.7387 C.3       9 UNK        -0.1800 
     29 N           2.7517  -20.2404  -43.3583 N.am      9 UNK        -0.5000 
     30 C           2.8496  -20.7367  -42.1184 C.2       8 UNK         0.5000 
     31 O           3.1213  -21.9124  -41.8721 O.2       8 UNK        -0.5000 
     32 CA          2.5844  -19.7596  -40.9579 C.3       8 UNK         0.1400 
     33 CB          3.8467  -18.9430  -40.6422 C.3       8 UNK        -0.1800 
     34 N           1.4635  -18.8483  -41.2025 N.am      8 UNK        -0.5000 
     35 C           0.1844  -19.2278  -41.3378 C.2       7 UNK         0.5000 
     36 O          -0.1900  -20.4003  -41.3086 O.2       7 UNK        -0.5000 
     37 CA         -0.8484  -18.1124  -41.5801 C.3       7 UNK         0.1400 
     38 CB         -1.1331  -17.3258  -40.2919 C.3       7 UNK        -0.1800 
     39 N          -0.4281  -17.1963  -42.6376 N.am      7 UNK        -0.5000 
     40 C          -0.3280  -17.5380  -43.9288 C.2       6 UNK         0.5000 
     41 O          -0.6756  -18.6330  -44.3738 O.2       6 UNK        -0.5000 
     42 CA          0.2838  -16.4967  -44.8818 C.3       6 UNK         0.1400 
     43 CB         -0.7955  -15.5309  -45.3939 C.3       6 UNK        -0.1800 
     44 N           1.3728  -15.7341  -44.2739 N.am      6 UNK        -0.5000 
     45 C           2.5299  -16.2590  -43.8474 C.2       5 UNK         0.5000 
     46 O           2.8157  -17.4514  -43.9347 O.2       5 UNK        -0.5000 
     47 CA          3.5080  -15.2992  -43.1520 C.3       5 UNK         0.1400 
     48 CB          4.2676  -14.4436  -44.1775 C.3       5 UNK        -0.1800 
     49 N           2.8290  -14.4367  -42.1856 N.am      5 UNK        -0.5000 
     50 C           2.2560  -14.8727  -41.0545 C.2       4 UNK         0.5000 
     51 O           2.2598  -16.0493  -40.6930 O.2       4 UNK        -0.5000 
     52 CA          1.5206  -13.8206  -40.2061 C.3       4 UNK         0.1400 
     53 CB          2.5061  -13.0700  -39.2982 C.3       4 UNK        -0.1800 
     54 N           0.7845  -12.8580  -41.0267 N.am      4 UNK        -0.5000 
     55 C          -0.2930  -13.1637  -41.7631 C.2       3 UNK         0.5000 
     56 O          -0.7944  -14.2872  -41.8118 O.2       3 UNK        -0.5000 
     57 CA         -0.8711  -12.0295  -42.6302 C.3       3 UNK         0.1400 
     58 CB         -1.7639  -11.1031  -41.7908 C.3       3 UNK        -0.1800 
     59 N           0.1605  -11.2355  -43.3087 N.am      3 UNK        -0.5000 
     60 C           1.0166  -11.7356  -44.2079 C.2       2 UNK         0.5000 
     61 O           1.0543  -12.9291  -44.5204 O.2       2 UNK        -0.5000 
     62 CA          2.0097  -10.7629  -44.8580 C.3       2 UNK         0.1400 
     63 CB          3.2290  -10.5282  -43.9480 C.3       2 UNK        -0.1800 
     64 N           2.4192  -11.3726  -46.1162 N.am      2 UNK        -0.5000 
     65 C           3.0187  -10.7840  -47.1530 C.2       1 UNK         0.5000 
     66 O           3.3784   -9.6043  -47.1703 O.2       1 UNK        -0.5000 
     67 C          -3.1651  -19.5863  -46.9584 C.2       11 UNK         0.5000 
     68 O          -4.0918  -19.6753  -47.7612 O.2       11 UNK        -0.5000 
     69 N          -3.3178  -19.1957  -45.6828 N.am      12 UNK        -0.5000 
     70 CA         -4.5944  -18.8391  -45.0555 C.3       12 UNK         0.1400 
     71 CB         -4.3179  -18.2830  -43.6506 C.3       12 UNK        -0.1800 
     72 C          -5.5883  -20.0172  -44.9861 C.2       12 UNK         0.5000 
     73 O          -6.7990  -19.7995  -45.0280 O.2       12 UNK        -0.5000 
     74 N          -5.0514  -21.2426  -44.9147 N.am      13 UNK        -0.5000 
     75 CA         -5.7970  -22.5005  -44.9778 C.3       13 UNK         0.1400 
     76 CB         -5.0094  -23.5622  -44.1916 C.3       13 UNK        -0.1800 
     77 C          -6.0392  -22.9807  -46.4252 C.2       13 UNK         0.5000 
     78 O          -6.7194  -23.9892  -46.6130 O.2       13 UNK        -0.5000 
     79 N          -5.4443  -22.2878  -47.4103 N.am      14 UNK        -0.5000 
     80 CA         -5.3921  -22.5941  -48.8458 C.3       14 UNK         0.1400 
     81 CB         -6.8023  -22.6282  -49.4674 C.3       14 UNK        -0.1800 
     82 C          -4.5748  -23.8551  -49.1958 C.2       14 UNK         0.5000 
     83 O          -4.5573  -24.2540  -50.3608 O.2       14 UNK        -0.5000 
     84 N          -3.8826  -24.4430  -48.2104 N.am      15 UNK        -0.5000 
     85 CA         -3.0907  -25.6637  -48.3473 C.3       15 UNK         0.1400 
     86 CB         -2.7212  -26.1913  -46.9537 C.3       15 UNK        -0.1800 
     87 C          -1.8345  -25.4471  -49.2038 C.2       15 UNK         0.5000 
     88 O          -1.5188  -26.2923  -50.0411 O.2       15 UNK        -0.5000 
     89 N          -1.1813  -24.2886  -49.0311 N.am      16 UNK        -0.5000 
     90 CA         -0.0271  -23.8625  -49.8315 C.3       16 UNK         0.1400 
     91 CB          0.5774  -22.5987  -49.2093 C.3       16 UNK        -0.1800 
     92 C          -0.3770  -23.6035  -51.3110 C.2       16 UNK         0.5000 
     93 O           0.4870  -23.7391  -52.1770 O.2       16 UNK        -0.5000 
     94 N          -1.6437  -23.2530  -51.5664 N.am      17 UNK        -0.5000 
     95 CA         -2.2187  -23.0453  -52.8933 C.3       17 UNK         0.1400 
     96 CB         -3.2595  -21.9181  -52.7884 C.3       17 UNK        -0.1800 
     97 C          -2.8666  -24.3221  -53.4668 C.2       17 UNK         0.5000 
     98 O          -3.4455  -24.2586  -54.5540 O.2       17 UNK        -0.5000 
     99 N          -2.8289  -25.4331  -52.7116 N.am      18 UNK        -0.5000 
    100 CA        -3.4605  -26.7310  -52.9903 C.3       18 UNK         0.1400 
    101 CB        -2.7413  -27.4260  -54.1645 C.3       18 UNK        -0.1800 
    102 C         -4.9898  -26.6488  -53.2081 C.2       18 UNK         0.5000 
    103 O         -5.5628  -27.5215  -53.8624 O.2       18 UNK        -0.5000 
    104 N         -5.6099  -25.5767  -52.6895 N.am      19 UNK        -0.5000 
    105 CA        -6.9856  -25.1280  -52.9198 C.3       19 UNK         0.1400 
    106 CB        -7.9760  -26.0531  -52.1842 C.3       19 UNK        -0.1800 
    107 C         -7.3395  -24.9296  -54.4145 C.2       19 UNK         0.5000 
    108 O         -8.5082  -25.0709  -54.7808 O.2       19 UNK        -0.5000 
    109 N         -6.3370  -24.6241  -55.2541 N.am      20 UNK        -0.5000 
    110 CA        -6.4704  -24.5990  -56.7126 C.3       20 UNK         0.1400 
    111 CB        -5.9650  -25.9348  -57.2837 C.3       20 UNK        -0.1800 
    112 C         -5.7422  -23.4205  -57.3787 C.2       20 UNK         0.5000 
    113 O         -6.2419  -22.9123  -58.3834 O.2       20 UNK        -0.5000 
    114 N         -4.5789  -23.0196  -56.8466 N.am      21 UNK        -0.5000 
    115 CA        -3.7382  -21.9596  -57.4046 C.3       21 UNK         0.1400 
    116 CB        -2.2652  -22.2515  -57.0530 C.3       21 UNK        -0.1800 
    117 C         -4.2206  -20.5711  -56.9387 C.2       21 UNK         0.5000 
    118 O         -5.1585  -20.0224  -57.5179 O.2       21 UNK        -0.5000 
    119 N         -3.5685  -20.0253  -55.9054 N.am      22 UNK        -0.5000 
    120 CA        -3.8637  -18.7178  -55.2937 C.3       22 UNK         0.1400 
    121 C         -5.2049  -18.6498  -54.4953 C.2       22 UNK         0.5000 
    122 N         -5.8766  -19.7614  -54.2205 N.am      22 UNK        -0.7600 
    123 O         -5.6560  -17.5685  -54.1299 O.2       22 UNK        -0.5000 
    124 C124       -2.6541  -18.2453  -54.4421 C.3       23 UNK        -0.0398 
    125 S125       -2.4960  -16.4292  -54.3151 S.3       23 UNK        -0.2404 
    126 C126       -2.8782  -16.1444  -52.5561 C.3       23 UNK        -0.0205 
    127 H127        6.6657  -10.9162  -50.2477 H         1 UNK         0.0600 
    128 H128        7.5564  -10.7782  -48.7293 H         1 UNK         0.0600 
    129 H129        7.4777  -12.3303  -49.5702 H         1 UNK         0.0600 
    130 H130        4.4620  -10.9499  -49.9236 H         1 UNK         0.3000 
    131 H131        3.1623  -12.7113  -48.0721 H         1 UNK         0.0600 
    132 H132        2.1837  -10.5506  -49.9940 H         1 UNK         0.0800 
    133 H133        1.0777  -11.2543  -48.8571 H         1 UNK         0.0800 
    134 H134       -0.4290  -13.0155  -49.4974 H         1 UNK         0.0800 
    135 H135        0.7459  -13.9219  -48.5786 H         1 UNK         0.0800 
    136 H136       -1.6382  -14.0343  -51.3519 H         1 UNK         0.1150 
    137 H137       -1.3874  -18.2961  -51.7468 H         1 UNK         0.1150 
    138 H138        1.4455  -16.2053  -49.3143 H         1 UNK         0.1150 
    139 H139        0.2453  -19.5497  -50.6368 H         1 UNK         0.0800 
    140 H140        1.7835  -18.7340  -50.5004 H         1 UNK         0.0800 
    141 H141       -1.5325  -18.2937  -48.7167 H         1 UNK         0.0800 
    142 H142       -0.9862  -17.9659  -47.1058 H         1 UNK         0.0800 
    143 H143       -1.8406  -20.6790  -48.2308 H         1 UNK         0.0600 
    144 H144       -0.4759  -20.0983  -45.7060 H         1 UNK         0.3000 
    145 H145       -1.3655  -21.9599  -43.7674 H         1 UNK         0.0600 
    146 H146       -0.1343  -24.1381  -43.4215 H         1 UNK         0.0600 
    147 H147       -1.6315  -24.3075  -44.3200 H         1 UNK         0.0600 
    148 H148       -0.0961  -24.3626  -45.1708 H         1 UNK         0.0600 
    149 H149        0.5911  -20.9786  -43.5883 H         1 UNK         0.3000 
    150 H150        3.8125  -21.6654  -44.4536 H         1 UNK         0.0600 
    151 H151        3.3994  -20.5816  -46.6772 H         1 UNK         0.0600 
    152 H152        4.1493  -19.4688  -45.5423 H         1 UNK         0.0600 
    153 H153        2.4269  -19.3443  -45.8906 H         1 UNK         0.0600 
    154 H154        2.5887  -19.2424  -43.4773 H         1 UNK         0.3000 
    155 H155        2.3390  -20.3556  -40.0766 H         1 UNK         0.0600 
    156 H156        4.1185  -18.2877  -41.4706 H         1 UNK         0.0600 
    157 H157        4.6978  -19.5961  -40.4453 H         1 UNK         0.0600 
    158 H158        3.7027  -18.3215  -39.7583 H         1 UNK         0.0600 
    159 H159        1.6861  -17.8571  -41.2187 H         1 UNK         0.3000 
    160 H160       -1.7796  -18.5870  -41.8935 H         1 UNK         0.0600 
    161 H161       -1.9216  -16.5895  -40.4487 H         1 UNK         0.0600 
    162 H162       -0.2496  -16.7961  -39.9355 H         1 UNK         0.0600 
    163 H163       -1.4627  -17.9910  -39.4930 H         1 UNK         0.0600 
    164 H164       -0.1844  -16.2527  -42.3590 H         1 UNK         0.3000 
    165 H165        0.6995  -17.0360  -45.7349 H         1 UNK         0.0600 
    166 H166       -0.3992  -14.8753  -46.1695 H         1 UNK         0.0600 
    167 H167       -1.6418  -16.0689  -45.8222 H         1 UNK         0.0600 
    168 H168       -1.1822  -14.9018  -44.5913 H         1 UNK         0.0600 
    169 H169        1.2302  -14.7299  -44.1926 H         1 UNK         0.3000 
    170 H170        4.2384  -15.9032  -42.6094 H         1 UNK         0.0600 
    171 H171        4.8128  -15.0741  -44.8810 H         1 UNK         0.0600 
    172 H172        3.5972  -13.8126  -44.7604 H         1 UNK         0.0600 
    173 H173        4.9974  -13.7974  -43.6898 H         1 UNK         0.0600 
    174 H174        2.7389  -13.4622  -42.4278 H         1 UNK         0.3000 
    175 H175        0.8041  -14.3464  -39.5713 H         1 UNK         0.0600 
    176 H176        1.9843  -12.3753  -38.6397 H         1 UNK         0.0600 
    177 H177        3.0580  -13.7650  -38.6639 H         1 UNK         0.0600 
    178 H178        3.2363  -12.5017  -39.8757 H         1 UNK         0.0600 
    179 H179        1.1326  -11.9109  -41.0487 H         1 UNK         0.3000 
    180 H180       -1.4930  -12.4922  -43.3995 H         1 UNK         0.0600 
    181 H181       -1.1938  -10.5769  -41.0243 H         1 UNK         0.0600 
    182 H182       -2.5481  -11.6693  -41.2862 H         1 UNK         0.0600 
    183 H183       -2.2552  -10.3570  -42.4156 H         1 UNK         0.0600 
    184 H184        0.1879  -10.2489  -43.0942 H         1 UNK         0.3000 
    185 H185        1.5028   -9.8177  -45.0617 H         1 UNK         0.0600 
    186 H186        3.7619  -11.4563  -43.7403 H         1 UNK         0.0600 
    187 H187        3.9359   -9.8346  -44.4033 H         1 UNK         0.0600 
    188 H188        2.9284  -10.0992  -42.9915 H         1 UNK         0.0600 
    189 H189        2.1270  -12.3407  -46.1833 H         1 UNK         0.3000 
    190 H190       -2.4895  -19.1277  -45.1002 H         1 UNK         0.3000 
    191 H191       -5.0545  -18.0510  -45.6552 H         1 UNK         0.0600 
    192 H192       -3.6450  -17.4258  -43.6878 H         1 UNK         0.0600 
    193 H193       -3.8679  -19.0370  -43.0041 H         1 UNK         0.0600 
    194 H194       -5.2410  -17.9510  -43.1737 H         1 UNK         0.0600 
    195 H195       -4.0463  -21.3190  -44.8857 H         1 UNK         0.3000 
    196 H196       -6.7718  -22.3715  -44.5029 H         1 UNK         0.0600 
    197 H197       -5.5510  -24.5084  -44.1583 H         1 UNK         0.0600 
    198 H198       -4.8441  -23.2490  -43.1606 H         1 UNK         0.0600 
    199 H199       -4.0365  -23.7583  -44.6436 H         1 UNK         0.0600 
    200 H200       -4.9387  -21.4484  -47.1537 H         1 UNK         0.3000 
    201 H201       -4.8571  -21.7629  -49.3063 H         1 UNK         0.0600 
    202 H202       -7.3754  -21.7420  -49.1949 H         1 UNK         0.0600 
    203 H203       -7.3665  -23.5059  -49.1514 H         1 UNK         0.0600 
    204 H204       -6.7459  -22.6527  -50.5558 H         1 UNK         0.0600 
    205 H205       -3.8717  -23.9976  -47.3036 H         1 UNK         0.3000 
    206 H206       -3.7098  -26.4139  -48.8441 H         1 UNK         0.0600 
    207 H207       -3.6119  -26.3837  -46.3553 H         1 UNK         0.0600 
    208 H208       -2.1674  -27.1282  -47.0253 H         1 UNK         0.0600 
    209 H209       -2.0979  -25.4829  -46.4088 H         1 UNK         0.0600 
    210 H210       -1.4987  -23.6618  -48.2997 H         1 UNK         0.3000 
    211 H211        0.7209  -24.6573  -49.7966 H         1 UNK         0.0600 
    212 H212       -0.1075  -21.7557  -49.2799 H         1 UNK         0.0600 
    213 H213        1.4999  -22.3130  -49.7161 H         1 UNK         0.0600 
    214 H214        0.8165  -22.7493  -48.1583 H         1 UNK         0.0600 
    215 H215       -2.2878  -23.2029  -50.7907 H         1 UNK         0.3000 
    216 H216       -1.4395  -22.7324  -53.5908 H         1 UNK         0.0600 
    217 H217       -3.7230  -21.7206  -53.7531 H         1 UNK         0.0600 
    218 H218       -2.8019  -20.9892  -52.4484 H         1 UNK         0.0600 
    219 H219       -4.0604  -22.1699  -52.0926 H         1 UNK         0.0600 
    220 H220       -2.3466  -25.3832  -51.8229 H         1 UNK         0.3000 
    221 H221       -3.3130  -27.3408  -52.0980 H         1 UNK         0.0600 
    222 H222       -2.9046  -26.8998  -55.1057 H         1 UNK         0.0600 
    223 H223       -1.6665  -27.4792  -53.9916 H         1 UNK         0.0600 
    224 H224       -3.0977  -28.4483  -54.2950 H         1 UNK         0.0600 
    225 H225       -5.0600  -24.9754  -52.0815 H         1 UNK         0.3000 
    226 H226       -7.0589  -24.1400  -52.4649 H         1 UNK         0.0600 
    227 H227       -7.7128  -26.1506  -51.1308 H         1 UNK         0.0600 
    228 H228       -7.9939  -27.0523  -52.6201 H         1 UNK         0.0600 
    229 H229       -8.9913  -25.6574  -52.2269 H         1 UNK         0.0600 
    230 H230       -5.3990  -24.5267  -54.8802 H         1 UNK         0.3000 
    231 H231       -7.5221  -24.4940  -56.9876 H         1 UNK         0.0600 
    232 H232       -6.5491  -26.7720  -56.9009 H         1 UNK         0.0600 
    233 H233       -4.9205  -26.1113  -57.0231 H         1 UNK         0.0600 
    234 H234       -6.0430  -25.9534  -58.3715 H         1 UNK         0.0600 
    235 H235       -4.2095  -23.4984  -56.0292 H         1 UNK         0.3000 
    236 H236       -3.8162  -21.9742  -58.4940 H         1 UNK         0.0600 
    237 H237       -1.6065  -21.4738  -57.4420 H         1 UNK         0.0600 
    238 H238       -2.0999  -22.3234  -55.9785 H         1 UNK         0.0600 
    239 H239       -1.9426  -23.1944  -57.4949 H         1 UNK         0.0600 
    240 H240       -2.8018  -20.5419  -55.5029 H         1 UNK         0.3000 
    241 H241       -3.9787  -18.0174  -56.1233 H         1 UNK         0.0600 
    242 H242       -6.7453  -19.6970  -53.7141 H         1 UNK         0.3800 
    243 H243       -5.5501  -20.6539  -54.5486 H         1 UNK         0.3800 
    244 H244       -2.6870  -18.7057  -53.4560 H         1 UNK         0.0800 
    245 H245       -1.7221  -18.5893  -54.8931 H         1 UNK         0.0800 
    246 H246       -3.5963  -16.8838  -52.1989 H         1 UNK         0.0800 
    247 H247       -3.3823  -15.1805  -52.4720 H         1 UNK         0.0800 
@<TRIPOS>BOND
     1    1    2 1    
     2    1  127 1    
     3    1  128 1    
     4    1  129 1    
     5    2    3 2    
     6    2    4 am   BACKBONE|DICT|INTERRES
     7    4    5 1    
     8    4  130 1    
     9    5    6 1    
    10    5   65 1    
    11    5  131 1    
    12    6    7 1    
    13    6  132 1    
    14    6  133 1    
    15    7    8 1    
    16    8    9 1    
    17    8  134 1    
    18    8  135 1    
    19    9   10 ar   
    20    9   14 ar   
    21   10   11 ar   
    22   10  136 1    
    23   11   12 ar   
    24   11  126 1    
    25   12   13 ar   
    26   12  137 1    
    27   13   14 ar   
    28   13   15 1    
    29   14  138 1    
    30   15   16 1    
    31   15  139 1    
    32   15  140 1    
    33   16   17 1    
    34   17   18 1    
    35   17  141 1    
    36   17  142 1    
    37   18   19 1    
    38   18   67 1    
    39   18  143 1    
    40   19   20 am   BACKBONE|DICT|INTERRES
    41   19  144 1    
    42   20   21 2    
    43   20   22 1    
    44   22   23 1    
    45   22   24 1    
    46   22  145 1    
    47   23  146 1    
    48   23  147 1    
    49   23  148 1    
    50   24   25 am   BACKBONE|DICT|INTERRES
    51   24  149 1    
    52   25   26 2    
    53   25   27 1    
    54   27   28 1    
    55   27   29 1    
    56   27  150 1    
    57   28  151 1    
    58   28  152 1    
    59   28  153 1    
    60   29   30 am   BACKBONE|DICT|INTERRES
    61   29  154 1    
    62   30   31 2    
    63   30   32 1    
    64   32   33 1    
    65   32   34 1    
    66   32  155 1    
    67   33  156 1    
    68   33  157 1    
    69   33  158 1    
    70   34   35 am   BACKBONE|DICT|INTERRES
    71   34  159 1    
    72   35   36 2    
    73   35   37 1    
    74   37   38 1    
    75   37   39 1    
    76   37  160 1    
    77   38  161 1    
    78   38  162 1    
    79   38  163 1    
    80   39   40 am   BACKBONE|DICT|INTERRES
    81   39  164 1    
    82   40   41 2    
    83   40   42 1    
    84   42   43 1    
    85   42   44 1    
    86   42  165 1    
    87   43  166 1    
    88   43  167 1    
    89   43  168 1    
    90   44   45 am   BACKBONE|DICT|INTERRES
    91   44  169 1    
    92   45   46 2    
    93   45   47 1    
    94   47   48 1    
    95   47   49 1    
    96   47  170 1    
    97   48  171 1    
    98   48  172 1    
    99   48  173 1    
   100   49   50 am   BACKBONE|DICT|INTERRES
   101   49  174 1    
   102   50   51 2    
   103   50   52 1    
   104   52   53 1    
   105   52   54 1    
   106   52  175 1    
   107   53  176 1    
   108   53  177 1    
   109   53  178 1    
   110   54   55 am   BACKBONE|DICT|INTERRES
   111   54  179 1    
   112   55   56 2    
   113   55   57 1    
   114   57   58 1    
   115   57   59 1    
   116   57  180 1    
   117   58  181 1    
   118   58  182 1    
   119   58  183 1    
   120   59   60 am   BACKBONE|DICT|INTERRES
   121   59  184 1    
   122   60   61 2    
   123   60   62 1    
   124   62   63 1    
   125   62   64 1    
   126   62  185 1    
   127   63  186 1    
   128   63  187 1    
   129   63  188 1    
   130   64   65 am   BACKBONE|DICT|INTERRES
   131   64  189 1    
   132   65   66 2    
   133   67   68 2    
   134   67   69 am   BACKBONE|DICT|INTERRES
   135   69   70 1    
   136   69  190 1    
   137   70   71 1    
   138   70   72 1    
   139   70  191 1    
   140   71  192 1    
   141   71  193 1    
   142   71  194 1    
   143   72   73 2    
   144   72   74 am   BACKBONE|DICT|INTERRES
   145   74   75 1    
   146   74  195 1    
   147   75   76 1    
   148   75   77 1    
   149   75  196 1    
   150   76  197 1    
   151   76  198 1    
   152   76  199 1    
   153   77   78 2    
   154   77   79 am   BACKBONE|DICT|INTERRES
   155   79   80 1    
   156   79  200 1    
   157   80   81 1    
   158   80   82 1    
   159   80  201 1    
   160   81  202 1    
   161   81  203 1    
   162   81  204 1    
   163   82   83 2    
   164   82   84 am   BACKBONE|DICT|INTERRES
   165   84   85 1    
   166   84  205 1    
   167   85   86 1    
   168   85   87 1    
   169   85  206 1    
   170   86  207 1    
   171   86  208 1    
   172   86  209 1    
   173   87   88 2    
   174   87   89 am   BACKBONE|DICT|INTERRES
   175   89   90 1    
   176   89  210 1    
   177   90   91 1    
   178   90   92 1    
   179   90  211 1    
   180   91  212 1    
   181   91  213 1    
   182   91  214 1    
   183   92   93 2    
   184   92   94 am   BACKBONE|DICT|INTERRES
   185   94   95 1    
   186   94  215 1    
   187   95   96 1    
   188   95   97 1    
   189   95  216 1    
   190   96  217 1    
   191   96  218 1    
   192   96  219 1    
   193   97   98 2    
   194   97   99 am   BACKBONE|DICT|INTERRES
   195   99  100 1    
   196   99  220 1    
   197  100  101 1    
   198  100  102 1    
   199  100  221 1    
   200  101  222 1    
   201  101  223 1    
   202  101  224 1    
   203  102  103 2    
   204  102  104 am   BACKBONE|DICT|INTERRES
   205  104  105 1    
   206  104  225 1    
   207  105  106 1    
   208  105  107 1    
   209  105  226 1    
   210  106  227 1    
   211  106  228 1    
   212  106  229 1    
   213  107  108 2    
   214  107  109 am   BACKBONE|DICT|INTERRES
   215  109  110 1    
   216  109  230 1    
   217  110  111 1    
   218  110  112 1    
   219  110  231 1    
   220  111  232 1    
   221  111  233 1    
   222  111  234 1    
   223  112  113 2    
   224  112  114 am   BACKBONE|DICT|INTERRES
   225  114  115 1    
   226  114  235 1    
   227  115  116 1    
   228  115  117 1    
   229  115  236 1    
   230  116  237 1    
   231  116  238 1    
   232  116  239 1    
   233  117  118 2    
   234  117  119 am   BACKBONE|DICT|INTERRES
   235  119  120 1    
   236  119  240 1    
   237  120  121 1    
   238  120  124 1    
   239  120  241 1    
   240  121  122 am   BACKBONE|DICT|INTERRES
   241  121  123 2    
   242  122  242 1    
   243  122  243 1    
   244  124  125 1    
   245  124  244 1    
   246  124  245 1    
   247  125  126 1    
   248  126  246 1    
   249  126  247 1    
@<TRIPOS>SUBSTRUCTURE
     1 UNK         1 GROUP             0       ****    0 ROOT    
