@<TRIPOS>MOLECULE
3R540
247   249    1
SMALL
USER_CHARGES


@<TRIPOS>ATOM
      1 CA         -3.2323  -11.8638  -50.5630 C.3       0 UNK        -0.1800 
      2 C          -1.8206  -11.3115  -50.7039 C.2       0 UNK         0.5000 
      3 O          -1.6478  -10.1647  -51.1183 O.2       0 UNK        -0.5000 
      4 N          -0.8138  -12.1258  -50.3696 N.am      1 UNK        -0.5000 
      5 CA          0.6035  -11.7550  -50.3534 C.3       1 UNK         0.1400 
      6 C6          1.5281  -12.9994  -50.4194 C.3       23 UNK        -0.0398 
      7 S7          1.1518  -14.2957  -49.1848 S.3       23 UNK        -0.2404 
      8 C8          0.4241  -15.5728  -50.2561 C.3       23 UNK        -0.0205 
      9 C9         -0.1001  -16.7577  -49.4601 C.ar      23 UNK        -0.0193 
     10 C10        -1.4584  -16.8466  -49.1396 C.ar      23 UNK        -0.1150 
     11 C11        -1.9600  -17.9708  -48.4764 C.ar      23 UNK        -0.0193 
     12 C12        -1.0881  -19.0052  -48.1260 C.ar      23 UNK        -0.1150 
     13 C13         0.2708  -18.9289  -48.4417 C.ar      23 UNK        -0.0193 
     14 C14         0.7620  -17.7968  -49.0979 C.ar      23 UNK        -0.1150 
     15 C15         1.1837  -20.1093  -48.1543 C.3       23 UNK        -0.0205 
     16 S16         1.2936  -20.4890  -46.3781 S.3       23 UNK        -0.2404 
     17 C17         2.0018  -22.1697  -46.4558 C.3       23 UNK        -0.0398 
     18 CA          1.0078  -23.3420  -46.2415 C.3       11 UNK         0.1400 
     19 N           0.6803  -23.5840  -44.8326 N.am      11 UNK        -0.5000 
     20 C           0.2558  -24.7769  -44.3866 C.2       10 UNK         0.5000 
     21 O           0.0935  -25.7544  -45.1180 O.2       10 UNK        -0.5000 
     22 CA         -0.0710  -24.9076  -42.8887 C.3       10 UNK         0.1400 
     23 CB          1.1990  -25.2301  -42.0875 C.3       10 UNK        -0.1800 
     24 N          -0.7212  -23.7327  -42.3099 N.am      10 UNK        -0.5000 
     25 C          -1.8917  -23.2171  -42.7077 C.2       9 UNK         0.5000 
     26 O          -2.5331  -23.6466  -43.6684 O.2       9 UNK        -0.5000 
     27 CA         -2.4467  -22.0181  -41.9084 C.3       9 UNK         0.1400 
     28 CB         -1.6519  -21.6866  -40.6245 C.3       9 UNK        -0.1800 
     29 N          -2.5898  -20.8181  -42.7377 N.am      9 UNK        -0.5000 
     30 C          -1.6268  -20.2059  -43.4418 C.2       8 UNK         0.5000 
     31 O          -0.4693  -20.6236  -43.5152 O.2       8 UNK        -0.5000 
     32 CA         -2.0600  -18.9482  -44.2267 C.3       8 UNK         0.1400 
     33 CB         -2.9722  -18.0056  -43.4105 C.3       8 UNK        -0.1800 
     34 N          -0.9379  -18.2143  -44.8173 N.am      8 UNK        -0.5000 
     35 C           0.0188  -17.5258  -44.1806 C.2       7 UNK         0.5000 
     36 O           0.0714  -17.3696  -42.9576 O.2       7 UNK        -0.5000 
     37 CA          1.0445  -16.8405  -45.1058 C.3       7 UNK         0.1400 
     38 CB          0.4021  -15.6218  -45.7859 C.3       7 UNK        -0.1800 
     39 N           2.2503  -16.3897  -44.4153 N.am      7 UNK        -0.5000 
     40 C           3.1676  -17.1724  -43.8332 C.2       6 UNK         0.5000 
     41 O           3.1248  -18.4027  -43.8281 O.2       6 UNK        -0.5000 
     42 CA          4.3481  -16.4572  -43.1530 C.3       6 UNK         0.1400 
     43 CB          5.5000  -16.2599  -44.1515 C.3       6 UNK        -0.1800 
     44 N           3.9570  -15.1530  -42.6151 N.am      6 UNK        -0.5000 
     45 C           3.5734  -14.9357  -41.3496 C.2       5 UNK         0.5000 
     46 O           3.5422  -15.8124  -40.4849 O.2       5 UNK        -0.5000 
     47 CA          3.1708  -13.4956  -40.9714 C.3       5 UNK         0.1400 
     48 CB          4.3681  -12.7473  -40.3653 C.3       5 UNK        -0.1800 
     49 N           2.6549  -12.7244  -42.1029 N.am      5 UNK        -0.5000 
     50 C           1.4428  -12.8926  -42.6484 C.2       4 UNK         0.5000 
     51 O           0.5993  -13.6740  -42.2101 O.2       4 UNK        -0.5000 
     52 CA          1.1196  -12.0592  -43.9048 C.3       4 UNK         0.1400 
     53 CB          0.3356  -10.7943  -43.5247 C.3       4 UNK        -0.1800 
     54 N           2.2848  -11.6688  -44.7042 N.am      4 UNK        -0.5000 
     55 C           3.1701  -12.4963  -45.2732 C.2       3 UNK         0.5000 
     56 O           3.1729  -13.7129  -45.0822 O.2       3 UNK        -0.5000 
     57 CA          4.2212  -11.8507  -46.2027 C.3       3 UNK         0.1400 
     58 CB          5.1151  -12.8964  -46.8932 C.3       3 UNK        -0.1800 
     59 N           3.6072  -11.0104  -47.2334 N.am      3 UNK        -0.5000 
     60 C           3.1156   -9.7761  -47.0575 C.2       2 UNK         0.5000 
     61 O           3.1391   -9.1860  -45.9764 O.2       2 UNK        -0.5000 
     62 CA          2.4705   -9.0936  -48.2798 C.3       2 UNK         0.1400 
     63 CB          3.4610   -8.1160  -48.9308 C.3       2 UNK        -0.1800 
     64 N           1.9916  -10.0346  -49.2975 N.am      2 UNK        -0.5000 
     65 C           0.9361  -10.8472  -49.1482 C.2       1 UNK         0.5000 
     66 O           0.2579  -10.9017  -48.1187 O.2       1 UNK        -0.5000 
     67 C          -0.2626  -23.2657  -47.1158 C.2       11 UNK         0.5000 
     68 O          -0.2389  -23.7422  -48.2498 O.2       11 UNK        -0.5000 
     69 N          -1.3608  -22.7263  -46.5614 N.am      12 UNK        -0.5000 
     70 CA         -2.6759  -22.7159  -47.2042 C.3       12 UNK         0.1400 
     71 CB         -3.6421  -21.7861  -46.4583 C.3       12 UNK        -0.1800 
     72 C          -3.2664  -24.1276  -47.3132 C.2       12 UNK         0.5000 
     73 O          -3.8203  -24.4648  -48.3572 O.2       12 UNK        -0.5000 
     74 N          -3.1014  -24.9369  -46.2573 N.am      13 UNK        -0.5000 
     75 CA         -3.4935  -26.3457  -46.2259 C.3       13 UNK         0.1400 
     76 CB         -3.3098  -26.9048  -44.8072 C.3       13 UNK        -0.1800 
     77 C          -2.7292  -27.1906  -47.2621 C.2       13 UNK         0.5000 
     78 O          -3.3524  -27.9742  -47.9784 O.2       13 UNK        -0.5000 
     79 N          -1.4088  -26.9765  -47.3644 N.am      14 UNK        -0.5000 
     80 CA         -0.5362  -27.6073  -48.3592 C.3       14 UNK         0.1400 
     81 CB          0.9286  -27.2763  -48.0367 C.3       14 UNK        -0.1800 
     82 C          -0.8789  -27.2032  -49.8071 C.2       14 UNK         0.5000 
     83 O          -0.8422  -28.0490  -50.7011 O.2       14 UNK        -0.5000 
     84 N          -1.2363  -25.9276  -50.0043 N.am      15 UNK        -0.5000 
     85 CA         -1.6862  -25.3611  -51.2778 C.3       15 UNK         0.1400 
     86 CB         -1.5268  -23.8343  -51.2053 C.3       15 UNK        -0.1800 
     87 C          -3.1416  -25.7209  -51.6439 C.2       15 UNK         0.5000 
     88 O          -3.5785  -25.3929  -52.7493 O.2       15 UNK        -0.5000 
     89 N          -3.8798  -26.3278  -50.7004 N.am      16 UNK        -0.5000 
     90 CA         -5.3177  -26.6198  -50.7390 C.3       16 UNK         0.1400 
     91 CB         -5.6125  -27.7407  -51.7564 C.3       16 UNK        -0.1800 
     92 C          -6.1684  -25.3522  -50.9764 C.2       16 UNK         0.5000 
     93 O          -7.1736  -25.4039  -51.6878 O.2       16 UNK        -0.5000 
     94 N          -5.7020  -24.2228  -50.4211 N.am      17 UNK        -0.5000 
     95 CA         -6.1306  -22.8304  -50.6005 C.3       17 UNK         0.1400 
     96 CB         -7.5699  -22.6195  -50.0959 C.3       17 UNK        -0.1800 
     97 C          -5.9616  -22.2850  -52.0341 C.2       17 UNK         0.5000 
     98 O          -5.4870  -21.1615  -52.2018 O.2       17 UNK        -0.5000 
     99 N          -6.3593  -23.0781  -53.0343 N.am      18 UNK        -0.5000 
    100 CA        -6.4455  -22.7266  -54.4479 C.3       18 UNK         0.1400 
    101 CB        -7.0981  -23.8879  -55.2127 C.3       18 UNK        -0.1800 
    102 C         -5.1058  -22.3416  -55.0947 C.2       18 UNK         0.5000 
    103 O         -5.0660  -21.3576  -55.8335 O.2       18 UNK        -0.5000 
    104 N         -4.0332  -23.0971  -54.8114 N.am      19 UNK        -0.5000 
    105 CA        -2.7204  -22.8828  -55.4350 C.3       19 UNK         0.1400 
    106 CB        -1.8443  -24.1322  -55.2579 C.3       19 UNK        -0.1800 
    107 C         -1.9968  -21.6216  -54.9236 C.2       19 UNK         0.5000 
    108 O         -1.1666  -21.0672  -55.6445 O.2       19 UNK        -0.5000 
    109 N         -2.3381  -21.1838  -53.7054 N.am      20 UNK        -0.5000 
    110 CA        -1.8445  -19.9524  -53.0861 C.3       20 UNK         0.1400 
    111 CB        -1.5715  -20.2317  -51.6008 C.3       20 UNK        -0.1800 
    112 C         -2.8224  -18.7722  -53.2687 C.2       20 UNK         0.5000 
    113 O         -2.4670  -17.6420  -52.9333 O.2       20 UNK        -0.5000 
    114 N         -4.0201  -19.0516  -53.8074 N.am      21 UNK        -0.5000 
    115 CA        -5.1395  -18.1368  -54.0492 C.3       21 UNK         0.1400 
    116 CB        -4.7823  -17.1186  -55.1519 C.3       21 UNK        -0.1800 
    117 C         -5.6681  -17.4792  -52.7564 C.2       21 UNK         0.5000 
    118 O         -5.9457  -16.2778  -52.7398 O.2       21 UNK        -0.5000 
    119 N         -5.7822  -18.2801  -51.6902 N.am      22 UNK        -0.5000 
    120 CA        -6.2595  -17.8501  -50.3672 C.3       22 UNK         0.1400 
    121 C         -7.7734  -17.5002  -50.3603 C.2       22 UNK         0.5000 
    122 N         -8.1826  -16.5030  -49.5877 N.am      22 UNK        -0.7600 
    123 O         -8.5865  -18.1519  -51.0123 O.2       22 UNK        -0.5000 
    124 C124       -5.9444  -18.8888  -49.2597 C.3       23 UNK        -0.0398 
    125 S125       -4.1938  -19.3894  -49.2278 S.3       23 UNK        -0.2404 
    126 C126       -3.4488  -18.0937  -48.1901 C.3       23 UNK        -0.0205 
    127 H127       -3.8011  -11.2623  -49.8539 H         1 UNK         0.0600 
    128 H128       -3.7447  -11.8353  -51.5246 H         1 UNK         0.0600 
    129 H129       -3.2308  -12.8954  -50.2096 H         1 UNK         0.0600 
    130 H130       -1.0173  -13.0359  -49.9832 H         1 UNK         0.3000 
    131 H131        0.7953  -11.1666  -51.2536 H         1 UNK         0.0600 
    132 H132        2.5751  -12.7130  -50.3068 H         1 UNK         0.0800 
    133 H133        1.4631  -13.4336  -51.4179 H         1 UNK         0.0800 
    134 H134       -0.3818  -15.1381  -50.8495 H         1 UNK         0.0800 
    135 H135        1.1759  -15.9155  -50.9687 H         1 UNK         0.0800 
    136 H136       -2.1303  -16.0535  -49.4359 H         1 UNK         0.1150 
    137 H137       -1.4723  -19.8937  -47.6471 H         1 UNK         0.1150 
    138 H138        1.8084  -17.7373  -49.3622 H         1 UNK         0.1150 
    139 H139        0.7974  -20.9741  -48.6956 H         1 UNK         0.0800 
    140 H140        2.1885  -19.9278  -48.5387 H         1 UNK         0.0800 
    141 H141        2.4995  -22.2934  -47.4190 H         1 UNK         0.0800 
    142 H142        2.8019  -22.2295  -45.7169 H         1 UNK         0.0800 
    143 H143        1.5445  -24.2293  -46.5860 H         1 UNK         0.0600 
    144 H144        0.7435  -22.7987  -44.1976 H         1 UNK         0.3000 
    145 H145       -0.7611  -25.7467  -42.7794 H         1 UNK         0.0600 
    146 H146        0.9661  -25.4302  -41.0415 H         1 UNK         0.0600 
    147 H147        1.6961  -26.1169  -42.4833 H         1 UNK         0.0600 
    148 H148        1.9160  -24.4088  -42.1216 H         1 UNK         0.0600 
    149 H149       -0.2498  -23.2956  -41.5317 H         1 UNK         0.3000 
    150 H150       -3.4544  -22.3045  -41.6040 H         1 UNK         0.0600 
    151 H151       -1.6005  -22.5476  -39.9567 H         1 UNK         0.0600 
    152 H152       -2.1347  -20.8831  -40.0682 H         1 UNK         0.0600 
    153 H153       -0.6320  -21.3663  -40.8403 H         1 UNK         0.0600 
    154 H154       -3.5220  -20.4310  -42.7712 H         1 UNK         0.3000 
    155 H155       -2.6441  -19.3024  -45.0719 H         1 UNK         0.0600 
    156 H156       -3.1873  -17.0908  -43.9631 H         1 UNK         0.0600 
    157 H157       -2.5181  -17.7222  -42.4604 H         1 UNK         0.0600 
    158 H158       -3.9315  -18.4729  -43.1873 H         1 UNK         0.0600 
    159 H159       -0.8531  -18.3018  -45.8204 H         1 UNK         0.3000 
    160 H160        1.3521  -17.5495  -45.8760 H         1 UNK         0.0600 
    161 H161       -0.0088  -14.9275  -45.0530 H         1 UNK         0.0600 
    162 H162       -0.4112  -15.9207  -46.4478 H         1 UNK         0.0600 
    163 H163        1.1282  -15.0796  -46.3899 H         1 UNK         0.0600 
    164 H164        2.4150  -15.3895  -44.4205 H         1 UNK         0.3000 
    165 H165        4.7098  -17.0996  -42.3473 H         1 UNK         0.0600 
    166 H166        5.1954  -15.6502  -45.0027 H         1 UNK         0.0600 
    167 H167        6.3540  -15.7749  -43.6786 H         1 UNK         0.0600 
    168 H168        5.8444  -17.2182  -44.5422 H         1 UNK         0.0600 
    169 H169        3.8950  -14.3949  -43.2842 H         1 UNK         0.3000 
    170 H170        2.3897  -13.5596  -40.2107 H         1 UNK         0.0600 
    171 H171        4.7635  -13.2797  -39.4992 H         1 UNK         0.0600 
    172 H172        5.1816  -12.6396  -41.0838 H         1 UNK         0.0600 
    173 H173        4.0815  -11.7506  -40.0291 H         1 UNK         0.0600 
    174 H174        3.2789  -12.0505  -42.5212 H         1 UNK         0.3000 
    175 H175        0.4821  -12.6710  -44.5448 H         1 UNK         0.0600 
    176 H176        0.9365  -10.1176  -42.9159 H         1 UNK         0.0600 
    177 H177        0.0120  -10.2502  -44.4124 H         1 UNK         0.0600 
    178 H178       -0.5597  -11.0444  -42.9537 H         1 UNK         0.0600 
    179 H179        2.3766  -10.6811  -44.9193 H         1 UNK         0.3000 
    180 H180        4.8621  -11.2256  -45.5777 H         1 UNK         0.0600 
    181 H181        4.5314  -13.5776  -47.5142 H         1 UNK         0.0600 
    182 H182        5.6527  -13.4977  -46.1593 H         1 UNK         0.0600 
    183 H183        5.8628  -12.4202  -47.5276 H         1 UNK         0.0600 
    184 H184        3.5111  -11.4277  -48.1465 H         1 UNK         0.3000 
    185 H185        1.6145   -8.5199  -47.9180 H         1 UNK         0.0600 
    186 H186        3.8171   -7.3808  -48.2077 H         1 UNK         0.0600 
    187 H187        4.3345   -8.6332  -49.3297 H         1 UNK         0.0600 
    188 H188        2.9935   -7.5651  -49.7472 H         1 UNK         0.0600 
    189 H189        2.4955  -10.0362  -50.1731 H         1 UNK         0.3000 
    190 H190       -1.3085  -22.4024  -45.6063 H         1 UNK         0.3000 
    191 H191       -2.5574  -22.3279  -48.2184 H         1 UNK         0.0600 
    192 H192       -4.6489  -21.8565  -46.8726 H         1 UNK         0.0600 
    193 H193       -3.3360  -20.7496  -46.5621 H         1 UNK         0.0600 
    194 H194       -3.7069  -22.0223  -45.3967 H         1 UNK         0.0600 
    195 H195       -2.6883  -24.5556  -45.4114 H         1 UNK         0.3000 
    196 H196       -4.5557  -26.3974  -46.4741 H         1 UNK         0.0600 
    197 H197       -3.6481  -27.9401  -44.7503 H         1 UNK         0.0600 
    198 H198       -3.8867  -26.3326  -44.0804 H         1 UNK         0.0600 
    199 H199       -2.2661  -26.8841  -44.4951 H         1 UNK         0.0600 
    200 H200       -0.9627  -26.3525  -46.6989 H         1 UNK         0.3000 
    201 H201       -0.6661  -28.6884  -48.2774 H         1 UNK         0.0600 
    202 H202        1.1995  -27.6176  -47.0374 H         1 UNK         0.0600 
    203 H203        1.1191  -26.2041  -48.0872 H         1 UNK         0.0600 
    204 H204        1.6036  -27.7635  -48.7414 H         1 UNK         0.0600 
    205 H205       -1.1713  -25.2790  -49.2266 H         1 UNK         0.3000 
    206 H206       -1.0450  -25.7379  -52.0770 H         1 UNK         0.0600 
    207 H207       -0.4877  -23.5528  -51.0340 H         1 UNK         0.0600 
    208 H208       -1.8409  -23.3583  -52.1315 H         1 UNK         0.0600 
    209 H209       -2.1271  -23.4052  -50.4029 H         1 UNK         0.0600 
    210 H210       -3.4293  -26.5197  -49.8152 H         1 UNK         0.3000 
    211 H211       -5.5839  -26.9876  -49.7471 H         1 UNK         0.0600 
    212 H212       -5.4181  -27.4193  -52.7802 H         1 UNK         0.0600 
    213 H213       -6.6560  -28.0530  -51.7036 H         1 UNK         0.0600 
    214 H214       -5.0007  -28.6210  -51.5592 H         1 UNK         0.0600 
    215 H215       -4.8904  -24.3303  -49.8141 H         1 UNK         0.3000 
    216 H216       -5.4697  -22.2378  -49.9658 H         1 UNK         0.0600 
    217 H217       -8.2908  -23.2180  -50.6529 H         1 UNK         0.0600 
    218 H218       -7.8733  -21.5772  -50.1983 H         1 UNK         0.0600 
    219 H219       -7.6582  -22.8832  -49.0420 H         1 UNK         0.0600 
    220 H220       -6.7247  -23.9900  -52.7705 H         1 UNK         0.3000 
    221 H221       -7.1046  -21.8593  -54.5240 H         1 UNK         0.0600 
    222 H222       -6.5119  -24.8040  -55.1277 H         1 UNK         0.0600 
    223 H223       -8.0990  -24.0957  -54.8340 H         1 UNK         0.0600 
    224 H224       -7.1943  -23.6547  -56.2740 H         1 UNK         0.0600 
    225 H225       -4.1206  -23.8829  -54.1747 H         1 UNK         0.3000 
    226 H226       -2.8792  -22.7476  -56.5072 H         1 UNK         0.0600 
    227 H227       -2.3470  -25.0242  -55.6318 H         1 UNK         0.0600 
    228 H228       -0.9090  -24.0308  -55.8098 H         1 UNK         0.0600 
    229 H229       -1.5863  -24.3059  -54.2151 H         1 UNK         0.0600 
    230 H230       -3.0468  -21.6915  -53.1952 H         1 UNK         0.3000 
    231 H231       -0.9004  -19.6521  -53.5450 H         1 UNK         0.0600 
    232 H232       -2.4400  -20.6683  -51.1090 H         1 UNK         0.0600 
    233 H233       -0.7380  -20.9229  -51.4777 H         1 UNK         0.0600 
    234 H234       -1.3115  -19.3166  -51.0684 H         1 UNK         0.0600 
    235 H235       -4.2081  -20.0169  -54.0391 H         1 UNK         0.3000 
    236 H236       -5.9554  -18.7549  -54.4267 H         1 UNK         0.0600 
    237 H237       -4.4383  -17.6223  -56.0553 H         1 UNK         0.0600 
    238 H238       -5.6510  -16.5193  -55.4264 H         1 UNK         0.0600 
    239 H239       -3.9989  -16.4313  -54.8313 H         1 UNK         0.0600 
    240 H240       -5.5541  -19.2651  -51.7910 H         1 UNK         0.3000 
    241 H241       -5.7124  -16.9375  -50.1229 H         1 UNK         0.0600 
    242 H242       -7.5376  -15.9554  -49.0392 H         1 UNK         0.3800 
    243 H243       -9.1650  -16.2765  -49.5628 H         1 UNK         0.3800 
    244 H244       -6.2183  -18.5024  -48.2764 H         1 UNK         0.0800 
    245 H245       -6.5398  -19.7899  -49.4072 H         1 UNK         0.0800 
    246 H246       -3.6109  -18.3263  -47.1376 H         1 UNK         0.0800 
    247 H247       -3.9473  -17.1418  -48.3776 H         1 UNK         0.0800 
@<TRIPOS>BOND
     1    1    2 1    
     2    1  127 1    
     3    1  128 1    
     4    1  129 1    
     5    2    3 2    
     6    2    4 am   BACKBONE|DICT|INTERRES
     7    4    5 1    
     8    4  130 1    
     9    5    6 1    
    10    5   65 1    
    11    5  131 1    
    12    6    7 1    
    13    6  132 1    
    14    6  133 1    
    15    7    8 1    
    16    8    9 1    
    17    8  134 1    
    18    8  135 1    
    19    9   10 ar   
    20    9   14 ar   
    21   10   11 ar   
    22   10  136 1    
    23   11   12 ar   
    24   11  126 1    
    25   12   13 ar   
    26   12  137 1    
    27   13   14 ar   
    28   13   15 1    
    29   14  138 1    
    30   15   16 1    
    31   15  139 1    
    32   15  140 1    
    33   16   17 1    
    34   17   18 1    
    35   17  141 1    
    36   17  142 1    
    37   18   19 1    
    38   18   67 1    
    39   18  143 1    
    40   19   20 am   BACKBONE|DICT|INTERRES
    41   19  144 1    
    42   20   21 2    
    43   20   22 1    
    44   22   23 1    
    45   22   24 1    
    46   22  145 1    
    47   23  146 1    
    48   23  147 1    
    49   23  148 1    
    50   24   25 am   BACKBONE|DICT|INTERRES
    51   24  149 1    
    52   25   26 2    
    53   25   27 1    
    54   27   28 1    
    55   27   29 1    
    56   27  150 1    
    57   28  151 1    
    58   28  152 1    
    59   28  153 1    
    60   29   30 am   BACKBONE|DICT|INTERRES
    61   29  154 1    
    62   30   31 2    
    63   30   32 1    
    64   32   33 1    
    65   32   34 1    
    66   32  155 1    
    67   33  156 1    
    68   33  157 1    
    69   33  158 1    
    70   34   35 am   BACKBONE|DICT|INTERRES
    71   34  159 1    
    72   35   36 2    
    73   35   37 1    
    74   37   38 1    
    75   37   39 1    
    76   37  160 1    
    77   38  161 1    
    78   38  162 1    
    79   38  163 1    
    80   39   40 am   BACKBONE|DICT|INTERRES
    81   39  164 1    
    82   40   41 2    
    83   40   42 1    
    84   42   43 1    
    85   42   44 1    
    86   42  165 1    
    87   43  166 1    
    88   43  167 1    
    89   43  168 1    
    90   44   45 am   BACKBONE|DICT|INTERRES
    91   44  169 1    
    92   45   46 2    
    93   45   47 1    
    94   47   48 1    
    95   47   49 1    
    96   47  170 1    
    97   48  171 1    
    98   48  172 1    
    99   48  173 1    
   100   49   50 am   BACKBONE|DICT|INTERRES
   101   49  174 1    
   102   50   51 2    
   103   50   52 1    
   104   52   53 1    
   105   52   54 1    
   106   52  175 1    
   107   53  176 1    
   108   53  177 1    
   109   53  178 1    
   110   54   55 am   BACKBONE|DICT|INTERRES
   111   54  179 1    
   112   55   56 2    
   113   55   57 1    
   114   57   58 1    
   115   57   59 1    
   116   57  180 1    
   117   58  181 1    
   118   58  182 1    
   119   58  183 1    
   120   59   60 am   BACKBONE|DICT|INTERRES
   121   59  184 1    
   122   60   61 2    
   123   60   62 1    
   124   62   63 1    
   125   62   64 1    
   126   62  185 1    
   127   63  186 1    
   128   63  187 1    
   129   63  188 1    
   130   64   65 am   BACKBONE|DICT|INTERRES
   131   64  189 1    
   132   65   66 2    
   133   67   68 2    
   134   67   69 am   BACKBONE|DICT|INTERRES
   135   69   70 1    
   136   69  190 1    
   137   70   71 1    
   138   70   72 1    
   139   70  191 1    
   140   71  192 1    
   141   71  193 1    
   142   71  194 1    
   143   72   73 2    
   144   72   74 am   BACKBONE|DICT|INTERRES
   145   74   75 1    
   146   74  195 1    
   147   75   76 1    
   148   75   77 1    
   149   75  196 1    
   150   76  197 1    
   151   76  198 1    
   152   76  199 1    
   153   77   78 2    
   154   77   79 am   BACKBONE|DICT|INTERRES
   155   79   80 1    
   156   79  200 1    
   157   80   81 1    
   158   80   82 1    
   159   80  201 1    
   160   81  202 1    
   161   81  203 1    
   162   81  204 1    
   163   82   83 2    
   164   82   84 am   BACKBONE|DICT|INTERRES
   165   84   85 1    
   166   84  205 1    
   167   85   86 1    
   168   85   87 1    
   169   85  206 1    
   170   86  207 1    
   171   86  208 1    
   172   86  209 1    
   173   87   88 2    
   174   87   89 am   BACKBONE|DICT|INTERRES
   175   89   90 1    
   176   89  210 1    
   177   90   91 1    
   178   90   92 1    
   179   90  211 1    
   180   91  212 1    
   181   91  213 1    
   182   91  214 1    
   183   92   93 2    
   184   92   94 am   BACKBONE|DICT|INTERRES
   185   94   95 1    
   186   94  215 1    
   187   95   96 1    
   188   95   97 1    
   189   95  216 1    
   190   96  217 1    
   191   96  218 1    
   192   96  219 1    
   193   97   98 2    
   194   97   99 am   BACKBONE|DICT|INTERRES
   195   99  100 1    
   196   99  220 1    
   197  100  101 1    
   198  100  102 1    
   199  100  221 1    
   200  101  222 1    
   201  101  223 1    
   202  101  224 1    
   203  102  103 2    
   204  102  104 am   BACKBONE|DICT|INTERRES
   205  104  105 1    
   206  104  225 1    
   207  105  106 1    
   208  105  107 1    
   209  105  226 1    
   210  106  227 1    
   211  106  228 1    
   212  106  229 1    
   213  107  108 2    
   214  107  109 am   BACKBONE|DICT|INTERRES
   215  109  110 1    
   216  109  230 1    
   217  110  111 1    
   218  110  112 1    
   219  110  231 1    
   220  111  232 1    
   221  111  233 1    
   222  111  234 1    
   223  112  113 2    
   224  112  114 am   BACKBONE|DICT|INTERRES
   225  114  115 1    
   226  114  235 1    
   227  115  116 1    
   228  115  117 1    
   229  115  236 1    
   230  116  237 1    
   231  116  238 1    
   232  116  239 1    
   233  117  118 2    
   234  117  119 am   BACKBONE|DICT|INTERRES
   235  119  120 1    
   236  119  240 1    
   237  120  121 1    
   238  120  124 1    
   239  120  241 1    
   240  121  122 am   BACKBONE|DICT|INTERRES
   241  121  123 2    
   242  122  242 1    
   243  122  243 1    
   244  124  125 1    
   245  124  244 1    
   246  124  245 1    
   247  125  126 1    
   248  126  246 1    
   249  126  247 1    
@<TRIPOS>SUBSTRUCTURE
     1 UNK         1 GROUP             0       ****    0 ROOT    
