@<TRIPOS>MOLECULE
3R540
247   249    1
SMALL
USER_CHARGES


@<TRIPOS>ATOM
      1 CA          0.3959  -11.9678  -46.4204 C.3       0 UNK        -0.1800 
      2 C          -0.0902  -12.9178  -45.3359 C.2       0 UNK         0.5000 
      3 O           0.6953  -13.3524  -44.4936 O.2       0 UNK        -0.5000 
      4 N          -1.3913  -13.2337  -45.3478 N.am      1 UNK        -0.5000 
      5 CA         -2.0386  -14.1834  -44.4338 C.3       1 UNK         0.1400 
      6 C6         -3.4591  -14.5693  -44.9179 C.3       23 UNK        -0.0398 
      7 S7         -3.3994  -15.9814  -46.0652 S.3       23 UNK        -0.2404 
      8 C8         -3.1252  -15.1871  -47.6743 C.3       23 UNK        -0.0205 
      9 C9         -2.7859  -16.2386  -48.7160 C.ar      23 UNK        -0.0193 
     10 C10        -3.7751  -16.7442  -49.5628 C.ar      23 UNK        -0.1150 
     11 C11        -3.4698  -17.7432  -50.4914 C.ar      23 UNK        -0.0193 
     12 C12        -2.1606  -18.2256  -50.5764 C.ar      23 UNK        -0.1150 
     13 C13        -1.1614  -17.7255  -49.7371 C.ar      23 UNK        -0.0193 
     14 C14        -1.4805  -16.7276  -48.8120 C.ar      23 UNK        -0.1150 
     15 C15         0.2641  -18.2536  -49.8302 C.3       23 UNK        -0.0205 
     16 S16         0.4316  -19.9685  -49.2329 S.3       23 UNK        -0.2404 
     17 C17        -0.1371  -19.8429  -47.5011 C.3       23 UNK        -0.0398 
     18 CA         -1.0951  -20.9874  -47.0932 C.3       11 UNK         0.1400 
     19 N          -1.2748  -21.0394  -45.6401 N.am      11 UNK        -0.5000 
     20 C          -1.7855  -22.0857  -44.9739 C.2       10 UNK         0.5000 
     21 O          -2.1324  -23.1300  -45.5205 O.2       10 UNK        -0.5000 
     22 CA         -1.9817  -21.9382  -43.4511 C.3       10 UNK         0.1400 
     23 CB         -0.7369  -22.4350  -42.7015 C.3       10 UNK        -0.1800 
     24 N          -2.2756  -20.5689  -43.0318 N.am      10 UNK        -0.5000 
     25 C          -3.3225  -19.8410  -43.4440 C.2       9 UNK         0.5000 
     26 O          -4.2261  -20.2904  -44.1502 O.2       9 UNK        -0.5000 
     27 CA         -3.3267  -18.3476  -43.0558 C.3       9 UNK         0.1400 
     28 CB         -4.2430  -18.1076  -41.8479 C.3       9 UNK        -0.1800 
     29 N          -2.0009  -17.7788  -42.7698 N.am      9 UNK        -0.5000 
     30 C          -0.9469  -17.7844  -43.5978 C.2       8 UNK         0.5000 
     31 O          -0.9553  -18.3035  -44.7180 O.2       8 UNK        -0.5000 
     32 CA          0.3460  -17.1481  -43.0687 C.3       8 UNK         0.1400 
     33 CB          0.9717  -18.0296  -41.9689 C.3       8 UNK        -0.1800 
     34 N           1.2629  -17.0007  -44.1932 N.am      8 UNK        -0.5000 
     35 C           2.4136  -16.3241  -44.1993 C.2       7 UNK         0.5000 
     36 O           2.8579  -15.7157  -43.2243 O.2       7 UNK        -0.5000 
     37 CA          3.1869  -16.3220  -45.5288 C.3       7 UNK         0.1400 
     38 CB          2.7597  -15.1443  -46.4155 C.3       7 UNK        -0.1800 
     39 N           4.6243  -16.2384  -45.2822 N.am      7 UNK        -0.5000 
     40 C           5.4040  -17.3006  -45.0396 C.2       6 UNK         0.5000 
     41 O           5.0027  -18.4646  -45.0848 O.2       6 UNK        -0.5000 
     42 CA          6.8822  -17.0329  -44.6967 C.3       6 UNK         0.1400 
     43 CB          7.7563  -17.1532  -45.9547 C.3       6 UNK        -0.1800 
     44 N           7.1078  -15.7231  -44.0872 N.am      6 UNK        -0.5000 
     45 C           6.7628  -15.3913  -42.8365 C.2       5 UNK         0.5000 
     46 O           6.2447  -16.1735  -42.0385 O.2       5 UNK        -0.5000 
     47 CA          7.0517  -13.9441  -42.3913 C.3       5 UNK         0.1400 
     48 CB          8.1941  -13.2622  -43.1780 C.3       5 UNK        -0.1800 
     49 N           5.8446  -13.1162  -42.4123 N.am      5 UNK        -0.5000 
     50 C           5.0580  -12.8351  -43.4600 C.2       4 UNK         0.5000 
     51 O           5.2392  -13.2761  -44.5979 O.2       4 UNK        -0.5000 
     52 CA          3.8651  -11.9038  -43.1620 C.3       4 UNK         0.1400 
     53 CB          3.3009  -11.2427  -44.4291 C.3       4 UNK        -0.1800 
     54 N           2.7962  -12.6198  -42.4652 N.am      4 UNK        -0.5000 
     55 C           2.8270  -12.9435  -41.1645 C.2       3 UNK         0.5000 
     56 O           3.7451  -12.6084  -40.4106 O.2       3 UNK        -0.5000 
     57 CA          1.6408  -13.7679  -40.6186 C.3       3 UNK         0.1400 
     58 CB          1.6772  -13.9338  -39.0851 C.3       3 UNK        -0.1800 
     59 N           0.3312  -13.2635  -41.0408 N.am      3 UNK        -0.5000 
     60 C          -0.1917  -12.0433  -40.8527 C.2       2 UNK         0.5000 
     61 O           0.4020  -11.1266  -40.2822 O.2       2 UNK        -0.5000 
     62 CA         -1.6252  -11.8159  -41.3957 C.3       2 UNK         0.1400 
     63 CB         -1.9947  -10.3238  -41.4804 C.3       2 UNK        -0.1800 
     64 N          -1.8387  -12.4224  -42.7131 N.am      2 UNK        -0.5000 
     65 C          -2.0342  -13.7248  -42.9598 C.2       1 UNK         0.5000 
     66 O          -2.1303  -14.5714  -42.0706 O.2       1 UNK        -0.5000 
     67 C          -2.4527  -20.9214  -47.8265 C.2       11 UNK         0.5000 
     68 O          -2.6290  -21.6063  -48.8359 O.2       11 UNK        -0.5000 
     69 N          -3.4081  -20.1561  -47.2770 N.am      12 UNK        -0.5000 
     70 CA         -4.7850  -20.0979  -47.7694 C.3       12 UNK         0.1400 
     71 CB         -5.5359  -18.9259  -47.1217 C.3       12 UNK        -0.1800 
     72 C          -5.5308  -21.4216  -47.5369 C.2       12 UNK         0.5000 
     73 O          -6.1924  -21.9113  -48.4521 O.2       12 UNK        -0.5000 
     74 N          -5.3671  -22.0041  -46.3394 N.am      13 UNK        -0.5000 
     75 CA         -5.9322  -23.3031  -45.9607 C.3       13 UNK         0.1400 
     76 CB         -5.6531  -23.5682  -44.4743 C.3       13 UNK        -0.1800 
     77 C          -5.4131  -24.4668  -46.8295 C.2       13 UNK         0.5000 
     78 O          -6.1823  -25.3680  -47.1639 O.2       13 UNK        -0.5000 
     79 N          -4.1315  -24.4014  -47.2135 N.am      14 UNK        -0.5000 
     80 CA         -3.4700  -25.3346  -48.1254 C.3       14 UNK         0.1400 
     81 CB         -1.9579  -25.3117  -47.8473 C.3       14 UNK        -0.1800 
     82 C          -3.7492  -25.0510  -49.6160 C.2       14 UNK         0.5000 
     83 O          -3.1970  -25.7566  -50.4595 O.2       14 UNK        -0.5000 
     84 N          -4.5624  -24.0301  -49.9291 N.am      15 UNK        -0.5000 
     85 CA         -4.9520  -23.5920  -51.2736 C.3       15 UNK         0.1400 
     86 CB         -5.8442  -24.6516  -51.9532 C.3       15 UNK        -0.1800 
     87 C          -3.7398  -23.1850  -52.1343 C.2       15 UNK         0.5000 
     88 O          -3.5752  -23.6754  -53.2542 O.2       15 UNK        -0.5000 
     89 N          -2.8953  -22.3123  -51.5670 N.am      16 UNK        -0.5000 
     90 CA         -1.6347  -21.8204  -52.1269 C.3       16 UNK         0.1400 
     91 CB         -1.8761  -21.0173  -53.4233 C.3       16 UNK        -0.1800 
     92 C          -0.5981  -22.9484  -52.2838 C.2       16 UNK         0.5000 
     93 O           0.0483  -23.0557  -53.3254 O.2       16 UNK        -0.5000 
     94 N          -0.4871  -23.7873  -51.2424 N.am      17 UNK        -0.5000 
     95 CA          0.3726  -24.9744  -51.1569 C.3       17 UNK         0.1400 
     96 CB          1.8602  -24.5683  -51.1087 C.3       17 UNK        -0.1800 
     97 C           0.0546  -26.0050  -52.2619 C.2       17 UNK         0.5000 
     98 O           0.9544  -26.4751  -52.9601 O.2       17 UNK        -0.5000 
     99 N          -1.2432  -26.3078  -52.4030 N.am      18 UNK        -0.5000 
    100 CA        -1.8648  -27.2262  -53.3606 C.3       18 UNK         0.1400 
    101 CB        -1.3613  -28.6695  -53.1500 C.3       18 UNK        -0.1800 
    102 C         -1.7832  -26.7804  -54.8366 C.2       18 UNK         0.5000 
    103 O         -2.0837  -27.5841  -55.7213 O.2       18 UNK        -0.5000 
    104 N         -1.4187  -25.5155  -55.0956 N.am      19 UNK        -0.5000 
    105 CA        -1.4095  -24.9279  -56.4385 C.3       19 UNK         0.1400 
    106 CB        -0.5344  -23.6664  -56.4453 C.3       19 UNK        -0.1800 
    107 C         -2.8242  -24.6001  -56.9534 C.2       19 UNK         0.5000 
    108 O         -3.0183  -24.5284  -58.1672 O.2       19 UNK        -0.5000 
    109 N         -3.7747  -24.4005  -56.0260 N.am      20 UNK        -0.5000 
    110 CA        -5.1872  -24.0737  -56.2469 C.3       20 UNK         0.1400 
    111 CB        -5.9109  -25.2017  -57.0112 C.3       20 UNK        -0.1800 
    112 C         -5.4048  -22.6796  -56.8721 C.2       20 UNK         0.5000 
    113 O         -6.4378  -22.4407  -57.4993 O.2       20 UNK        -0.5000 
    114 N         -4.4384  -21.7727  -56.6683 N.am      21 UNK        -0.5000 
    115 CA        -4.4729  -20.3890  -57.1480 C.3       21 UNK         0.1400 
    116 CB        -3.0631  -19.7878  -57.0377 C.3       21 UNK        -0.1800 
    117 C         -5.4915  -19.5166  -56.3894 C.2       21 UNK         0.5000 
    118 O         -6.0501  -18.5857  -56.9713 O.2       21 UNK        -0.5000 
    119 N         -5.7154  -19.8403  -55.1118 N.am      22 UNK        -0.5000 
    120 CA        -6.6260  -19.1376  -54.1970 C.3       22 UNK         0.1400 
    121 C         -7.1703  -20.0505  -53.0601 C.2       22 UNK         0.5000 
    122 N         -7.1772  -21.3686  -53.2228 N.am      22 UNK        -0.7600 
    123 O         -7.6179  -19.5685  -52.0240 O.2       22 UNK        -0.5000 
    124 C124       -6.0739  -17.7641  -53.7143 C.3       23 UNK        -0.0398 
    125 S125       -4.3489  -17.7753  -53.1103 S.3       23 UNK        -0.2404 
    126 C126       -4.5591  -18.3118  -51.3860 C.3       23 UNK        -0.0205 
    127 H127        0.6972  -11.0176  -45.9804 H         1 UNK         0.0600 
    128 H128       -0.3789  -11.7690  -47.1611 H         1 UNK         0.0600 
    129 H129        1.2542  -12.3959  -46.9378 H         1 UNK         0.0600 
    130 H130       -1.9893  -12.8195  -46.0479 H         1 UNK         0.3000 
    131 H131       -1.4185  -15.0804  -44.4431 H         1 UNK         0.0600 
    132 H132       -4.0908  -14.8883  -44.0862 H         1 UNK         0.0800 
    133 H133       -3.9762  -13.7254  -45.3769 H         1 UNK         0.0800 
    134 H134       -4.0147  -14.6255  -47.9637 H         1 UNK         0.0800 
    135 H135       -2.3068  -14.4707  -47.6074 H         1 UNK         0.0800 
    136 H136       -4.7869  -16.3720  -49.4850 H         1 UNK         0.1150 
    137 H137       -1.9204  -18.9900  -51.2981 H         1 UNK         0.1150 
    138 H138       -0.7177  -16.3402  -48.1511 H         1 UNK         0.1150 
    139 H139        0.5912  -18.2110  -50.8700 H         1 UNK         0.0800 
    140 H140        0.9498  -17.6160  -49.2699 H         1 UNK         0.0800 
    141 H141       -0.6004  -18.8747  -47.3137 H         1 UNK         0.0800 
    142 H142        0.7535  -19.8692  -46.8719 H         1 UNK         0.0800 
    143 H143       -0.6222  -21.9275  -47.3864 H         1 UNK         0.0600 
    144 H144       -1.0678  -20.1828  -45.1346 H         1 UNK         0.3000 
    145 H145       -2.8280  -22.5628  -43.1612 H         1 UNK         0.0600 
    146 H146       -0.8910  -22.4143  -41.6225 H         1 UNK         0.0600 
    147 H147       -0.5017  -23.4645  -42.9751 H         1 UNK         0.0600 
    148 H148        0.1394  -21.8263  -42.9283 H         1 UNK         0.0600 
    149 H149       -1.5863  -20.1169  -42.4505 H         1 UNK         0.3000 
    150 H150       -3.7427  -17.8053  -43.9042 H         1 UNK         0.0600 
    151 H151       -3.8644  -18.6009  -40.9519 H         1 UNK         0.0600 
    152 H152       -5.2470  -18.4909  -42.0357 H         1 UNK         0.0600 
    153 H153       -4.3384  -17.0430  -41.6321 H         1 UNK         0.0600 
    154 H154       -1.9100  -17.3123  -41.8781 H         1 UNK         0.3000 
    155 H155        0.1147  -16.1595  -42.6689 H         1 UNK         0.0600 
    156 H156        1.8765  -17.5803  -41.5598 H         1 UNK         0.0600 
    157 H157        1.2340  -19.0176  -42.3493 H         1 UNK         0.0600 
    158 H158        0.2846  -18.1697  -41.1337 H         1 UNK         0.0600 
    159 H159        0.9311  -17.4555  -45.0352 H         1 UNK         0.3000 
    160 H160        2.9634  -17.2460  -46.0668 H         1 UNK         0.0600 
    161 H161        2.9592  -14.1892  -45.9309 H         1 UNK         0.0600 
    162 H162        1.6922  -15.1865  -46.6347 H         1 UNK         0.0600 
    163 H163        3.2893  -15.1537  -47.3681 H         1 UNK         0.0600 
    164 H164        5.0003  -15.3074  -45.1380 H         1 UNK         0.3000 
    165 H165        7.1998  -17.8006  -43.9878 H         1 UNK         0.0600 
    166 H166        8.8133  -17.0382  -45.7138 H         1 UNK         0.0600 
    167 H167        7.6353  -18.1314  -46.4223 H         1 UNK         0.0600 
    168 H168        7.4963  -16.3993  -46.6989 H         1 UNK         0.0600 
    169 H169        7.4984  -15.0063  -44.6815 H         1 UNK         0.3000 
    170 H170        7.3662  -14.0032  -41.3483 H         1 UNK         0.0600 
    171 H171        9.1012  -13.8675  -43.1547 H         1 UNK         0.0600 
    172 H172        7.9378  -13.0883  -44.2233 H         1 UNK         0.0600 
    173 H173        8.4429  -12.2963  -42.7382 H         1 UNK         0.0600 
    174 H174        5.5265  -12.7857  -41.5075 H         1 UNK         0.3000 
    175 H175        4.2249  -11.0990  -42.5172 H         1 UNK         0.0600 
    176 H176        2.9578  -11.9828  -45.1497 H         1 UNK         0.0600 
    177 H177        2.4633  -10.5865  -44.1929 H         1 UNK         0.0600 
    178 H178        4.0620  -10.6376  -44.9227 H         1 UNK         0.0600 
    179 H179        2.0380  -12.9698  -43.0445 H         1 UNK         0.3000 
    180 H180        1.7373  -14.7634  -41.0517 H         1 UNK         0.0600 
    181 H181        1.6146  -12.9733  -38.5727 H         1 UNK         0.0600 
    182 H182        2.6016  -14.4165  -38.7658 H         1 UNK         0.0600 
    183 H183        0.8520  -14.5547  -38.7363 H         1 UNK         0.0600 
    184 H184       -0.2634  -13.9335  -41.5127 H         1 UNK         0.3000 
    185 H185       -2.3080  -12.2853  -40.6846 H         1 UNK         0.0600 
    186 H186       -1.9299   -9.8457  -40.5021 H         1 UNK         0.0600 
    187 H187       -1.3306   -9.7837  -42.1563 H         1 UNK         0.0600 
    188 H188       -3.0168  -10.1899  -41.8352 H         1 UNK         0.0600 
    189 H189       -1.7190  -11.8103  -43.5068 H         1 UNK         0.3000 
    190 H190       -3.2041  -19.6473  -46.4292 H         1 UNK         0.3000 
    191 H191       -4.7523  -19.9215  -48.8460 H         1 UNK         0.0600 
    192 H192       -5.0704  -17.9758  -47.3744 H         1 UNK         0.0600 
    193 H193       -6.5666  -18.8814  -47.4753 H         1 UNK         0.0600 
    194 H194       -5.5649  -19.0063  -46.0354 H         1 UNK         0.0600 
    195 H195       -4.8357  -21.5099  -45.6291 H         1 UNK         0.3000 
    196 H196       -7.0136  -23.2430  -46.0985 H         1 UNK         0.0600 
    197 H197       -6.1432  -24.4850  -44.1444 H         1 UNK         0.0600 
    198 H198       -6.0248  -22.7559  -43.8492 H         1 UNK         0.0600 
    199 H199       -4.5869  -23.6810  -44.2808 H         1 UNK         0.0600 
    200 H200       -3.5465  -23.6675  -46.8269 H         1 UNK         0.3000 
    201 H201       -3.8340  -26.3429  -47.9184 H         1 UNK         0.0600 
    202 H202       -1.4345  -26.0533  -48.4513 H         1 UNK         0.0600 
    203 H203       -1.7466  -25.5452  -46.8037 H         1 UNK         0.0600 
    204 H204       -1.5237  -24.3356  -48.0667 H         1 UNK         0.0600 
    205 H205       -4.9543  -23.4837  -49.1712 H         1 UNK         0.3000 
    206 H206       -5.5504  -22.6899  -51.1403 H         1 UNK         0.0600 
    207 H207       -5.2964  -25.5701  -52.1662 H         1 UNK         0.0600 
    208 H208       -6.6972  -24.9084  -51.3251 H         1 UNK         0.0600 
    209 H209       -6.2388  -24.2811  -52.8990 H         1 UNK         0.0600 
    210 H210       -3.0670  -22.0303  -50.6037 H         1 UNK         0.3000 
    211 H211       -1.2193  -21.1386  -51.3867 H         1 UNK         0.0600 
    212 H212       -0.9572  -20.5369  -53.7608 H         1 UNK         0.0600 
    213 H213       -2.6152  -20.2326  -53.2693 H         1 UNK         0.0600 
    214 H214       -2.2304  -21.6497  -54.2361 H         1 UNK         0.0600 
    215 H215       -1.0894  -23.6217  -50.4491 H         1 UNK         0.3000 
    216 H216        0.1372  -25.4608  -50.2099 H         1 UNK         0.0600 
    217 H217        2.4956  -25.4369  -50.9323 H         1 UNK         0.0600 
    218 H218        2.0486  -23.8592  -50.3025 H         1 UNK         0.0600 
    219 H219        2.1875  -24.1090  -52.0419 H         1 UNK         0.0600 
    220 H220       -1.9030  -25.8872  -51.7505 H         1 UNK         0.3000 
    221 H221       -2.9277  -27.2162  -53.1148 H         1 UNK         0.0600 
    222 H222       -0.3189  -28.7837  -53.4482 H         1 UNK         0.0600 
    223 H223       -1.4476  -28.9684  -52.1054 H         1 UNK         0.0600 
    224 H224       -1.9464  -29.3786  -53.7367 H         1 UNK         0.0600 
    225 H225       -1.1745  -24.9071  -54.3251 H         1 UNK         0.3000 
    226 H226       -0.9641  -25.6479  -57.1282 H         1 UNK         0.0600 
    227 H227        0.4726  -23.8812  -56.0870 H         1 UNK         0.0600 
    228 H228       -0.4419  -23.2616  -57.4539 H         1 UNK         0.0600 
    229 H229       -0.9537  -22.8811  -55.8172 H         1 UNK         0.0600 
    230 H230       -3.4968  -24.4169  -55.0476 H         1 UNK         0.3000 
    231 H231       -5.6337  -24.0218  -55.2538 H         1 UNK         0.0600 
    232 H232       -5.5836  -25.2654  -58.0491 H         1 UNK         0.0600 
    233 H233       -6.9892  -25.0387  -57.0201 H         1 UNK         0.0600 
    234 H234       -5.7348  -26.1702  -56.5430 H         1 UNK         0.0600 
    235 H235       -3.6207  -22.0590  -56.1514 H         1 UNK         0.3000 
    236 H236       -4.7601  -20.3984  -58.2015 H         1 UNK         0.0600 
    237 H237       -3.0413  -18.7723  -57.4353 H         1 UNK         0.0600 
    238 H238       -2.7243  -19.7397  -56.0022 H         1 UNK         0.0600 
    239 H239       -2.3376  -20.3734  -57.6027 H         1 UNK         0.0600 
    240 H240       -5.1910  -20.6003  -54.7056 H         1 UNK         0.3000 
    241 H241       -7.5275  -18.9146  -54.7706 H         1 UNK         0.0600 
    242 H242       -7.5735  -21.9376  -52.4922 H         1 UNK         0.3800 
    243 H243       -6.9372  -21.7832  -54.1070 H         1 UNK         0.3800 
    244 H244       -6.0982  -17.0699  -54.5549 H         1 UNK         0.0800 
    245 H245       -6.7248  -17.3114  -52.9649 H         1 UNK         0.0800 
    246 H246       -5.5401  -18.0093  -51.0171 H         1 UNK         0.0800 
    247 H247       -4.5372  -19.4019  -51.3448 H         1 UNK         0.0800 
@<TRIPOS>BOND
     1    1    2 1    
     2    1  127 1    
     3    1  128 1    
     4    1  129 1    
     5    2    3 2    
     6    2    4 am   BACKBONE|DICT|INTERRES
     7    4    5 1    
     8    4  130 1    
     9    5    6 1    
    10    5   65 1    
    11    5  131 1    
    12    6    7 1    
    13    6  132 1    
    14    6  133 1    
    15    7    8 1    
    16    8    9 1    
    17    8  134 1    
    18    8  135 1    
    19    9   10 ar   
    20    9   14 ar   
    21   10   11 ar   
    22   10  136 1    
    23   11   12 ar   
    24   11  126 1    
    25   12   13 ar   
    26   12  137 1    
    27   13   14 ar   
    28   13   15 1    
    29   14  138 1    
    30   15   16 1    
    31   15  139 1    
    32   15  140 1    
    33   16   17 1    
    34   17   18 1    
    35   17  141 1    
    36   17  142 1    
    37   18   19 1    
    38   18   67 1    
    39   18  143 1    
    40   19   20 am   BACKBONE|DICT|INTERRES
    41   19  144 1    
    42   20   21 2    
    43   20   22 1    
    44   22   23 1    
    45   22   24 1    
    46   22  145 1    
    47   23  146 1    
    48   23  147 1    
    49   23  148 1    
    50   24   25 am   BACKBONE|DICT|INTERRES
    51   24  149 1    
    52   25   26 2    
    53   25   27 1    
    54   27   28 1    
    55   27   29 1    
    56   27  150 1    
    57   28  151 1    
    58   28  152 1    
    59   28  153 1    
    60   29   30 am   BACKBONE|DICT|INTERRES
    61   29  154 1    
    62   30   31 2    
    63   30   32 1    
    64   32   33 1    
    65   32   34 1    
    66   32  155 1    
    67   33  156 1    
    68   33  157 1    
    69   33  158 1    
    70   34   35 am   BACKBONE|DICT|INTERRES
    71   34  159 1    
    72   35   36 2    
    73   35   37 1    
    74   37   38 1    
    75   37   39 1    
    76   37  160 1    
    77   38  161 1    
    78   38  162 1    
    79   38  163 1    
    80   39   40 am   BACKBONE|DICT|INTERRES
    81   39  164 1    
    82   40   41 2    
    83   40   42 1    
    84   42   43 1    
    85   42   44 1    
    86   42  165 1    
    87   43  166 1    
    88   43  167 1    
    89   43  168 1    
    90   44   45 am   BACKBONE|DICT|INTERRES
    91   44  169 1    
    92   45   46 2    
    93   45   47 1    
    94   47   48 1    
    95   47   49 1    
    96   47  170 1    
    97   48  171 1    
    98   48  172 1    
    99   48  173 1    
   100   49   50 am   BACKBONE|DICT|INTERRES
   101   49  174 1    
   102   50   51 2    
   103   50   52 1    
   104   52   53 1    
   105   52   54 1    
   106   52  175 1    
   107   53  176 1    
   108   53  177 1    
   109   53  178 1    
   110   54   55 am   BACKBONE|DICT|INTERRES
   111   54  179 1    
   112   55   56 2    
   113   55   57 1    
   114   57   58 1    
   115   57   59 1    
   116   57  180 1    
   117   58  181 1    
   118   58  182 1    
   119   58  183 1    
   120   59   60 am   BACKBONE|DICT|INTERRES
   121   59  184 1    
   122   60   61 2    
   123   60   62 1    
   124   62   63 1    
   125   62   64 1    
   126   62  185 1    
   127   63  186 1    
   128   63  187 1    
   129   63  188 1    
   130   64   65 am   BACKBONE|DICT|INTERRES
   131   64  189 1    
   132   65   66 2    
   133   67   68 2    
   134   67   69 am   BACKBONE|DICT|INTERRES
   135   69   70 1    
   136   69  190 1    
   137   70   71 1    
   138   70   72 1    
   139   70  191 1    
   140   71  192 1    
   141   71  193 1    
   142   71  194 1    
   143   72   73 2    
   144   72   74 am   BACKBONE|DICT|INTERRES
   145   74   75 1    
   146   74  195 1    
   147   75   76 1    
   148   75   77 1    
   149   75  196 1    
   150   76  197 1    
   151   76  198 1    
   152   76  199 1    
   153   77   78 2    
   154   77   79 am   BACKBONE|DICT|INTERRES
   155   79   80 1    
   156   79  200 1    
   157   80   81 1    
   158   80   82 1    
   159   80  201 1    
   160   81  202 1    
   161   81  203 1    
   162   81  204 1    
   163   82   83 2    
   164   82   84 am   BACKBONE|DICT|INTERRES
   165   84   85 1    
   166   84  205 1    
   167   85   86 1    
   168   85   87 1    
   169   85  206 1    
   170   86  207 1    
   171   86  208 1    
   172   86  209 1    
   173   87   88 2    
   174   87   89 am   BACKBONE|DICT|INTERRES
   175   89   90 1    
   176   89  210 1    
   177   90   91 1    
   178   90   92 1    
   179   90  211 1    
   180   91  212 1    
   181   91  213 1    
   182   91  214 1    
   183   92   93 2    
   184   92   94 am   BACKBONE|DICT|INTERRES
   185   94   95 1    
   186   94  215 1    
   187   95   96 1    
   188   95   97 1    
   189   95  216 1    
   190   96  217 1    
   191   96  218 1    
   192   96  219 1    
   193   97   98 2    
   194   97   99 am   BACKBONE|DICT|INTERRES
   195   99  100 1    
   196   99  220 1    
   197  100  101 1    
   198  100  102 1    
   199  100  221 1    
   200  101  222 1    
   201  101  223 1    
   202  101  224 1    
   203  102  103 2    
   204  102  104 am   BACKBONE|DICT|INTERRES
   205  104  105 1    
   206  104  225 1    
   207  105  106 1    
   208  105  107 1    
   209  105  226 1    
   210  106  227 1    
   211  106  228 1    
   212  106  229 1    
   213  107  108 2    
   214  107  109 am   BACKBONE|DICT|INTERRES
   215  109  110 1    
   216  109  230 1    
   217  110  111 1    
   218  110  112 1    
   219  110  231 1    
   220  111  232 1    
   221  111  233 1    
   222  111  234 1    
   223  112  113 2    
   224  112  114 am   BACKBONE|DICT|INTERRES
   225  114  115 1    
   226  114  235 1    
   227  115  116 1    
   228  115  117 1    
   229  115  236 1    
   230  116  237 1    
   231  116  238 1    
   232  116  239 1    
   233  117  118 2    
   234  117  119 am   BACKBONE|DICT|INTERRES
   235  119  120 1    
   236  119  240 1    
   237  120  121 1    
   238  120  124 1    
   239  120  241 1    
   240  121  122 am   BACKBONE|DICT|INTERRES
   241  121  123 2    
   242  122  242 1    
   243  122  243 1    
   244  124  125 1    
   245  124  244 1    
   246  124  245 1    
   247  125  126 1    
   248  126  246 1    
   249  126  247 1    
@<TRIPOS>SUBSTRUCTURE
     1 UNK         1 GROUP             0       ****    0 ROOT    
