@<TRIPOS>MOLECULE
3R540
247   249    1
SMALL
USER_CHARGES


@<TRIPOS>ATOM
      1 CA         -4.3702  -16.4542  -45.3408 C.3       0 UNK        -0.1800 
      2 C          -3.2723  -16.3335  -46.3875 C.2       0 UNK         0.5000 
      3 O          -2.2984  -17.0845  -46.3484 O.2       0 UNK        -0.5000 
      4 N          -3.4104  -15.3676  -47.3059 N.am      1 UNK        -0.5000 
      5 CA         -2.4774  -15.0032  -48.3849 C.3       1 UNK         0.1400 
      6 C6         -2.1796  -16.1654  -49.3729 C.3       23 UNK        -0.0398 
      7 S7         -1.7796  -15.5736  -51.0532 S.3       23 UNK        -0.2404 
      8 C8          0.0441  -15.6036  -51.0652 C.3       23 UNK        -0.0205 
      9 C9          0.5935  -17.0040  -51.2890 C.ar      23 UNK        -0.0193 
     10 C10         0.6645  -17.5275  -52.5826 C.ar      23 UNK        -0.1150 
     11 C11         1.1698  -18.8111  -52.8021 C.ar      23 UNK        -0.0193 
     12 C12         1.5987  -19.5722  -51.7118 C.ar      23 UNK        -0.1150 
     13 C13         1.5107  -19.0779  -50.4069 C.ar      23 UNK        -0.0193 
     14 C14         1.0349  -17.7738  -50.2090 C.ar      23 UNK        -0.1150 
     15 C15         1.9234  -20.0146  -49.2692 C.3       23 UNK        -0.0205 
     16 S16         1.7841  -19.3731  -47.5661 S.3       23 UNK        -0.2404 
     17 C17        -0.0179  -19.2360  -47.3052 C.3       23 UNK        -0.0398 
     18 CA         -0.7219  -20.5736  -46.9937 C.3       11 UNK         0.1400 
     19 N          -0.1144  -21.2908  -45.8675 N.am      11 UNK        -0.5000 
     20 C          -0.4148  -22.5495  -45.5129 C.2       10 UNK         0.5000 
     21 O          -1.2602  -23.2308  -46.0958 O.2       10 UNK        -0.5000 
     22 CA          0.3035  -23.1296  -44.2794 C.3       10 UNK         0.1400 
     23 CB          1.5489  -23.9163  -44.7129 C.3       10 UNK        -0.1800 
     24 N           0.6934  -22.1185  -43.2936 N.am      10 UNK        -0.5000 
     25 C          -0.1541  -21.3151  -42.6343 C.2       9 UNK         0.5000 
     26 O          -1.3764  -21.3615  -42.7650 O.2       9 UNK        -0.5000 
     27 CA          0.4645  -20.2492  -41.7092 C.3       9 UNK         0.1400 
     28 CB          0.4900  -20.7415  -40.2551 C.3       9 UNK        -0.1800 
     29 N           1.8141  -19.8233  -42.0931 N.am      9 UNK        -0.5000 
     30 C           2.1462  -19.2478  -43.2577 C.2       8 UNK         0.5000 
     31 O           1.3418  -19.0535  -44.1707 O.2       8 UNK        -0.5000 
     32 CA          3.6098  -18.7943  -43.3823 C.3       8 UNK         0.1400 
     33 CB          3.8849  -17.9793  -44.6559 C.3       8 UNK        -0.1800 
     34 N           3.9481  -17.9675  -42.2294 N.am      8 UNK        -0.5000 
     35 C           5.0171  -18.1180  -41.4380 C.2       7 UNK         0.5000 
     36 O           5.8150  -19.0513  -41.5409 O.2       7 UNK        -0.5000 
     37 CA          5.2200  -17.0364  -40.3533 C.3       7 UNK         0.1400 
     38 CB          6.6655  -16.9747  -39.8177 C.3       7 UNK        -0.1800 
     39 N           4.7595  -15.7111  -40.7852 N.am      7 UNK        -0.5000 
     40 C           5.2120  -14.9840  -41.8207 C.2       6 UNK         0.5000 
     41 O           6.1928  -15.2961  -42.4970 O.2       6 UNK        -0.5000 
     42 CA          4.4197  -13.7138  -42.1943 C.3       6 UNK         0.1400 
     43 CB          4.0073  -13.7560  -43.6745 C.3       6 UNK        -0.1800 
     44 N           3.2077  -13.5662  -41.3867 N.am      6 UNK        -0.5000 
     45 C           3.0866  -12.7777  -40.3104 C.2       5 UNK         0.5000 
     46 O           3.9728  -12.0215  -39.9120 O.2       5 UNK        -0.5000 
     47 CA          1.7621  -12.8717  -39.5239 C.3       5 UNK         0.1400 
     48 CB          0.7644  -11.8182  -40.0286 C.3       5 UNK        -0.1800 
     49 N           1.1323  -14.1929  -39.5954 N.am      5 UNK        -0.5000 
     50 C           1.6663  -15.3336  -39.1356 C.2       4 UNK         0.5000 
     51 O           2.7381  -15.3900  -38.5343 O.2       4 UNK        -0.5000 
     52 CA          0.9161  -16.6410  -39.4586 C.3       4 UNK         0.1400 
     53 CB          0.0539  -17.0779  -38.2656 C.3       4 UNK        -0.1800 
     54 N           0.0729  -16.5626  -40.6552 N.am      4 UNK        -0.5000 
     55 C           0.5092  -16.3129  -41.8976 C.2       3 UNK         0.5000 
     56 O           1.6989  -16.1224  -42.1663 O.2       3 UNK        -0.5000 
     57 CA         -0.5757  -16.2976  -42.9946 C.3       3 UNK         0.1400 
     58 CB         -1.7735  -15.4027  -42.6062 C.3       3 UNK        -0.1800 
     59 N          -0.0821  -15.9339  -44.3252 N.am      3 UNK        -0.5000 
     60 C           0.4272  -14.7560  -44.7207 C.2       2 UNK         0.5000 
     61 O           0.6101  -13.7916  -43.9772 O.2       2 UNK        -0.5000 
     62 CA          0.6941  -14.6092  -46.2273 C.3       2 UNK         0.1400 
     63 CB          1.9105  -15.4320  -46.6791 C.3       2 UNK        -0.1800 
     64 N          -0.4860  -15.0548  -46.9618 N.am      2 UNK        -0.5000 
     65 C          -1.1831  -14.3458  -47.8528 C.2       1 UNK         0.5000 
     66 O          -0.8633  -13.2214  -48.2401 O.2       1 UNK        -0.5000 
     67 C          -2.2406  -20.3539  -46.8170 C.2       11 UNK         0.5000 
     68 O          -2.9520  -20.2454  -47.8175 O.2       11 UNK        -0.5000 
     69 N          -2.7232  -20.3645  -45.5643 N.am      12 UNK        -0.5000 
     70 CA         -4.1423  -20.2867  -45.2152 C.3       12 UNK         0.1400 
     71 CB         -4.2800  -20.0479  -43.7044 C.3       12 UNK        -0.1800 
     72 C          -4.9560  -21.5245  -45.6505 C.2       12 UNK         0.5000 
     73 O          -6.1836  -21.4452  -45.6930 O.2       12 UNK        -0.5000 
     74 N          -4.2707  -22.6305  -45.9695 N.am      13 UNK        -0.5000 
     75 CA         -4.8499  -23.8271  -46.5733 C.3       13 UNK         0.1400 
     76 CB         -4.4793  -25.0502  -45.7194 C.3       13 UNK        -0.1800 
     77 C          -4.3525  -24.0082  -48.0175 C.2       13 UNK         0.5000 
     78 O          -5.1445  -24.3719  -48.8869 O.2       13 UNK        -0.5000 
     79 N          -3.0510  -23.7802  -48.2482 N.am      14 UNK        -0.5000 
     80 CA         -2.3817  -24.0745  -49.5154 C.3       14 UNK         0.1400 
     81 CB         -0.8680  -24.1847  -49.2717 C.3       14 UNK        -0.1800 
     82 C          -2.6663  -23.0702  -50.6465 C.2       14 UNK         0.5000 
     83 O          -2.5758  -23.4650  -51.8088 O.2       14 UNK        -0.5000 
     84 N          -2.9680  -21.8083  -50.3095 N.am      15 UNK        -0.5000 
     85 CA         -3.1471  -20.7219  -51.2757 C.3       15 UNK         0.1400 
     86 CB         -2.0064  -19.7076  -51.1207 C.3       15 UNK        -0.1800 
     87 C          -4.5071  -20.0357  -51.1186 C.2       15 UNK         0.5000 
     88 O          -5.2069  -19.8500  -52.1159 O.2       15 UNK        -0.5000 
     89 N          -4.8792  -19.6778  -49.8825 N.am      16 UNK        -0.5000 
     90 CA         -6.1494  -19.0206  -49.5733 C.3       16 UNK         0.1400 
     91 CB         -6.1620  -18.5936  -48.1026 C.3       16 UNK        -0.1800 
     92 C          -7.3444  -19.9315  -49.9110 C.2       16 UNK         0.5000 
     93 O          -7.4344  -21.0403  -49.3827 O.2       16 UNK        -0.5000 
     94 N          -8.1891  -19.4607  -50.8393 N.am      17 UNK        -0.5000 
     95 CA         -9.3227  -20.1500  -51.4747 C.3       17 UNK         0.1400 
     96 CB        -10.3626  -20.6098  -50.4321 C.3       17 UNK        -0.1800 
     97 C          -8.9296  -21.2935  -52.4398 C.2       17 UNK         0.5000 
     98 O          -9.8133  -21.8512  -53.0922 O.2       17 UNK        -0.5000 
     99 N          -7.6319  -21.6057  -52.5497 N.am      18 UNK        -0.5000 
    100 CA        -7.0743  -22.5815  -53.4873 C.3       18 UNK         0.1400 
    101 CB        -5.9125  -23.3153  -52.8020 C.3       18 UNK        -0.1800 
    102 C         -6.6002  -21.9025  -54.7867 C.2       18 UNK         0.5000 
    103 O         -6.5927  -22.5456  -55.8371 O.2       18 UNK        -0.5000 
    104 N         -6.2334  -20.6149  -54.6940 N.am      19 UNK        -0.5000 
    105 CA        -5.7655  -19.7391  -55.7683 C.3       19 UNK         0.1400 
    106 CB        -6.9014  -19.4613  -56.7797 C.3       19 UNK        -0.1800 
    107 C         -4.4567  -20.2607  -56.3957 C.2       19 UNK         0.5000 
    108 O         -3.5123  -20.5449  -55.6586 O.2       19 UNK        -0.5000 
    109 N         -4.4173  -20.3840  -57.7302 N.am      20 UNK        -0.5000 
    110 CA        -3.2541  -20.7783  -58.5339 C.3       20 UNK         0.1400 
    111 CB        -3.6230  -20.6597  -60.0210 C.3       20 UNK        -0.1800 
    112 C         -2.6830  -22.1800  -58.2314 C.2       20 UNK         0.5000 
    113 O         -1.5546  -22.4687  -58.6350 O.2       20 UNK        -0.5000 
    114 N         -3.4417  -23.0147  -57.5062 N.am      21 UNK        -0.5000 
    115 CA        -3.0437  -24.3427  -57.0333 C.3       21 UNK         0.1400 
    116 CB        -4.2362  -24.9921  -56.3177 C.3       21 UNK        -0.1800 
    117 C         -1.7969  -24.3521  -56.1219 C.2       21 UNK         0.5000 
    118 O         -1.1657  -25.4022  -55.9928 O.2       21 UNK        -0.5000 
    119 N         -1.4423  -23.1996  -55.5338 N.am      22 UNK        -0.5000 
    120 CA        -0.1756  -22.9981  -54.8134 C.3       22 UNK         0.1400 
    121 C          1.1004  -22.9907  -55.7113 C.2       22 UNK         0.5000 
    122 N          0.9923  -22.8978  -57.0330 N.am      22 UNK        -0.7600 
    123 O          2.2111  -23.0819  -55.1958 O.2       22 UNK        -0.5000 
    124 C124       -0.2325  -21.7694  -53.8713 C.3       23 UNK        -0.0398 
    125 S125       -0.3231  -20.1506  -54.7191 S.3       23 UNK        -0.2404 
    126 C126        1.2450  -19.3727  -54.2151 C.3       23 UNK        -0.0205 
    127 H127       -5.2070  -17.0366  -45.7227 H         1 UNK         0.0600 
    128 H128       -4.7404  -15.4718  -45.0475 H         1 UNK         0.0600 
    129 H129       -3.9909  -16.9508  -44.4481 H         1 UNK         0.0600 
    130 H130       -4.2278  -14.7756  -47.2499 H         1 UNK         0.3000 
    131 H131       -3.0092  -14.2281  -48.9397 H         1 UNK         0.0600 
    132 H132       -1.3948  -16.8225  -49.0020 H         1 UNK         0.0800 
    133 H133       -3.0634  -16.7975  -49.4718 H         1 UNK         0.0800 
    134 H134        0.3956  -14.9501  -51.8649 H         1 UNK         0.0800 
    135 H135        0.4353  -15.1790  -50.1400 H         1 UNK         0.0800 
    136 H136        0.3201  -16.9365  -53.4197 H         1 UNK         0.1150 
    137 H137        1.9874  -20.5671  -51.8748 H         1 UNK         0.1150 
    138 H138        0.9879  -17.3492  -49.2179 H         1 UNK         0.1150 
    139 H139        1.3427  -20.9351  -49.3409 H         1 UNK         0.0800 
    140 H140        2.9646  -20.2995  -49.4265 H         1 UNK         0.0800 
    141 H141       -0.1619  -18.5397  -46.4788 H         1 UNK         0.0800 
    142 H142       -0.4756  -18.7738  -48.1778 H         1 UNK         0.0800 
    143 H143       -0.6096  -21.2083  -47.8729 H         1 UNK         0.0600 
    144 H144        0.5635  -20.7679  -45.3249 H         1 UNK         0.3000 
    145 H145       -0.3888  -23.8202  -43.7935 H         1 UNK         0.0600 
    146 H146        2.0222  -24.4072  -43.8624 H         1 UNK         0.0600 
    147 H147        1.2885  -24.6944  -45.4319 H         1 UNK         0.0600 
    148 H148        2.2898  -23.2689  -45.1839 H         1 UNK         0.0600 
    149 H149        1.6821  -22.0051  -43.1268 H         1 UNK         0.3000 
    150 H150       -0.1826  -19.3721  -41.7573 H         1 UNK         0.0600 
    151 H151       -0.5087  -21.0265  -39.9214 H         1 UNK         0.0600 
    152 H152        0.8466  -19.9637  -39.5801 H         1 UNK         0.0600 
    153 H153        1.1369  -21.6116  -40.1368 H         1 UNK         0.0600 
    154 H154        2.5373  -19.9397  -41.3983 H         1 UNK         0.3000 
    155 H155        4.2230  -19.6969  -43.4093 H         1 UNK         0.0600 
    156 H156        4.9240  -17.6528  -44.6985 H         1 UNK         0.0600 
    157 H157        3.2554  -17.0909  -44.6976 H         1 UNK         0.0600 
    158 H158        3.6944  -18.5707  -45.5501 H         1 UNK         0.0600 
    159 H159        3.3147  -17.1885  -42.0674 H         1 UNK         0.3000 
    160 H160        4.5763  -17.3235  -39.5208 H         1 UNK         0.0600 
    161 H161        7.3851  -16.7668  -40.6099 H         1 UNK         0.0600 
    162 H162        6.9521  -17.9212  -39.3580 H         1 UNK         0.0600 
    163 H163        6.7706  -16.2014  -39.0568 H         1 UNK         0.0600 
    164 H164        3.9718  -15.3447  -40.2653 H         1 UNK         0.3000 
    165 H165        5.0814  -12.8580  -42.0478 H         1 UNK         0.0600 
    166 H166        3.4020  -14.6371  -43.8880 H         1 UNK         0.0600 
    167 H167        3.4269  -12.8754  -43.9501 H         1 UNK         0.0600 
    168 H168        4.8791  -13.7890  -44.3288 H         1 UNK         0.0600 
    169 H169        2.4358  -14.1713  -41.6449 H         1 UNK         0.3000 
    170 H170        1.9845  -12.6626  -38.4755 H         1 UNK         0.0600 
    171 H171        1.1908  -10.8159  -39.9689 H         1 UNK         0.0600 
    172 H172        0.4855  -11.9952  -41.0685 H         1 UNK         0.0600 
    173 H173       -0.1471  -11.8184  -39.4307 H         1 UNK         0.0600 
    174 H174        0.2510  -14.2446  -40.0843 H         1 UNK         0.3000 
    175 H175        1.6692  -17.4115  -39.6368 H         1 UNK         0.0600 
    176 H176       -0.7312  -16.3523  -38.0497 H         1 UNK         0.0600 
    177 H177       -0.4210  -18.0414  -38.4514 H         1 UNK         0.0600 
    178 H178        0.6593  -17.1846  -37.3643 H         1 UNK         0.0600 
    179 H179       -0.9156  -16.7066  -40.5081 H         1 UNK         0.3000 
    180 H180       -0.9370  -17.3226  -43.0896 H         1 UNK         0.0600 
    181 H181       -1.4545  -14.3986  -42.3239 H         1 UNK         0.0600 
    182 H182       -2.3294  -15.8191  -41.7659 H         1 UNK         0.0600 
    183 H183       -2.4761  -15.3018  -43.4322 H         1 UNK         0.0600 
    184 H184       -0.1352  -16.6801  -45.0026 H         1 UNK         0.3000 
    185 H185        0.8948  -13.5548  -46.4285 H         1 UNK         0.0600 
    186 H186        2.0920  -15.3075  -47.7467 H         1 UNK         0.0600 
    187 H187        2.8142  -15.1152  -46.1591 H         1 UNK         0.0600 
    188 H188        1.7721  -16.4967  -46.4901 H         1 UNK         0.0600 
    189 H189       -0.9148  -15.9243  -46.6548 H         1 UNK         0.3000 
    190 H190       -2.0805  -20.5005  -44.7945 H         1 UNK         0.3000 
    191 H191       -4.5573  -19.4211  -45.7317 H         1 UNK         0.0600 
    192 H192       -3.6829  -19.1961  -43.3787 H         1 UNK         0.0600 
    193 H193       -5.3169  -19.8405  -43.4374 H         1 UNK         0.0600 
    194 H194       -3.9644  -20.9194  -43.1303 H         1 UNK         0.0600 
    195 H195       -3.2618  -22.6130  -45.8867 H         1 UNK         0.3000 
    196 H196       -5.9390  -23.7562  -46.6081 H         1 UNK         0.0600 
    197 H197       -4.8889  -25.9653  -46.1491 H         1 UNK         0.0600 
    198 H198       -4.8783  -24.9581  -44.7092 H         1 UNK         0.0600 
    199 H199       -3.3987  -25.1775  -45.6412 H         1 UNK         0.0600 
    200 H200       -2.4435  -23.5386  -47.4698 H         1 UNK         0.3000 
    201 H201       -2.7301  -25.0509  -49.8593 H         1 UNK         0.0600 
    202 H202       -0.6430  -24.9398  -48.5183 H         1 UNK         0.0600 
    203 H203       -0.4411  -23.2405  -48.9363 H         1 UNK         0.0600 
    204 H204       -0.3456  -24.4723  -50.1851 H         1 UNK         0.0600 
    205 H205       -3.0487  -21.5591  -49.3303 H         1 UNK         0.3000 
    206 H206       -3.1126  -21.1033  -52.2979 H         1 UNK         0.0600 
    207 H207       -1.0436  -20.1943  -51.2612 H         1 UNK         0.0600 
    208 H208       -2.0813  -18.9140  -51.8653 H         1 UNK         0.0600 
    209 H209       -2.0011  -19.2375  -50.1378 H         1 UNK         0.0600 
    210 H210       -4.2567  -19.8665  -49.1014 H         1 UNK         0.3000 
    211 H211       -6.2045  -18.1148  -50.1810 H         1 UNK         0.0600 
    212 H212       -6.1825  -19.4566  -47.4402 H         1 UNK         0.0600 
    213 H213       -7.0399  -17.9869  -47.8786 H         1 UNK         0.0600 
    214 H214       -5.2798  -18.0015  -47.8648 H         1 UNK         0.0600 
    215 H215       -7.9928  -18.5463  -51.2231 H         1 UNK         0.3000 
    216 H216       -9.8055  -19.3959  -52.0980 H         1 UNK         0.0600 
    217 H217      -10.6446  -19.7929  -49.7678 H         1 UNK         0.0600 
    218 H218       -9.9912  -21.4307  -49.8185 H         1 UNK         0.0600 
    219 H219      -11.2735  -20.9593  -50.9194 H         1 UNK         0.0600 
    220 H220       -6.9641  -21.0800  -52.0006 H         1 UNK         0.3000 
    221 H221       -7.8342  -23.3209  -53.7482 H         1 UNK         0.0600 
    222 H222       -5.0564  -22.6587  -52.6522 H         1 UNK         0.0600 
    223 H223       -6.2067  -23.7080  -51.8282 H         1 UNK         0.0600 
    224 H224       -5.5760  -24.1605  -53.4011 H         1 UNK         0.0600 
    225 H225       -6.1478  -20.2227  -53.7614 H         1 UNK         0.3000 
    226 H226       -5.5104  -18.7908  -55.2934 H         1 UNK         0.0600 
    227 H227       -7.7858  -19.0766  -56.2716 H         1 UNK         0.0600 
    228 H228       -6.6046  -18.7088  -57.5113 H         1 UNK         0.0600 
    229 H229       -7.2005  -20.3582  -57.3232 H         1 UNK         0.0600 
    230 H230       -5.2531  -20.1539  -58.2478 H         1 UNK         0.3000 
    231 H231       -2.4568  -20.0630  -58.3221 H         1 UNK         0.0600 
    232 H232       -2.7727  -20.9075  -60.6579 H         1 UNK         0.0600 
    233 H233       -3.9284  -19.6440  -60.2732 H         1 UNK         0.0600 
    234 H234       -4.4390  -21.3331  -60.2864 H         1 UNK         0.0600 
    235 H235       -4.3469  -22.6846  -57.2001 H         1 UNK         0.3000 
    236 H236       -2.8041  -24.9435  -57.9128 H         1 UNK         0.0600 
    237 H237       -5.1062  -25.0559  -56.9715 H         1 UNK         0.0600 
    238 H238       -3.9967  -26.0056  -55.9933 H         1 UNK         0.0600 
    239 H239       -4.5210  -24.4225  -55.4341 H         1 UNK         0.0600 
    240 H240       -2.0132  -22.3753  -55.6752 H         1 UNK         0.3000 
    241 H241       -0.0575  -23.8669  -54.1627 H         1 UNK         0.0600 
    242 H242        0.0870  -22.8030  -57.4803 H         1 UNK         0.3800 
    243 H243        1.8267  -22.8994  -57.5975 H         1 UNK         0.3800 
    244 H244        0.6243  -21.7910  -53.1999 H         1 UNK         0.0800 
    245 H245       -1.1033  -21.8501  -53.2245 H         1 UNK         0.0800 
    246 H246        2.0616  -20.0911  -54.3037 H         1 UNK         0.0800 
    247 H247        1.4748  -18.5673  -54.9140 H         1 UNK         0.0800 
@<TRIPOS>BOND
     1    1    2 1    
     2    1  127 1    
     3    1  128 1    
     4    1  129 1    
     5    2    3 2    
     6    2    4 am   BACKBONE|DICT|INTERRES
     7    4    5 1    
     8    4  130 1    
     9    5    6 1    
    10    5   65 1    
    11    5  131 1    
    12    6    7 1    
    13    6  132 1    
    14    6  133 1    
    15    7    8 1    
    16    8    9 1    
    17    8  134 1    
    18    8  135 1    
    19    9   10 ar   
    20    9   14 ar   
    21   10   11 ar   
    22   10  136 1    
    23   11   12 ar   
    24   11  126 1    
    25   12   13 ar   
    26   12  137 1    
    27   13   14 ar   
    28   13   15 1    
    29   14  138 1    
    30   15   16 1    
    31   15  139 1    
    32   15  140 1    
    33   16   17 1    
    34   17   18 1    
    35   17  141 1    
    36   17  142 1    
    37   18   19 1    
    38   18   67 1    
    39   18  143 1    
    40   19   20 am   BACKBONE|DICT|INTERRES
    41   19  144 1    
    42   20   21 2    
    43   20   22 1    
    44   22   23 1    
    45   22   24 1    
    46   22  145 1    
    47   23  146 1    
    48   23  147 1    
    49   23  148 1    
    50   24   25 am   BACKBONE|DICT|INTERRES
    51   24  149 1    
    52   25   26 2    
    53   25   27 1    
    54   27   28 1    
    55   27   29 1    
    56   27  150 1    
    57   28  151 1    
    58   28  152 1    
    59   28  153 1    
    60   29   30 am   BACKBONE|DICT|INTERRES
    61   29  154 1    
    62   30   31 2    
    63   30   32 1    
    64   32   33 1    
    65   32   34 1    
    66   32  155 1    
    67   33  156 1    
    68   33  157 1    
    69   33  158 1    
    70   34   35 am   BACKBONE|DICT|INTERRES
    71   34  159 1    
    72   35   36 2    
    73   35   37 1    
    74   37   38 1    
    75   37   39 1    
    76   37  160 1    
    77   38  161 1    
    78   38  162 1    
    79   38  163 1    
    80   39   40 am   BACKBONE|DICT|INTERRES
    81   39  164 1    
    82   40   41 2    
    83   40   42 1    
    84   42   43 1    
    85   42   44 1    
    86   42  165 1    
    87   43  166 1    
    88   43  167 1    
    89   43  168 1    
    90   44   45 am   BACKBONE|DICT|INTERRES
    91   44  169 1    
    92   45   46 2    
    93   45   47 1    
    94   47   48 1    
    95   47   49 1    
    96   47  170 1    
    97   48  171 1    
    98   48  172 1    
    99   48  173 1    
   100   49   50 am   BACKBONE|DICT|INTERRES
   101   49  174 1    
   102   50   51 2    
   103   50   52 1    
   104   52   53 1    
   105   52   54 1    
   106   52  175 1    
   107   53  176 1    
   108   53  177 1    
   109   53  178 1    
   110   54   55 am   BACKBONE|DICT|INTERRES
   111   54  179 1    
   112   55   56 2    
   113   55   57 1    
   114   57   58 1    
   115   57   59 1    
   116   57  180 1    
   117   58  181 1    
   118   58  182 1    
   119   58  183 1    
   120   59   60 am   BACKBONE|DICT|INTERRES
   121   59  184 1    
   122   60   61 2    
   123   60   62 1    
   124   62   63 1    
   125   62   64 1    
   126   62  185 1    
   127   63  186 1    
   128   63  187 1    
   129   63  188 1    
   130   64   65 am   BACKBONE|DICT|INTERRES
   131   64  189 1    
   132   65   66 2    
   133   67   68 2    
   134   67   69 am   BACKBONE|DICT|INTERRES
   135   69   70 1    
   136   69  190 1    
   137   70   71 1    
   138   70   72 1    
   139   70  191 1    
   140   71  192 1    
   141   71  193 1    
   142   71  194 1    
   143   72   73 2    
   144   72   74 am   BACKBONE|DICT|INTERRES
   145   74   75 1    
   146   74  195 1    
   147   75   76 1    
   148   75   77 1    
   149   75  196 1    
   150   76  197 1    
   151   76  198 1    
   152   76  199 1    
   153   77   78 2    
   154   77   79 am   BACKBONE|DICT|INTERRES
   155   79   80 1    
   156   79  200 1    
   157   80   81 1    
   158   80   82 1    
   159   80  201 1    
   160   81  202 1    
   161   81  203 1    
   162   81  204 1    
   163   82   83 2    
   164   82   84 am   BACKBONE|DICT|INTERRES
   165   84   85 1    
   166   84  205 1    
   167   85   86 1    
   168   85   87 1    
   169   85  206 1    
   170   86  207 1    
   171   86  208 1    
   172   86  209 1    
   173   87   88 2    
   174   87   89 am   BACKBONE|DICT|INTERRES
   175   89   90 1    
   176   89  210 1    
   177   90   91 1    
   178   90   92 1    
   179   90  211 1    
   180   91  212 1    
   181   91  213 1    
   182   91  214 1    
   183   92   93 2    
   184   92   94 am   BACKBONE|DICT|INTERRES
   185   94   95 1    
   186   94  215 1    
   187   95   96 1    
   188   95   97 1    
   189   95  216 1    
   190   96  217 1    
   191   96  218 1    
   192   96  219 1    
   193   97   98 2    
   194   97   99 am   BACKBONE|DICT|INTERRES
   195   99  100 1    
   196   99  220 1    
   197  100  101 1    
   198  100  102 1    
   199  100  221 1    
   200  101  222 1    
   201  101  223 1    
   202  101  224 1    
   203  102  103 2    
   204  102  104 am   BACKBONE|DICT|INTERRES
   205  104  105 1    
   206  104  225 1    
   207  105  106 1    
   208  105  107 1    
   209  105  226 1    
   210  106  227 1    
   211  106  228 1    
   212  106  229 1    
   213  107  108 2    
   214  107  109 am   BACKBONE|DICT|INTERRES
   215  109  110 1    
   216  109  230 1    
   217  110  111 1    
   218  110  112 1    
   219  110  231 1    
   220  111  232 1    
   221  111  233 1    
   222  111  234 1    
   223  112  113 2    
   224  112  114 am   BACKBONE|DICT|INTERRES
   225  114  115 1    
   226  114  235 1    
   227  115  116 1    
   228  115  117 1    
   229  115  236 1    
   230  116  237 1    
   231  116  238 1    
   232  116  239 1    
   233  117  118 2    
   234  117  119 am   BACKBONE|DICT|INTERRES
   235  119  120 1    
   236  119  240 1    
   237  120  121 1    
   238  120  124 1    
   239  120  241 1    
   240  121  122 am   BACKBONE|DICT|INTERRES
   241  121  123 2    
   242  122  242 1    
   243  122  243 1    
   244  124  125 1    
   245  124  244 1    
   246  124  245 1    
   247  125  126 1    
   248  126  246 1    
   249  126  247 1    
@<TRIPOS>SUBSTRUCTURE
     1 UNK         1 GROUP             0       ****    0 ROOT    
