@<TRIPOS>MOLECULE
3R540
247   249    1
SMALL
USER_CHARGES


@<TRIPOS>ATOM
      1 CA          7.5451  -11.8886  -44.4789 C.3       0 UNK        -0.1800 
      2 C           6.7588  -12.4332  -45.6631 C.2       0 UNK         0.5000 
      3 O           7.0415  -12.0683  -46.8043 O.2       0 UNK        -0.5000 
      4 N           5.7713  -13.2999  -45.3928 N.am      1 UNK        -0.5000 
      5 CA          4.8893  -13.9415  -46.3807 C.3       1 UNK         0.1400 
      6 C6          5.6622  -14.8579  -47.3708 C.3       23 UNK        -0.0398 
      7 S7          4.6962  -16.3294  -47.8433 S.3       23 UNK        -0.2404 
      8 C8          4.4886  -16.0638  -49.6270 C.3       23 UNK        -0.0205 
      9 C9          3.3594  -16.9200  -50.1700 C.ar      23 UNK        -0.0193 
     10 C10         2.0907  -16.3679  -50.3629 C.ar      23 UNK        -0.1150 
     11 C11         1.0513  -17.1447  -50.8810 C.ar      23 UNK        -0.0193 
     12 C12         1.2960  -18.4804  -51.2157 C.ar      23 UNK        -0.1150 
     13 C13         2.5499  -19.0578  -50.9860 C.ar      23 UNK        -0.0193 
     14 C14         3.5808  -18.2651  -50.4744 C.ar      23 UNK        -0.1150 
     15 C15         2.8114  -20.5317  -51.2840 C.3       23 UNK        -0.0205 
     16 S16         1.4993  -21.6552  -50.6932 S.3       23 UNK        -0.2404 
     17 C17         1.2982  -21.1374  -48.9523 C.3       23 UNK        -0.0398 
     18 CA          0.5791  -22.1946  -48.0791 C.3       11 UNK         0.1400 
     19 N           0.6686  -21.8744  -46.6499 N.am      11 UNK        -0.5000 
     20 C           0.2986  -22.7006  -45.6602 C.2       10 UNK         0.5000 
     21 O          -0.0939  -23.8501  -45.8445 O.2       10 UNK        -0.5000 
     22 CA          0.3181  -22.1454  -44.2258 C.3       10 UNK         0.1400 
     23 CB          1.7260  -22.2460  -43.6213 C.3       10 UNK        -0.1800 
     24 N          -0.1663  -20.7680  -44.1479 N.am      10 UNK        -0.5000 
     25 C          -1.4151  -20.3824  -44.4479 C.2       9 UNK         0.5000 
     26 O          -2.3130  -21.1660  -44.7547 O.2       9 UNK        -0.5000 
     27 CA         -1.6937  -18.8666  -44.4647 C.3       9 UNK         0.1400 
     28 CB         -1.9841  -18.3440  -43.0508 C.3       9 UNK        -0.1800 
     29 N          -0.5980  -18.0978  -45.0571 N.am      9 UNK        -0.5000 
     30 C          -0.1698  -18.2365  -46.3205 C.2       8 UNK         0.5000 
     31 O          -0.6892  -19.0007  -47.1325 O.2       8 UNK        -0.5000 
     32 CA          1.0966  -17.4551  -46.7103 C.3       8 UNK         0.1400 
     33 CB          0.7796  -15.9920  -47.0457 C.3       8 UNK        -0.1800 
     34 N           2.0902  -17.5023  -45.6395 N.am      8 UNK        -0.5000 
     35 C           2.8348  -18.5786  -45.3555 C.2       7 UNK         0.5000 
     36 O           2.7816  -19.6326  -45.9907 O.2       7 UNK        -0.5000 
     37 CA          3.7631  -18.4701  -44.1293 C.3       7 UNK         0.1400 
     38 CB          5.1085  -17.8361  -44.5122 C.3       7 UNK        -0.1800 
     39 N           3.1690  -17.7100  -43.0261 N.am      7 UNK        -0.5000 
     40 C           2.1182  -18.1282  -42.3074 C.2       6 UNK         0.5000 
     41 O           1.5527  -19.2031  -42.4939 O.2       6 UNK        -0.5000 
     42 CA          1.5807  -17.1760  -41.2230 C.3       6 UNK         0.1400 
     43 CB          2.3375  -17.3862  -39.9031 C.3       6 UNK        -0.1800 
     44 N           1.6226  -15.7560  -41.5841 N.am      6 UNK        -0.5000 
     45 C           1.0395  -15.2096  -42.6592 C.2       5 UNK         0.5000 
     46 O           0.4786  -15.8620  -43.5429 O.2       5 UNK        -0.5000 
     47 CA          1.1616  -13.6799  -42.7845 C.3       5 UNK         0.1400 
     48 CB          2.5342  -13.3040  -43.3588 C.3       5 UNK        -0.1800 
     49 N           0.1327  -13.1014  -43.6460 N.am      5 UNK        -0.5000 
     50 C          -1.1784  -13.0492  -43.3744 C.2       4 UNK         0.5000 
     51 O          -1.6750  -13.4608  -42.3248 O.2       4 UNK        -0.5000 
     52 CA         -2.0863  -12.4001  -44.4386 C.3       4 UNK         0.1400 
     53 CB         -2.6488  -11.0653  -43.9240 C.3       4 UNK        -0.1800 
     54 N          -1.3772  -12.1475  -45.6946 N.am      4 UNK        -0.5000 
     55 C          -1.3172  -12.9830  -46.7351 C.2       3 UNK         0.5000 
     56 O          -1.9135  -14.0582  -46.7759 O.2       3 UNK        -0.5000 
     57 CA         -0.4327  -12.5615  -47.9277 C.3       3 UNK         0.1400 
     58 CB         -1.1623  -11.5416  -48.8210 C.3       3 UNK        -0.1800 
     59 N           0.9170  -12.0838  -47.5846 N.am      3 UNK        -0.5000 
     60 C           1.2937  -10.9904  -46.9069 C.2       2 UNK         0.5000 
     61 O           0.5021  -10.2309  -46.3453 O.2       2 UNK        -0.5000 
     62 CA          2.8118  -10.7042  -46.8445 C.3       2 UNK         0.1400 
     63 CB          3.1469   -9.4826  -45.9692 C.3       2 UNK        -0.1800 
     64 N           3.6075  -11.8385  -46.3693 N.am      2 UNK        -0.5000 
     65 C           3.9317  -12.9344  -47.0703 C.2       1 UNK         0.5000 
     66 O           3.4915  -13.1555  -48.1988 O.2       1 UNK        -0.5000 
     67 C          -0.8866  -22.4222  -48.5160 C.2       11 UNK         0.5000 
     68 O          -1.1780  -23.4302  -49.1620 O.2       11 UNK        -0.5000 
     69 N          -1.7889  -21.5188  -48.1050 N.am      12 UNK        -0.5000 
     70 CA         -3.2310  -21.6164  -48.3434 C.3       12 UNK         0.1400 
     71 CB         -3.9242  -20.3387  -47.8482 C.3       12 UNK        -0.1800 
     72 C          -3.8629  -22.8745  -47.7165 C.2       12 UNK         0.5000 
     73 O          -4.6918  -23.5207  -48.3586 O.2       12 UNK        -0.5000 
     74 N          -3.4324  -23.2220  -46.4956 N.am      13 UNK        -0.5000 
     75 CA         -3.8252  -24.4429  -45.7935 C.3       13 UNK         0.1400 
     76 CB         -3.3752  -24.3641  -44.3268 C.3       13 UNK        -0.1800 
     77 C          -3.2811  -25.7150  -46.4697 C.2       13 UNK         0.5000 
     78 O          -4.0427  -26.6597  -46.6781 O.2       13 UNK        -0.5000 
     79 N          -1.9886  -25.7108  -46.8293 N.am      14 UNK        -0.5000 
     80 CA         -1.2902  -26.8185  -47.4911 C.3       14 UNK         0.1400 
     81 CB          0.2116  -26.5070  -47.5748 C.3       14 UNK        -0.1800 
     82 C          -1.8438  -27.1573  -48.8869 C.2       14 UNK         0.5000 
     83 O          -1.7795  -28.3170  -49.2967 O.2       14 UNK        -0.5000 
     84 N          -2.4074  -26.1552  -49.5756 N.am      15 UNK        -0.5000 
     85 CA         -3.1139  -26.3088  -50.8479 C.3       15 UNK         0.1400 
     86 CB         -3.3574  -24.9198  -51.4577 C.3       15 UNK        -0.1800 
     87 C          -4.4383  -27.0945  -50.7341 C.2       15 UNK         0.5000 
     88 O          -4.9424  -27.5537  -51.7596 O.2       15 UNK        -0.5000 
     89 N          -4.9788  -27.2286  -49.5109 N.am      16 UNK        -0.5000 
     90 CA         -6.1686  -27.9810  -49.0851 C.3       16 UNK         0.1400 
     91 CB         -6.0170  -29.4844  -49.3844 C.3       16 UNK        -0.1800 
     92 C          -7.5016  -27.4327  -49.6272 C.2       16 UNK         0.5000 
     93 O          -8.4155  -27.1655  -48.8469 O.2       16 UNK        -0.5000 
     94 N          -7.5769  -27.2451  -50.9478 N.am      17 UNK        -0.5000 
     95 CA         -8.6972  -26.6429  -51.6710 C.3       17 UNK         0.1400 
     96 CB         -8.7160  -27.2240  -53.0947 C.3       17 UNK        -0.1800 
     97 C          -8.6160  -25.1023  -51.7129 C.2       17 UNK         0.5000 
     98 O          -9.4886  -24.4726  -52.3115 O.2       17 UNK        -0.5000 
     99 N          -7.5618  -24.5298  -51.1086 N.am      18 UNK        -0.5000 
    100 CA        -7.2013  -23.1082  -51.0969 C.3       18 UNK         0.1400 
    101 CB        -8.2544  -22.2660  -50.3476 C.3       18 UNK        -0.1800 
    102 C         -6.8754  -22.5717  -52.5061 C.2       18 UNK         0.5000 
    103 O         -7.2069  -21.4304  -52.8287 O.2       18 UNK        -0.5000 
    104 N         -6.2111  -23.4113  -53.3177 N.am      19 UNK        -0.5000 
    105 CA        -5.7188  -23.0763  -54.6587 C.3       19 UNK         0.1400 
    106 CB        -5.1938  -24.3487  -55.3406 C.3       19 UNK        -0.1800 
    107 C         -4.6371  -21.9784  -54.6356 C.2       19 UNK         0.5000 
    108 O         -4.5752  -21.1583  -55.5526 O.2       19 UNK        -0.5000 
    109 N         -3.8513  -21.9427  -53.5504 N.am      20 UNK        -0.5000 
    110 CA        -3.0345  -20.8034  -53.1432 C.3       20 UNK         0.1400 
    111 CB        -1.9022  -21.2978  -52.2271 C.3       20 UNK        -0.1800 
    112 C         -3.9499  -19.7729  -52.4559 C.2       20 UNK         0.5000 
    113 O         -4.0134  -19.7124  -51.2277 O.2       20 UNK        -0.5000 
    114 N         -4.7104  -19.0360  -53.2725 N.am      21 UNK        -0.5000 
    115 CA        -5.7328  -18.0817  -52.8518 C.3       21 UNK         0.1400 
    116 CB        -6.7431  -17.9081  -53.9997 C.3       21 UNK        -0.1800 
    117 C         -5.1022  -16.7491  -52.4077 C.2       21 UNK         0.5000 
    118 O         -5.2283  -15.7401  -53.1032 O.2       21 UNK        -0.5000 
    119 N         -4.4028  -16.7815  -51.2687 N.am      22 UNK        -0.5000 
    120 CA        -3.6939  -15.6330  -50.6809 C.3       22 UNK         0.1400 
    121 C         -4.6152  -14.4937  -50.1567 C.2       22 UNK         0.5000 
    122 N         -5.8959  -14.7350  -49.9035 N.am      22 UNK        -0.7600 
    123 O         -4.1617  -13.3679  -49.9877 O.2       22 UNK        -0.5000 
    124 C124       -2.6945  -16.0590  -49.5762 C.3       23 UNK        -0.0398 
    125 S125       -1.5744  -17.4128  -50.0615 S.3       23 UNK        -0.2404 
    126 C126       -0.3338  -16.5430  -51.0690 C.3       23 UNK        -0.0205 
    127 H127        7.4578  -10.8028  -44.4385 H         1 UNK         0.0600 
    128 H128        7.1871  -12.2940  -43.5320 H         1 UNK         0.0600 
    129 H129        8.6002  -12.1431  -44.5803 H         1 UNK         0.0600 
    130 H130        5.6082  -13.5618  -44.4305 H         1 UNK         0.3000 
    131 H131        4.2423  -14.5841  -45.7831 H         1 UNK         0.0600 
    132 H132        6.5709  -15.2335  -46.8984 H         1 UNK         0.0800 
    133 H133        5.9986  -14.3063  -48.2505 H         1 UNK         0.0800 
    134 H134        4.2866  -15.0121  -49.8315 H         1 UNK         0.0800 
    135 H135        5.4213  -16.3031  -50.1397 H         1 UNK         0.0800 
    136 H136        1.9153  -15.3327  -50.1049 H         1 UNK         0.1150 
    137 H137        0.4949  -19.0809  -51.6200 H         1 UNK         0.1150 
    138 H138        4.5584  -18.6937  -50.3038 H         1 UNK         0.1150 
    139 H139        2.9216  -20.6567  -52.3617 H         1 UNK         0.0800 
    140 H140        3.7555  -20.8492  -50.8383 H         1 UNK         0.0800 
    141 H141        0.7641  -20.1870  -48.9306 H         1 UNK         0.0800 
    142 H142        2.2896  -20.9368  -48.5430 H         1 UNK         0.0800 
    143 H143        1.1045  -23.1421  -48.2161 H         1 UNK         0.0600 
    144 H144        0.9990  -20.9475  -46.4113 H         1 UNK         0.3000 
    145 H145       -0.3498  -22.7645  -43.6236 H         1 UNK         0.0600 
    146 H146        1.7253  -21.9530  -42.5714 H         1 UNK         0.0600 
    147 H147        2.1004  -23.2692  -43.6716 H         1 UNK         0.0600 
    148 H148        2.4379  -21.6095  -44.1465 H         1 UNK         0.0600 
    149 H149        0.4973  -20.0725  -43.8187 H         1 UNK         0.3000 
    150 H150       -2.5809  -18.6984  -45.0784 H         1 UNK         0.0600 
    151 H151       -2.8487  -18.8499  -42.6196 H         1 UNK         0.0600 
    152 H152       -2.2009  -17.2754  -43.0604 H         1 UNK         0.0600 
    153 H153       -1.1409  -18.5087  -42.3809 H         1 UNK         0.0600 
    154 H154       -0.1382  -17.4158  -44.4596 H         1 UNK         0.3000 
    155 H155        1.5187  -17.9203  -47.6045 H         1 UNK         0.0600 
    156 H156        0.3864  -15.4566  -46.1821 H         1 UNK         0.0600 
    157 H157        0.0353  -15.9309  -47.8397 H         1 UNK         0.0600 
    158 H158        1.6686  -15.4649  -47.3919 H         1 UNK         0.0600 
    159 H159        2.1245  -16.7080  -45.0180 H         1 UNK         0.3000 
    160 H160        3.9574  -19.4852  -43.7763 H         1 UNK         0.0600 
    161 H161        5.5648  -18.3627  -45.3516 H         1 UNK         0.0600 
    162 H162        5.8134  -17.8771  -43.6817 H         1 UNK         0.0600 
    163 H163        4.9943  -16.7919  -44.8028 H         1 UNK         0.0600 
    164 H164        3.5806  -16.8157  -42.8056 H         1 UNK         0.3000 
    165 H165        0.5338  -17.4340  -41.0542 H         1 UNK         0.0600 
    166 H166        1.8956  -16.8009  -39.0966 H         1 UNK         0.0600 
    167 H167        2.3060  -18.4328  -39.5968 H         1 UNK         0.0600 
    168 H168        3.3867  -17.1011  -39.9902 H         1 UNK         0.0600 
    169 H169        2.0826  -15.1471  -40.9226 H         1 UNK         0.3000 
    170 H170        1.0596  -13.2408  -41.7900 H         1 UNK         0.0600 
    171 H171        2.6585  -13.7133  -44.3597 H         1 UNK         0.0600 
    172 H172        2.6548  -12.2220  -43.4173 H         1 UNK         0.0600 
    173 H173        3.3452  -13.6877  -42.7385 H         1 UNK         0.0600 
    174 H174        0.4329  -12.7632  -44.5464 H         1 UNK         0.3000 
    175 H175       -2.9232  -13.0788  -44.6156 H         1 UNK         0.0600 
    176 H176       -1.8541  -10.3464  -43.7199 H         1 UNK         0.0600 
    177 H177       -3.3268  -10.6179  -44.6510 H         1 UNK         0.0600 
    178 H178       -3.2115  -11.2059  -43.0002 H         1 UNK         0.0600 
    179 H179       -0.8413  -11.2837  -45.7607 H         1 UNK         0.3000 
    180 H180       -0.2768  -13.4595  -48.5274 H         1 UNK         0.0600 
    181 H181       -1.3452  -10.6000  -48.3028 H         1 UNK         0.0600 
    182 H182       -2.1300  -11.9268  -49.1407 H         1 UNK         0.0600 
    183 H183       -0.5870  -11.3236  -49.7207 H         1 UNK         0.0600 
    184 H184        1.6783  -12.6377  -47.9702 H         1 UNK         0.3000 
    185 H185        3.1265  -10.4718  -47.8640 H         1 UNK         0.0600 
    186 H186        2.6288   -8.5904  -46.3236 H         1 UNK         0.0600 
    187 H187        2.8573   -9.6410  -44.9295 H         1 UNK         0.0600 
    188 H188        4.2146   -9.2629  -45.9907 H         1 UNK         0.0600 
    189 H189        4.0084  -11.7382  -45.4488 H         1 UNK         0.3000 
    190 H190       -1.4619  -20.6922  -47.6107 H         1 UNK         0.3000 
    191 H191       -3.3844  -21.6811  -49.4206 H         1 UNK         0.0600 
    192 H192       -3.8142  -20.2077  -46.7721 H         1 UNK         0.0600 
    193 H193       -4.9914  -20.3648  -48.0712 H         1 UNK         0.0600 
    194 H194       -3.5122  -19.4554  -48.3373 H         1 UNK         0.0600 
    195 H195       -2.7975  -22.5969  -46.0077 H         1 UNK         0.3000 
    196 H196       -4.9156  -24.5004  -45.8072 H         1 UNK         0.0600 
    197 H197       -2.2919  -24.2816  -44.2398 H         1 UNK         0.0600 
    198 H198       -3.6825  -25.2537  -43.7758 H         1 UNK         0.0600 
    199 H199       -3.8161  -23.5020  -43.8260 H         1 UNK         0.0600 
    200 H200       -1.4148  -24.9052  -46.5886 H         1 UNK         0.3000 
    201 H201       -1.4181  -27.7056  -46.8677 H         1 UNK         0.0600 
    202 H202        0.6438  -26.3796  -46.5823 H         1 UNK         0.0600 
    203 H203        0.4002  -25.5961  -48.1437 H         1 UNK         0.0600 
    204 H204        0.7547  -27.3178  -48.0619 H         1 UNK         0.0600 
    205 H205       -2.3368  -25.2154  -49.2003 H         1 UNK         0.3000 
    206 H206       -2.4653  -26.8670  -51.5260 H         1 UNK         0.0600 
    207 H207       -2.4174  -24.3871  -51.6030 H         1 UNK         0.0600 
    208 H208       -3.8355  -25.0037  -52.4331 H         1 UNK         0.0600 
    209 H209       -3.9966  -24.3059  -50.8234 H         1 UNK         0.0600 
    210 H210       -4.4805  -26.7941  -48.7417 H         1 UNK         0.3000 
    211 H211       -6.2076  -27.8717  -48.0001 H         1 UNK         0.0600 
    212 H212       -5.9726  -29.6882  -50.4545 H         1 UNK         0.0600 
    213 H213       -6.8593  -30.0476  -48.9808 H         1 UNK         0.0600 
    214 H214       -5.1105  -29.8846  -48.9299 H         1 UNK         0.0600 
    215 H215       -6.7462  -27.4695  -51.4923 H         1 UNK         0.3000 
    216 H216       -9.6334  -26.9102  -51.1767 H         1 UNK         0.0600 
    217 H217       -9.5648  -26.8442  -53.6648 H         1 UNK         0.0600 
    218 H218       -8.8012  -28.3106  -53.0753 H         1 UNK         0.0600 
    219 H219       -7.8091  -26.9686  -53.6447 H         1 UNK         0.0600 
    220 H220       -6.9233  -25.1460  -50.6274 H         1 UNK         0.3000 
    221 H221       -6.2717  -23.0357  -50.5313 H         1 UNK         0.0600 
    222 H222       -9.2021  -22.2254  -50.8849 H         1 UNK         0.0600 
    223 H223       -8.4473  -22.6710  -49.3542 H         1 UNK         0.0600 
    224 H224       -7.9097  -21.2396  -50.2168 H         1 UNK         0.0600 
    225 H225       -6.0247  -24.3465  -52.9894 H         1 UNK         0.3000 
    226 H226       -6.5623  -22.6981  -55.2400 H         1 UNK         0.0600 
    227 H227       -5.9698  -25.1118  -55.4041 H         1 UNK         0.0600 
    228 H228       -4.8649  -24.1358  -56.3586 H         1 UNK         0.0600 
    229 H229       -4.3449  -24.7757  -54.8060 H         1 UNK         0.0600 
    230 H230       -4.0008  -22.6473  -52.8455 H         1 UNK         0.3000 
    231 H231       -2.5813  -20.3329  -54.0183 H         1 UNK         0.0600 
    232 H232       -1.3490  -20.4608  -51.8016 H         1 UNK         0.0600 
    233 H233       -1.1911  -21.9140  -52.7771 H         1 UNK         0.0600 
    234 H234       -2.2794  -21.8923  -51.3968 H         1 UNK         0.0600 
    235 H235       -4.6230  -19.1860  -54.2685 H         1 UNK         0.3000 
    236 H236       -6.2726  -18.4951  -51.9973 H         1 UNK         0.0600 
    237 H237       -7.5332  -17.2089  -53.7234 H         1 UNK         0.0600 
    238 H238       -6.2676  -17.5285  -54.9045 H         1 UNK         0.0600 
    239 H239       -7.2215  -18.8560  -54.2460 H         1 UNK         0.0600 
    240 H240       -4.2719  -17.6775  -50.8126 H         1 UNK         0.3000 
    241 H241       -3.1056  -15.1900  -51.4856 H         1 UNK         0.0600 
    242 H242       -6.2824  -15.6536  -50.0399 H         1 UNK         0.3800 
    243 H243       -6.4844  -13.9881  -49.5724 H         1 UNK         0.3800 
    244 H244       -2.0937  -15.2081  -49.2528 H         1 UNK         0.0800 
    245 H245       -3.2365  -16.3929  -48.6902 H         1 UNK         0.0800 
    246 H246       -0.6195  -16.6052  -52.1194 H         1 UNK         0.0800 
    247 H247       -0.3236  -15.4833  -50.8127 H         1 UNK         0.0800 
@<TRIPOS>BOND
     1    1    2 1    
     2    1  127 1    
     3    1  128 1    
     4    1  129 1    
     5    2    3 2    
     6    2    4 am   BACKBONE|DICT|INTERRES
     7    4    5 1    
     8    4  130 1    
     9    5    6 1    
    10    5   65 1    
    11    5  131 1    
    12    6    7 1    
    13    6  132 1    
    14    6  133 1    
    15    7    8 1    
    16    8    9 1    
    17    8  134 1    
    18    8  135 1    
    19    9   10 ar   
    20    9   14 ar   
    21   10   11 ar   
    22   10  136 1    
    23   11   12 ar   
    24   11  126 1    
    25   12   13 ar   
    26   12  137 1    
    27   13   14 ar   
    28   13   15 1    
    29   14  138 1    
    30   15   16 1    
    31   15  139 1    
    32   15  140 1    
    33   16   17 1    
    34   17   18 1    
    35   17  141 1    
    36   17  142 1    
    37   18   19 1    
    38   18   67 1    
    39   18  143 1    
    40   19   20 am   BACKBONE|DICT|INTERRES
    41   19  144 1    
    42   20   21 2    
    43   20   22 1    
    44   22   23 1    
    45   22   24 1    
    46   22  145 1    
    47   23  146 1    
    48   23  147 1    
    49   23  148 1    
    50   24   25 am   BACKBONE|DICT|INTERRES
    51   24  149 1    
    52   25   26 2    
    53   25   27 1    
    54   27   28 1    
    55   27   29 1    
    56   27  150 1    
    57   28  151 1    
    58   28  152 1    
    59   28  153 1    
    60   29   30 am   BACKBONE|DICT|INTERRES
    61   29  154 1    
    62   30   31 2    
    63   30   32 1    
    64   32   33 1    
    65   32   34 1    
    66   32  155 1    
    67   33  156 1    
    68   33  157 1    
    69   33  158 1    
    70   34   35 am   BACKBONE|DICT|INTERRES
    71   34  159 1    
    72   35   36 2    
    73   35   37 1    
    74   37   38 1    
    75   37   39 1    
    76   37  160 1    
    77   38  161 1    
    78   38  162 1    
    79   38  163 1    
    80   39   40 am   BACKBONE|DICT|INTERRES
    81   39  164 1    
    82   40   41 2    
    83   40   42 1    
    84   42   43 1    
    85   42   44 1    
    86   42  165 1    
    87   43  166 1    
    88   43  167 1    
    89   43  168 1    
    90   44   45 am   BACKBONE|DICT|INTERRES
    91   44  169 1    
    92   45   46 2    
    93   45   47 1    
    94   47   48 1    
    95   47   49 1    
    96   47  170 1    
    97   48  171 1    
    98   48  172 1    
    99   48  173 1    
   100   49   50 am   BACKBONE|DICT|INTERRES
   101   49  174 1    
   102   50   51 2    
   103   50   52 1    
   104   52   53 1    
   105   52   54 1    
   106   52  175 1    
   107   53  176 1    
   108   53  177 1    
   109   53  178 1    
   110   54   55 am   BACKBONE|DICT|INTERRES
   111   54  179 1    
   112   55   56 2    
   113   55   57 1    
   114   57   58 1    
   115   57   59 1    
   116   57  180 1    
   117   58  181 1    
   118   58  182 1    
   119   58  183 1    
   120   59   60 am   BACKBONE|DICT|INTERRES
   121   59  184 1    
   122   60   61 2    
   123   60   62 1    
   124   62   63 1    
   125   62   64 1    
   126   62  185 1    
   127   63  186 1    
   128   63  187 1    
   129   63  188 1    
   130   64   65 am   BACKBONE|DICT|INTERRES
   131   64  189 1    
   132   65   66 2    
   133   67   68 2    
   134   67   69 am   BACKBONE|DICT|INTERRES
   135   69   70 1    
   136   69  190 1    
   137   70   71 1    
   138   70   72 1    
   139   70  191 1    
   140   71  192 1    
   141   71  193 1    
   142   71  194 1    
   143   72   73 2    
   144   72   74 am   BACKBONE|DICT|INTERRES
   145   74   75 1    
   146   74  195 1    
   147   75   76 1    
   148   75   77 1    
   149   75  196 1    
   150   76  197 1    
   151   76  198 1    
   152   76  199 1    
   153   77   78 2    
   154   77   79 am   BACKBONE|DICT|INTERRES
   155   79   80 1    
   156   79  200 1    
   157   80   81 1    
   158   80   82 1    
   159   80  201 1    
   160   81  202 1    
   161   81  203 1    
   162   81  204 1    
   163   82   83 2    
   164   82   84 am   BACKBONE|DICT|INTERRES
   165   84   85 1    
   166   84  205 1    
   167   85   86 1    
   168   85   87 1    
   169   85  206 1    
   170   86  207 1    
   171   86  208 1    
   172   86  209 1    
   173   87   88 2    
   174   87   89 am   BACKBONE|DICT|INTERRES
   175   89   90 1    
   176   89  210 1    
   177   90   91 1    
   178   90   92 1    
   179   90  211 1    
   180   91  212 1    
   181   91  213 1    
   182   91  214 1    
   183   92   93 2    
   184   92   94 am   BACKBONE|DICT|INTERRES
   185   94   95 1    
   186   94  215 1    
   187   95   96 1    
   188   95   97 1    
   189   95  216 1    
   190   96  217 1    
   191   96  218 1    
   192   96  219 1    
   193   97   98 2    
   194   97   99 am   BACKBONE|DICT|INTERRES
   195   99  100 1    
   196   99  220 1    
   197  100  101 1    
   198  100  102 1    
   199  100  221 1    
   200  101  222 1    
   201  101  223 1    
   202  101  224 1    
   203  102  103 2    
   204  102  104 am   BACKBONE|DICT|INTERRES
   205  104  105 1    
   206  104  225 1    
   207  105  106 1    
   208  105  107 1    
   209  105  226 1    
   210  106  227 1    
   211  106  228 1    
   212  106  229 1    
   213  107  108 2    
   214  107  109 am   BACKBONE|DICT|INTERRES
   215  109  110 1    
   216  109  230 1    
   217  110  111 1    
   218  110  112 1    
   219  110  231 1    
   220  111  232 1    
   221  111  233 1    
   222  111  234 1    
   223  112  113 2    
   224  112  114 am   BACKBONE|DICT|INTERRES
   225  114  115 1    
   226  114  235 1    
   227  115  116 1    
   228  115  117 1    
   229  115  236 1    
   230  116  237 1    
   231  116  238 1    
   232  116  239 1    
   233  117  118 2    
   234  117  119 am   BACKBONE|DICT|INTERRES
   235  119  120 1    
   236  119  240 1    
   237  120  121 1    
   238  120  124 1    
   239  120  241 1    
   240  121  122 am   BACKBONE|DICT|INTERRES
   241  121  123 2    
   242  122  242 1    
   243  122  243 1    
   244  124  125 1    
   245  124  244 1    
   246  124  245 1    
   247  125  126 1    
   248  126  246 1    
   249  126  247 1    
@<TRIPOS>SUBSTRUCTURE
     1 UNK         1 GROUP             0       ****    0 ROOT    
