@<TRIPOS>MOLECULE
3R540
247   249    1
SMALL
USER_CHARGES


@<TRIPOS>ATOM
      1 CA         -2.9350  -14.3747  -49.8917 C.3       0 UNK        -0.1800 
      2 C          -1.6880  -13.5472  -49.6125 C.2       0 UNK         0.5000 
      3 O          -1.6758  -12.3433  -49.8722 O.2       0 UNK        -0.5000 
      4 N          -0.6421  -14.1814  -49.0698 N.am      1 UNK        -0.5000 
      5 CA          0.6457  -13.5660  -48.7298 C.3       1 UNK         0.1400 
      6 C6          1.8124  -14.5868  -48.7816 C.3       23 UNK        -0.0398 
      7 S7          2.0825  -15.2455  -50.4615 S.3       23 UNK        -0.2404 
      8 C8          2.7895  -16.8924  -50.1013 C.3       23 UNK        -0.0205 
      9 C9          1.7878  -18.0247  -49.8565 C.ar      23 UNK        -0.0193 
     10 C10         0.4320  -17.8041  -49.5783 C.ar      23 UNK        -0.1150 
     11 C11        -0.4412  -18.8749  -49.3653 C.ar      23 UNK        -0.0193 
     12 C12         0.0462  -20.1797  -49.4281 C.ar      23 UNK        -0.1150 
     13 C13         1.3981  -20.4193  -49.6821 C.ar      23 UNK        -0.0193 
     14 C14         2.2588  -19.3410  -49.9008 C.ar      23 UNK        -0.1150 
     15 C15         1.9292  -21.8439  -49.6907 C.3       23 UNK        -0.0205 
     16 S16         2.8901  -22.2532  -48.1927 S.3       23 UNK        -0.2404 
     17 C17         1.8601  -21.6347  -46.8127 C.3       23 UNK        -0.0398 
     18 CA          0.9268  -22.6978  -46.1882 C.3       11 UNK         0.1400 
     19 N           0.6309  -22.3784  -44.7882 N.am      11 UNK        -0.5000 
     20 C          -0.0073  -23.1726  -43.9177 C.2       10 UNK         0.5000 
     21 O          -0.4453  -24.2878  -44.2020 O.2       10 UNK        -0.5000 
     22 CA         -0.2263  -22.5977  -42.5080 C.3       10 UNK         0.1400 
     23 CB          1.0659  -22.6534  -41.6784 C.3       10 UNK        -0.1800 
     24 N          -0.7089  -21.2183  -42.5751 N.am      10 UNK        -0.5000 
     25 C          -1.9843  -20.8831  -42.8137 C.2       9 UNK         0.5000 
     26 O          -2.8979  -21.7031  -42.9040 O.2       9 UNK        -0.5000 
     27 CA         -2.2976  -19.3851  -42.9975 C.3       9 UNK         0.1400 
     28 CB         -2.6574  -18.7451  -41.6483 C.3       9 UNK        -0.1800 
     29 N          -1.2090  -18.6256  -43.6156 N.am      9 UNK        -0.5000 
     30 C          -0.7430  -18.8239  -44.8567 C.2       8 UNK         0.5000 
     31 O          -1.2000  -19.6604  -45.6312 O.2       8 UNK        -0.5000 
     32 CA          0.4751  -17.9884  -45.2875 C.3       8 UNK         0.1400 
     33 CB          0.0309  -16.6083  -45.7906 C.3       8 UNK        -0.1800 
     34 N           1.4628  -17.8277  -44.2186 N.am      8 UNK        -0.5000 
     35 C           2.0999  -18.8320  -43.5989 C.2       7 UNK         0.5000 
     36 O           1.9204  -20.0209  -43.8598 O.2       7 UNK        -0.5000 
     37 CA          3.0599  -18.4461  -42.4643 C.3       7 UNK         0.1400 
     38 CB          4.4155  -17.9869  -43.0226 C.3       7 UNK        -0.1800 
     39 N           2.4824  -17.3944  -41.6302 N.am      7 UNK        -0.5000 
     40 C           1.5624  -17.6105  -40.6800 C.2       6 UNK         0.5000 
     41 O           1.1638  -18.7299  -40.3564 O.2       6 UNK        -0.5000 
     42 CA          0.9692  -16.3663  -39.9907 C.3       6 UNK         0.1400 
     43 CB          1.8264  -15.9579  -38.7833 C.3       6 UNK        -0.1800 
     44 N           0.8271  -15.2196  -40.8909 N.am      6 UNK        -0.5000 
     45 C          -0.0121  -15.1773  -41.9348 C.2       5 UNK         0.5000 
     46 O          -0.7662  -16.0997  -42.2417 O.2       5 UNK        -0.5000 
     47 CA          0.0221  -13.9077  -42.8067 C.3       5 UNK         0.1400 
     48 CB         -0.9143  -12.8402  -42.2213 C.3       5 UNK        -0.1800 
     49 N           1.3544  -13.3276  -43.0110 N.am      5 UNK        -0.5000 
     50 C           2.4377  -13.9799  -43.4612 C.2       4 UNK         0.5000 
     51 O           2.4753  -15.1972  -43.6448 O.2       4 UNK        -0.5000 
     52 CA          3.6622  -13.1109  -43.7889 C.3       4 UNK         0.1400 
     53 CB          4.7984  -13.8967  -44.4692 C.3       4 UNK        -0.1800 
     54 N           3.2336  -12.0226  -44.6605 N.am      4 UNK        -0.5000 
     55 C           3.6267  -10.7459  -44.5724 C.2       3 UNK         0.5000 
     56 O           4.4620  -10.3444  -43.7613 O.2       3 UNK        -0.5000 
     57 CA          2.9729   -9.7370  -45.5428 C.3       3 UNK         0.1400 
     58 CB          3.9210   -9.4273  -46.7115 C.3       3 UNK        -0.1800 
     59 N           1.6888  -10.1880  -46.0858 N.am      3 UNK        -0.5000 
     60 C           0.5739  -10.3876  -45.3691 C.2       2 UNK         0.5000 
     61 O           0.4793  -10.1152  -44.1722 O.2       2 UNK        -0.5000 
     62 CA         -0.6230  -11.0391  -46.0932 C.3       2 UNK         0.1400 
     63 CB         -1.6707   -9.9782  -46.4611 C.3       2 UNK        -0.1800 
     64 N          -0.2828  -11.8061  -47.2979 N.am      2 UNK        -0.5000 
     65 C           0.5432  -12.8596  -47.3616 C.2       1 UNK         0.5000 
     66 O           1.1884  -13.2729  -46.3983 O.2       1 UNK        -0.5000 
     67 C          -0.3465  -22.9213  -47.0347 C.2       11 UNK         0.5000 
     68 O          -0.3089  -23.7003  -47.9847 O.2       11 UNK        -0.5000 
     69 N          -1.4706  -22.2983  -46.6519 N.am      12 UNK        -0.5000 
     70 CA         -2.7990  -22.4815  -47.2429 C.3       12 UNK         0.1400 
     71 CB         -3.8181  -21.6223  -46.4802 C.3       12 UNK        -0.1800 
     72 C          -3.2737  -23.9492  -47.2979 C.2       12 UNK         0.5000 
     73 O          -4.0061  -24.3054  -48.2193 O.2       12 UNK        -0.5000 
     74 N          -2.8238  -24.7812  -46.3453 N.am      13 UNK        -0.5000 
     75 CA         -3.0740  -26.2231  -46.3312 C.3       13 UNK         0.1400 
     76 CB         -2.7418  -26.7875  -44.9423 C.3       13 UNK        -0.1800 
     77 C          -2.2846  -26.9687  -47.4246 C.2       13 UNK         0.5000 
     78 O          -2.8226  -27.8910  -48.0370 O.2       13 UNK        -0.5000 
     79 N          -1.0402  -26.5385  -47.6800 N.am      14 UNK        -0.5000 
     80 CA         -0.1852  -27.0530  -48.7543 C.3       14 UNK         0.1400 
     81 CB          1.2761  -26.6574  -48.4889 C.3       14 UNK        -0.1800 
     82 C          -0.6476  -26.5640  -50.1399 C.2       14 UNK         0.5000 
     83 O          -0.5292  -27.3015  -51.1183 O.2       14 UNK        -0.5000 
     84 N          -1.2209  -25.3531  -50.1838 N.am      15 UNK        -0.5000 
     85 CA         -1.8972  -24.7673  -51.3440 C.3       15 UNK         0.1400 
     86 CB         -1.9900  -23.2454  -51.1504 C.3       15 UNK        -0.1800 
     87 C          -3.2917  -25.3760  -51.6206 C.2       15 UNK         0.5000 
     88 O          -3.9354  -24.9688  -52.5887 O.2       15 UNK        -0.5000 
     89 N          -3.7308  -26.3272  -50.7808 N.am      16 UNK        -0.5000 
     90 CA         -4.9562  -27.1257  -50.8491 C.3       16 UNK         0.1400 
     91 CB         -4.9169  -28.0835  -52.0590 C.3       16 UNK        -0.1800 
     92 C          -6.2340  -26.2695  -50.7998 C.2       16 UNK         0.5000 
     93 O          -6.7973  -26.0764  -49.7220 O.2       16 UNK        -0.5000 
     94 N          -6.6690  -25.7785  -51.9662 N.am      17 UNK        -0.5000 
     95 CA         -7.8050  -24.8727  -52.1217 C.3       17 UNK         0.1400 
     96 CB         -8.2369  -24.8702  -53.5963 C.3       17 UNK        -0.1800 
     97 C          -7.4957  -23.4384  -51.6523 C.2       17 UNK         0.5000 
     98 O          -8.4306  -22.7092  -51.3174 O.2       17 UNK        -0.5000 
     99 N          -6.2050  -23.0640  -51.6451 N.am      18 UNK        -0.5000 
    100 CA        -5.6828  -21.7268  -51.3461 C.3       18 UNK         0.1400 
    101 CB        -5.9204  -21.3673  -49.8623 C.3       18 UNK        -0.1800 
    102 C         -6.2148  -20.6832  -52.3543 C.2       18 UNK         0.5000 
    103 O         -6.3482  -21.0126  -53.5362 O.2       18 UNK        -0.5000 
    104 N         -6.4950  -19.4553  -51.8920 N.am      19 UNK        -0.5000 
    105 CA        -7.0398  -18.3268  -52.6565 C.3       19 UNK         0.1400 
    106 CB        -8.5154  -18.5909  -53.0303 C.3       19 UNK        -0.1800 
    107 C         -6.1480  -17.9715  -53.8630 C.2       19 UNK         0.5000 
    108 O         -5.0985  -17.3592  -53.6717 O.2       19 UNK        -0.5000 
    109 N         -6.5414  -18.3986  -55.0705 N.am      20 UNK        -0.5000 
    110 CA        -5.7619  -18.2626  -56.3027 C.3       20 UNK         0.1400 
    111 CB        -6.6059  -18.7508  -57.4893 C.3       20 UNK        -0.1800 
    112 C         -4.4109  -19.0054  -56.2575 C.2       20 UNK         0.5000 
    113 O         -3.4386  -18.5264  -56.8431 O.2       20 UNK        -0.5000 
    114 N         -4.3509  -20.1288  -55.5255 N.am      21 UNK        -0.5000 
    115 CA        -3.1300  -20.9121  -55.3114 C.3       21 UNK         0.1400 
    116 CB        -3.4991  -22.2982  -54.7617 C.3       21 UNK        -0.1800 
    117 C         -2.0991  -20.2082  -54.4034 C.2       21 UNK         0.5000 
    118 O         -0.9271  -20.5845  -54.4270 O.2       21 UNK        -0.5000 
    119 N         -2.5356  -19.1881  -53.6519 N.am      22 UNK        -0.5000 
    120 CA        -1.6668  -18.2721  -52.8954 C.3       22 UNK         0.1400 
    121 C         -1.0337  -17.1508  -53.7748 C.2       22 UNK         0.5000 
    122 N         -1.3625  -17.0247  -55.0568 N.am      22 UNK        -0.7600 
    123 O         -0.2157  -16.3776  -53.2869 O.2       22 UNK        -0.5000 
    124 C124       -2.3977  -17.6660  -51.6691 C.3       23 UNK        -0.0398 
    125 S125       -2.9780  -18.9383  -50.4945 S.3       23 UNK        -0.2404 
    126 C126       -1.9095  -18.6305  -49.0527 C.3       23 UNK        -0.0205 
    127 H127       -3.0852  -14.4744  -50.9667 H         1 UNK         0.0600 
    128 H128       -2.8648  -15.3736  -49.4617 H         1 UNK         0.0600 
    129 H129       -3.8125  -13.8866  -49.4676 H         1 UNK         0.0600 
    130 H130       -0.7279  -15.1579  -48.8384 H         1 UNK         0.3000 
    131 H131        0.8682  -12.7887  -49.4643 H         1 UNK         0.0600 
    132 H132        1.6333  -15.4139  -48.0949 H         1 UNK         0.0800 
    133 H133        2.7454  -14.1199  -48.4604 H         1 UNK         0.0800 
    134 H134        3.4602  -16.8184  -49.2442 H         1 UNK         0.0800 
    135 H135        3.4143  -17.1654  -50.9531 H         1 UNK         0.0800 
    136 H136        0.0441  -16.8008  -49.5333 H         1 UNK         0.1150 
    137 H137       -0.6282  -21.0070  -49.2611 H         1 UNK         0.1150 
    138 H138        3.3054  -19.5304  -50.0953 H         1 UNK         0.1150 
    139 H139        1.1147  -22.5587  -49.8030 H         1 UNK         0.0800 
    140 H140        2.5672  -21.9839  -50.5643 H         1 UNK         0.0800 
    141 H141        1.3130  -20.7316  -47.0784 H         1 UNK         0.0800 
    142 H142        2.5802  -21.3079  -46.0620 H         1 UNK         0.0800 
    143 H143        1.4623  -23.6494  -46.1723 H         1 UNK         0.0600 
    144 H144        0.9803  -21.4830  -44.4537 H         1 UNK         0.3000 
    145 H145       -0.9734  -23.2148  -42.0041 H         1 UNK         0.0600 
    146 H146        0.8999  -22.2791  -40.6680 H         1 UNK         0.0600 
    147 H147        1.4273  -23.6786  -41.5907 H         1 UNK         0.0600 
    148 H148        1.8652  -22.0616  -42.1248 H         1 UNK         0.0600 
    149 H149       -0.0119  -20.4871  -42.5378 H         1 UNK         0.3000 
    150 H150       -3.1671  -19.3117  -43.6539 H         1 UNK         0.0600 
    151 H151       -3.4634  -19.2912  -41.1563 H         1 UNK         0.0600 
    152 H152       -2.9953  -17.7169  -41.7783 H         1 UNK         0.0600 
    153 H153       -1.8034  -18.7334  -40.9697 H         1 UNK         0.0600 
    154 H154       -0.8195  -17.8650  -43.0658 H         1 UNK         0.3000 
    155 H155        0.9688  -18.5075  -46.1112 H         1 UNK         0.0600 
    156 H156       -0.6041  -16.1010  -45.0654 H         1 UNK         0.0600 
    157 H157       -0.5374  -16.6970  -46.7166 H         1 UNK         0.0600 
    158 H158        0.8881  -15.9659  -45.9864 H         1 UNK         0.0600 
    159 H159        1.7026  -16.8741  -43.9586 H         1 UNK         0.3000 
    160 H160        3.2325  -19.3332  -41.8508 H         1 UNK         0.0600 
    161 H161        5.1040  -17.7243  -42.2194 H         1 UNK         0.0600 
    162 H162        4.3159  -17.1199  -43.6758 H         1 UNK         0.0600 
    163 H163        4.8830  -18.7815  -43.6054 H         1 UNK         0.0600 
    164 H164        2.6908  -16.4417  -41.9003 H         1 UNK         0.3000 
    165 H165       -0.0255  -16.6343  -39.6278 H         1 UNK         0.0600 
    166 H166        1.3722  -15.1296  -38.2391 H         1 UNK         0.0600 
    167 H167        1.9325  -16.7866  -38.0820 H         1 UNK         0.0600 
    168 H168        2.8290  -15.6528  -39.0855 H         1 UNK         0.0600 
    169 H169        1.4185  -14.4208  -40.7153 H         1 UNK         0.3000 
    170 H170       -0.3563  -14.1788  -43.7932 H         1 UNK         0.0600 
    171 H171       -1.9164  -13.2418  -42.0643 H         1 UNK         0.0600 
    172 H172       -0.5534  -12.4723  -41.2602 H         1 UNK         0.0600 
    173 H173       -1.0129  -11.9867  -42.8906 H         1 UNK         0.0600 
    174 H174        1.4182  -12.3242  -42.9102 H         1 UNK         0.3000 
    175 H175        4.0305  -12.7154  -42.8403 H         1 UNK         0.0600 
    176 H176        4.4693  -14.3427  -45.4087 H         1 UNK         0.0600 
    177 H177        5.6498  -13.2511  -44.6846 H         1 UNK         0.0600 
    178 H178        5.1562  -14.7024  -43.8273 H         1 UNK         0.0600 
    179 H179        2.5187  -12.2772  -45.3373 H         1 UNK         0.3000 
    180 H180        2.7986   -8.8136  -44.9867 H         1 UNK         0.0600 
    181 H181        4.1183  -10.3144  -47.3148 H         1 UNK         0.0600 
    182 H182        4.8809   -9.0570  -46.3489 H         1 UNK         0.0600 
    183 H183        3.5052   -8.6605  -47.3654 H         1 UNK         0.0600 
    184 H184        1.6730  -10.4349  -47.0640 H         1 UNK         0.3000 
    185 H185       -1.0787  -11.7369  -45.3881 H         1 UNK         0.0600 
    186 H186       -1.9778   -9.4085  -45.5830 H         1 UNK         0.0600 
    187 H187       -1.2831   -9.2696  -47.1942 H         1 UNK         0.0600 
    188 H188       -2.5673  -10.4369  -46.8787 H         1 UNK         0.0600 
    189 H189       -0.7952  -11.5714  -48.1415 H         1 UNK         0.3000 
    190 H190       -1.3982  -21.5858  -45.9323 H         1 UNK         0.3000 
    191 H191       -2.7492  -22.1094  -48.2663 H         1 UNK         0.0600 
    192 H192       -3.8687  -21.9023  -45.4280 H         1 UNK         0.0600 
    193 H193       -4.8193  -21.7362  -46.8968 H         1 UNK         0.0600 
    194 H194       -3.5663  -20.5636  -46.5348 H         1 UNK         0.0600 
    195 H195       -2.2057  -24.4186  -45.6295 H         1 UNK         0.3000 
    196 H196       -4.1378  -26.3869  -46.5172 H         1 UNK         0.0600 
    197 H197       -2.9745  -27.8518  -44.8890 H         1 UNK         0.0600 
    198 H198       -3.3198  -26.2885  -44.1643 H         1 UNK         0.0600 
    199 H199       -1.6846  -26.6712  -44.7013 H         1 UNK         0.0600 
    200 H200       -0.6991  -25.7222  -47.1903 H         1 UNK         0.3000 
    201 H201       -0.2455  -28.1434  -48.7483 H         1 UNK         0.0600 
    202 H202        1.6110  -27.0141  -47.5148 H         1 UNK         0.0600 
    203 H203        1.4205  -25.5773  -48.5183 H         1 UNK         0.0600 
    204 H204        1.9369  -27.0931  -49.2392 H         1 UNK         0.0600 
    205 H205       -1.1927  -24.7887  -49.3399 H         1 UNK         0.3000 
    206 H206       -1.2828  -24.9570  -52.2262 H         1 UNK         0.0600 
    207 H207       -1.0198  -22.8146  -50.9065 H         1 UNK         0.0600 
    208 H208       -2.3358  -22.7554  -52.0598 H         1 UNK         0.0600 
    209 H209       -2.6870  -22.9863  -50.3554 H         1 UNK         0.0600 
    210 H210       -3.1453  -26.5329  -49.9833 H         1 UNK         0.3000 
    211 H211       -4.9647  -27.7428  -49.9493 H         1 UNK         0.0600 
    212 H212       -4.8092  -27.5560  -53.0070 H         1 UNK         0.0600 
    213 H213       -5.8287  -28.6794  -52.1151 H         1 UNK         0.0600 
    214 H214       -4.0817  -28.7789  -51.9746 H         1 UNK         0.0600 
    215 H215       -6.1009  -25.9403  -52.7866 H         1 UNK         0.3000 
    216 H216       -8.6355  -25.2489  -51.5206 H         1 UNK         0.0600 
    217 H217       -9.1048  -24.2270  -53.7475 H         1 UNK         0.0600 
    218 H218       -8.5124  -25.8710  -53.9295 H         1 UNK         0.0600 
    219 H219       -7.4412  -24.5047  -54.2470 H         1 UNK         0.0600 
    220 H220       -5.5224  -23.7372  -51.9757 H         1 UNK         0.3000 
    221 H221       -4.6053  -21.7762  -51.5013 H         1 UNK         0.0600 
    222 H222       -6.9746  -21.1927  -49.6454 H         1 UNK         0.0600 
    223 H223       -5.5799  -22.1731  -49.2124 H         1 UNK         0.0600 
    224 H224       -5.3694  -20.4729  -49.5726 H         1 UNK         0.0600 
    225 H225       -6.3135  -19.2679  -50.9164 H         1 UNK         0.3000 
    226 H226       -7.0181  -17.4601  -51.9942 H         1 UNK         0.0600 
    227 H227       -9.1247  -18.7104  -52.1344 H         1 UNK         0.0600 
    228 H228       -8.9336  -17.7556  -53.5935 H         1 UNK         0.0600 
    229 H229       -8.6396  -19.4929  -53.6302 H         1 UNK         0.0600 
    230 H230       -7.3936  -18.9367  -55.1306 H         1 UNK         0.3000 
    231 H231       -5.5489  -17.2014  -56.4468 H         1 UNK         0.0600 
    232 H232       -7.5277  -18.1761  -57.5812 H         1 UNK         0.0600 
    233 H233       -6.8738  -19.8031  -57.3862 H         1 UNK         0.0600 
    234 H234       -6.0607  -18.6409  -58.4278 H         1 UNK         0.0600 
    235 H235       -5.1814  -20.4387  -55.0281 H         1 UNK         0.3000 
    236 H236       -2.6528  -21.0578  -56.2828 H         1 UNK         0.0600 
    237 H237       -2.6146  -22.9285  -54.6615 H         1 UNK         0.0600 
    238 H238       -3.9636  -22.2336  -53.7797 H         1 UNK         0.0600 
    239 H239       -4.1925  -22.8162  -55.4243 H         1 UNK         0.0600 
    240 H240       -3.5074  -18.9139  -53.7108 H         1 UNK         0.3000 
    241 H241       -0.8240  -18.8489  -52.5089 H         1 UNK         0.0600 
    242 H242       -0.9336  -16.2933  -55.6011 H         1 UNK         0.3800 
    243 H243       -2.0345  -17.6413  -55.4952 H         1 UNK         0.3800 
    244 H244       -1.7463  -16.9669  -51.1451 H         1 UNK         0.0800 
    245 H245       -3.2554  -17.0736  -51.9841 H         1 UNK         0.0800 
    246 H246       -2.0670  -17.6142  -48.6909 H         1 UNK         0.0800 
    247 H247       -2.2171  -19.2903  -48.2403 H         1 UNK         0.0800 
@<TRIPOS>BOND
     1    1    2 1    
     2    1  127 1    
     3    1  128 1    
     4    1  129 1    
     5    2    3 2    
     6    2    4 am   BACKBONE|DICT|INTERRES
     7    4    5 1    
     8    4  130 1    
     9    5    6 1    
    10    5   65 1    
    11    5  131 1    
    12    6    7 1    
    13    6  132 1    
    14    6  133 1    
    15    7    8 1    
    16    8    9 1    
    17    8  134 1    
    18    8  135 1    
    19    9   10 ar   
    20    9   14 ar   
    21   10   11 ar   
    22   10  136 1    
    23   11   12 ar   
    24   11  126 1    
    25   12   13 ar   
    26   12  137 1    
    27   13   14 ar   
    28   13   15 1    
    29   14  138 1    
    30   15   16 1    
    31   15  139 1    
    32   15  140 1    
    33   16   17 1    
    34   17   18 1    
    35   17  141 1    
    36   17  142 1    
    37   18   19 1    
    38   18   67 1    
    39   18  143 1    
    40   19   20 am   BACKBONE|DICT|INTERRES
    41   19  144 1    
    42   20   21 2    
    43   20   22 1    
    44   22   23 1    
    45   22   24 1    
    46   22  145 1    
    47   23  146 1    
    48   23  147 1    
    49   23  148 1    
    50   24   25 am   BACKBONE|DICT|INTERRES
    51   24  149 1    
    52   25   26 2    
    53   25   27 1    
    54   27   28 1    
    55   27   29 1    
    56   27  150 1    
    57   28  151 1    
    58   28  152 1    
    59   28  153 1    
    60   29   30 am   BACKBONE|DICT|INTERRES
    61   29  154 1    
    62   30   31 2    
    63   30   32 1    
    64   32   33 1    
    65   32   34 1    
    66   32  155 1    
    67   33  156 1    
    68   33  157 1    
    69   33  158 1    
    70   34   35 am   BACKBONE|DICT|INTERRES
    71   34  159 1    
    72   35   36 2    
    73   35   37 1    
    74   37   38 1    
    75   37   39 1    
    76   37  160 1    
    77   38  161 1    
    78   38  162 1    
    79   38  163 1    
    80   39   40 am   BACKBONE|DICT|INTERRES
    81   39  164 1    
    82   40   41 2    
    83   40   42 1    
    84   42   43 1    
    85   42   44 1    
    86   42  165 1    
    87   43  166 1    
    88   43  167 1    
    89   43  168 1    
    90   44   45 am   BACKBONE|DICT|INTERRES
    91   44  169 1    
    92   45   46 2    
    93   45   47 1    
    94   47   48 1    
    95   47   49 1    
    96   47  170 1    
    97   48  171 1    
    98   48  172 1    
    99   48  173 1    
   100   49   50 am   BACKBONE|DICT|INTERRES
   101   49  174 1    
   102   50   51 2    
   103   50   52 1    
   104   52   53 1    
   105   52   54 1    
   106   52  175 1    
   107   53  176 1    
   108   53  177 1    
   109   53  178 1    
   110   54   55 am   BACKBONE|DICT|INTERRES
   111   54  179 1    
   112   55   56 2    
   113   55   57 1    
   114   57   58 1    
   115   57   59 1    
   116   57  180 1    
   117   58  181 1    
   118   58  182 1    
   119   58  183 1    
   120   59   60 am   BACKBONE|DICT|INTERRES
   121   59  184 1    
   122   60   61 2    
   123   60   62 1    
   124   62   63 1    
   125   62   64 1    
   126   62  185 1    
   127   63  186 1    
   128   63  187 1    
   129   63  188 1    
   130   64   65 am   BACKBONE|DICT|INTERRES
   131   64  189 1    
   132   65   66 2    
   133   67   68 2    
   134   67   69 am   BACKBONE|DICT|INTERRES
   135   69   70 1    
   136   69  190 1    
   137   70   71 1    
   138   70   72 1    
   139   70  191 1    
   140   71  192 1    
   141   71  193 1    
   142   71  194 1    
   143   72   73 2    
   144   72   74 am   BACKBONE|DICT|INTERRES
   145   74   75 1    
   146   74  195 1    
   147   75   76 1    
   148   75   77 1    
   149   75  196 1    
   150   76  197 1    
   151   76  198 1    
   152   76  199 1    
   153   77   78 2    
   154   77   79 am   BACKBONE|DICT|INTERRES
   155   79   80 1    
   156   79  200 1    
   157   80   81 1    
   158   80   82 1    
   159   80  201 1    
   160   81  202 1    
   161   81  203 1    
   162   81  204 1    
   163   82   83 2    
   164   82   84 am   BACKBONE|DICT|INTERRES
   165   84   85 1    
   166   84  205 1    
   167   85   86 1    
   168   85   87 1    
   169   85  206 1    
   170   86  207 1    
   171   86  208 1    
   172   86  209 1    
   173   87   88 2    
   174   87   89 am   BACKBONE|DICT|INTERRES
   175   89   90 1    
   176   89  210 1    
   177   90   91 1    
   178   90   92 1    
   179   90  211 1    
   180   91  212 1    
   181   91  213 1    
   182   91  214 1    
   183   92   93 2    
   184   92   94 am   BACKBONE|DICT|INTERRES
   185   94   95 1    
   186   94  215 1    
   187   95   96 1    
   188   95   97 1    
   189   95  216 1    
   190   96  217 1    
   191   96  218 1    
   192   96  219 1    
   193   97   98 2    
   194   97   99 am   BACKBONE|DICT|INTERRES
   195   99  100 1    
   196   99  220 1    
   197  100  101 1    
   198  100  102 1    
   199  100  221 1    
   200  101  222 1    
   201  101  223 1    
   202  101  224 1    
   203  102  103 2    
   204  102  104 am   BACKBONE|DICT|INTERRES
   205  104  105 1    
   206  104  225 1    
   207  105  106 1    
   208  105  107 1    
   209  105  226 1    
   210  106  227 1    
   211  106  228 1    
   212  106  229 1    
   213  107  108 2    
   214  107  109 am   BACKBONE|DICT|INTERRES
   215  109  110 1    
   216  109  230 1    
   217  110  111 1    
   218  110  112 1    
   219  110  231 1    
   220  111  232 1    
   221  111  233 1    
   222  111  234 1    
   223  112  113 2    
   224  112  114 am   BACKBONE|DICT|INTERRES
   225  114  115 1    
   226  114  235 1    
   227  115  116 1    
   228  115  117 1    
   229  115  236 1    
   230  116  237 1    
   231  116  238 1    
   232  116  239 1    
   233  117  118 2    
   234  117  119 am   BACKBONE|DICT|INTERRES
   235  119  120 1    
   236  119  240 1    
   237  120  121 1    
   238  120  124 1    
   239  120  241 1    
   240  121  122 am   BACKBONE|DICT|INTERRES
   241  121  123 2    
   242  122  242 1    
   243  122  243 1    
   244  124  125 1    
   245  124  244 1    
   246  124  245 1    
   247  125  126 1    
   248  126  246 1    
   249  126  247 1    
@<TRIPOS>SUBSTRUCTURE
     1 UNK         1 GROUP             0       ****    0 ROOT    
