@<TRIPOS>MOLECULE
3R540
247   249    1
SMALL
USER_CHARGES


@<TRIPOS>ATOM
      1 CA          1.7614  -13.6892  -41.4159 C.3       0 UNK        -0.1800 
      2 C           0.7003  -12.6934  -41.8581 C.2       0 UNK         0.5000 
      3 O           0.8854  -11.4883  -41.6820 O.2       0 UNK        -0.5000 
      4 N          -0.4090  -13.1816  -42.4299 N.am      1 UNK        -0.5000 
      5 CA         -1.4946  -12.3622  -42.9765 C.3       1 UNK         0.1400 
      6 C6         -2.7580  -13.1895  -43.3230 C.3       23 UNK        -0.0398 
      7 S7         -2.5037  -14.5905  -44.4722 S.3       23 UNK        -0.2404 
      8 C8         -3.3713  -13.9768  -45.9483 C.3       23 UNK        -0.0205 
      9 C9         -3.5892  -15.0636  -46.9918 C.ar      23 UNK        -0.0193 
     10 C10        -2.9868  -14.9699  -48.2494 C.ar      23 UNK        -0.1150 
     11 C11        -3.2709  -15.9088  -49.2469 C.ar      23 UNK        -0.0193 
     12 C12        -4.1549  -16.9567  -48.9701 C.ar      23 UNK        -0.1150 
     13 C13        -4.7339  -17.0868  -47.7028 C.ar      23 UNK        -0.0193 
     14 C14        -4.4523  -16.1301  -46.7230 C.ar      23 UNK        -0.1150 
     15 C15        -5.6909  -18.2334  -47.3885 C.3       23 UNK        -0.0205 
     16 S16        -5.0555  -19.8732  -47.8719 S.3       23 UNK        -0.2404 
     17 C17        -3.4384  -19.8967  -47.0281 C.3       23 UNK        -0.0398 
     18 CA         -2.8891  -21.3340  -46.8608 C.3       11 UNK         0.1400 
     19 N          -1.4299  -21.3802  -46.9866 N.am      11 UNK        -0.5000 
     20 C          -0.7225  -22.4945  -47.2202 C.2       10 UNK         0.5000 
     21 O          -1.2211  -23.6129  -47.3365 O.2       10 UNK        -0.5000 
     22 CA          0.8072  -22.3426  -47.2898 C.3       10 UNK         0.1400 
     23 CB          1.2448  -21.7521  -48.6384 C.3       10 UNK        -0.1800 
     24 N           1.3391  -21.5281  -46.1979 N.am      10 UNK        -0.5000 
     25 C           1.2677  -21.8667  -44.9027 C.2       9 UNK         0.5000 
     26 O           0.7713  -22.9179  -44.4965 O.2       9 UNK        -0.5000 
     27 CA          1.8057  -20.8439  -43.8871 C.3       9 UNK         0.1400 
     28 CB          3.3363  -20.9275  -43.7911 C.3       9 UNK        -0.1800 
     29 N           1.4064  -19.4706  -44.1965 N.am      9 UNK        -0.5000 
     30 C           0.1386  -19.0335  -44.2238 C.2       8 UNK         0.5000 
     31 O          -0.8356  -19.7397  -43.9721 O.2       8 UNK        -0.5000 
     32 CA         -0.0833  -17.5745  -44.6547 C.3       8 UNK         0.1400 
     33 CB          0.3196  -16.6092  -43.5304 C.3       8 UNK        -0.1800 
     34 N           0.6488  -17.2368  -45.8726 N.am      8 UNK        -0.5000 
     35 C           0.5028  -17.8495  -47.0556 C.2       7 UNK         0.5000 
     36 O          -0.2876  -18.7684  -47.2651 O.2       7 UNK        -0.5000 
     37 CA          1.4510  -17.3974  -48.1761 C.3       7 UNK         0.1400 
     38 CB          0.9674  -16.0800  -48.7994 C.3       7 UNK        -0.1800 
     39 N           2.8226  -17.2426  -47.6903 N.am      7 UNK        -0.5000 
     40 C           3.5997  -18.2540  -47.2760 C.2       6 UNK         0.5000 
     41 O           3.2593  -19.4370  -47.3015 O.2       6 UNK        -0.5000 
     42 CA          4.9734  -17.8700  -46.6958 C.3       6 UNK         0.1400 
     43 CB          5.9846  -17.6003  -47.8201 C.3       6 UNK        -0.1800 
     44 N           4.9020  -16.7037  -45.8131 N.am      6 UNK        -0.5000 
     45 C           4.2717  -16.6953  -44.6302 C.2       5 UNK         0.5000 
     46 O           3.7161  -17.6809  -44.1466 O.2       5 UNK        -0.5000 
     47 CA          4.2124  -15.3525  -43.8776 C.3       5 UNK         0.1400 
     48 CB          5.4498  -15.1726  -42.9868 C.3       5 UNK        -0.1800 
     49 N           4.0619  -14.1780  -44.7428 N.am      5 UNK        -0.5000 
     50 C           3.0529  -13.9798  -45.6013 C.2       4 UNK         0.5000 
     51 O           2.1525  -14.7977  -45.7893 O.2       4 UNK        -0.5000 
     52 CA          3.0501  -12.6348  -46.3437 C.3       4 UNK         0.1400 
     53 CB          2.0897  -12.6170  -47.5458 C.3       4 UNK        -0.1800 
     54 N           2.6573  -11.5802  -45.4164 N.am      4 UNK        -0.5000 
     55 C           3.5026  -10.7985  -44.7314 C.2       3 UNK         0.5000 
     56 O           4.7270  -10.9226  -44.7952 O.2       3 UNK        -0.5000 
     57 CA          2.8995   -9.7208  -43.8011 C.3       3 UNK         0.1400 
     58 CB          3.6573   -8.3796  -43.8864 C.3       3 UNK        -0.1800 
     59 N           1.4529   -9.5289  -43.9627 N.am      3 UNK        -0.5000 
     60 C           0.7903   -9.0448  -45.0271 C.2       2 UNK         0.5000 
     61 O           1.3445   -8.5722  -46.0203 O.2       2 UNK        -0.5000 
     62 CA         -0.7555   -9.1351  -44.9805 C.3       2 UNK         0.1400 
     63 CB         -1.3802   -9.2848  -46.3841 C.3       2 UNK        -0.1800 
     64 N          -1.2591  -10.1841  -44.0797 N.am      2 UNK        -0.5000 
     65 C          -0.9928  -11.4973  -44.1526 C.2       1 UNK         0.5000 
     66 O          -0.3176  -12.0096  -45.0473 O.2       1 UNK        -0.5000 
     67 C          -3.4014  -22.0065  -45.5659 C.2       11 UNK         0.5000 
     68 O          -4.5106  -22.5413  -45.5548 O.2       11 UNK        -0.5000 
     69 N          -2.5895  -21.9884  -44.4988 N.am      12 UNK        -0.5000 
     70 CA         -2.8626  -22.6909  -43.2447 C.3       12 UNK         0.1400 
     71 CB         -1.9483  -22.1505  -42.1350 C.3       12 UNK        -0.1800 
     72 C          -2.7101  -24.2175  -43.3744 C.2       12 UNK         0.5000 
     73 O          -3.4495  -24.9506  -42.7163 O.2       12 UNK        -0.5000 
     74 N          -1.7656  -24.6720  -44.2122 N.am      13 UNK        -0.5000 
     75 CA         -1.5243  -26.0888  -44.4940 C.3       13 UNK         0.1400 
     76 CB         -0.1944  -26.2524  -45.2460 C.3       13 UNK        -0.1800 
     77 C          -2.6850  -26.7399  -45.2692 C.2       13 UNK         0.5000 
     78 O          -3.0965  -27.8493  -44.9267 O.2       13 UNK        -0.5000 
     79 N          -3.2136  -26.0243  -46.2673 N.am      14 UNK        -0.5000 
     80 CA         -4.4068  -26.3736  -47.0313 C.3       14 UNK         0.1400 
     81 CB         -4.0952  -27.4875  -48.0461 C.3       14 UNK        -0.1800 
     82 C          -4.8944  -25.1096  -47.7461 C.2       14 UNK         0.5000 
     83 O          -4.0671  -24.2689  -48.0979 O.2       14 UNK        -0.5000 
     84 N          -6.2104  -24.9972  -47.9709 N.am      15 UNK        -0.5000 
     85 CA         -6.8567  -23.8516  -48.6207 C.3       15 UNK         0.1400 
     86 CB         -8.3703  -24.1030  -48.7022 C.3       15 UNK        -0.1800 
     87 C          -6.2666  -23.5689  -50.0157 C.2       15 UNK         0.5000 
     88 O          -6.3703  -24.4197  -50.9025 O.2       15 UNK        -0.5000 
     89 N          -5.5938  -22.4160  -50.1505 N.am      16 UNK        -0.5000 
     90 CA         -4.8146  -21.9805  -51.3171 C.3       16 UNK         0.1400 
     91 CB         -5.7579  -21.6093  -52.4768 C.3       16 UNK        -0.1800 
     92 C          -3.7287  -23.0023  -51.7274 C.2       16 UNK         0.5000 
     93 O          -3.5141  -23.2416  -52.9189 O.2       16 UNK        -0.5000 
     94 N          -3.1170  -23.6472  -50.7214 N.am      17 UNK        -0.5000 
     95 CA         -2.1324  -24.7326  -50.8056 C.3       17 UNK         0.1400 
     96 CB         -0.8403  -24.2315  -51.4813 C.3       17 UNK        -0.1800 
     97 C          -2.6664  -26.0176  -51.4789 C.2       17 UNK         0.5000 
     98 O          -1.8667  -26.8821  -51.8389 O.2       17 UNK        -0.5000 
     99 N          -3.9938  -26.1069  -51.6735 N.am      18 UNK        -0.5000 
    100 CA        -4.7135  -27.0867  -52.4963 C.3       18 UNK         0.1400 
    101 CB        -4.6184  -28.5013  -51.8876 C.3       18 UNK        -0.1800 
    102 C         -4.3045  -27.0496  -53.9884 C.2       18 UNK         0.5000 
    103 O         -4.4839  -28.0435  -54.6948 O.2       18 UNK        -0.5000 
    104 N         -3.7561  -25.9129  -54.4409 N.am      19 UNK        -0.5000 
    105 CA        -3.1569  -25.7360  -55.7654 C.3       19 UNK         0.1400 
    106 CB        -1.6267  -25.8193  -55.6177 C.3       19 UNK        -0.1800 
    107 C         -3.5795  -24.4142  -56.4325 C.2       19 UNK         0.5000 
    108 O         -3.0416  -24.0812  -57.4895 O.2       19 UNK        -0.5000 
    109 N         -4.5106  -23.6778  -55.8053 N.am      20 UNK        -0.5000 
    110 CA        -4.9549  -22.3248  -56.1642 C.3       20 UNK         0.1400 
    111 CB        -5.6861  -22.3183  -57.5236 C.3       20 UNK        -0.1800 
    112 C         -3.8119  -21.2872  -56.0796 C.2       20 UNK         0.5000 
    113 O         -3.7403  -20.3706  -56.9009 O.2       20 UNK        -0.5000 
    114 N         -2.9271  -21.4633  -55.0888 N.am      21 UNK        -0.5000 
    115 CA        -1.7923  -20.5883  -54.8091 C.3       21 UNK         0.1400 
    116 CB        -0.8312  -21.3093  -53.8515 C.3       21 UNK        -0.1800 
    117 C         -2.2414  -19.2457  -54.2063 C.2       21 UNK         0.5000 
    118 O         -3.2555  -19.1968  -53.5073 O.2       21 UNK        -0.5000 
    119 N         -1.4591  -18.1988  -54.4950 N.am      22 UNK        -0.5000 
    120 CA        -1.5419  -16.7944  -54.0423 C.3       22 UNK         0.1400 
    121 C         -2.8851  -16.0192  -54.2204 C.2       22 UNK         0.5000 
    122 N         -4.0090  -16.6648  -54.4904 N.am      22 UNK        -0.7600 
    123 O         -2.8948  -14.7933  -54.1481 O.2       22 UNK        -0.5000 
    124 C124       -0.8858  -16.5586  -52.6526 C.3       23 UNK        -0.0398 
    125 S125       -1.7812  -17.2342  -51.2087 S.3       23 UNK        -0.2404 
    126 C126       -2.6684  -15.7475  -50.6365 C.3       23 UNK        -0.0205 
    127 H127        2.7069  -13.4664  -41.9099 H         1 UNK         0.0600 
    128 H128        1.9150  -13.6185  -40.3393 H         1 UNK         0.0600 
    129 H129        1.4812  -14.7151  -41.6519 H         1 UNK         0.0600 
    130 H130       -0.4992  -14.1741  -42.5886 H         1 UNK         0.3000 
    131 H131       -1.7879  -11.6796  -42.1756 H         1 UNK         0.0600 
    132 H132       -3.1647  -13.6081  -42.4015 H         1 UNK         0.0800 
    133 H133       -3.5420  -12.5323  -43.7026 H         1 UNK         0.0800 
    134 H134       -2.8064  -13.1422  -46.3671 H         1 UNK         0.0800 
    135 H135       -4.3459  -13.5796  -45.6611 H         1 UNK         0.0800 
    136 H136       -2.3232  -14.1435  -48.4625 H         1 UNK         0.1150 
    137 H137       -4.3863  -17.6770  -49.7424 H         1 UNK         0.1150 
    138 H138       -4.9173  -16.2019  -45.7498 H         1 UNK         0.1150 
    139 H139       -5.9255  -18.2573  -46.3232 H         1 UNK         0.0800 
    140 H140       -6.6334  -18.0549  -47.9074 H         1 UNK         0.0800 
    141 H141       -3.4921  -19.3685  -46.0740 H         1 UNK         0.0800 
    142 H142       -2.7699  -19.3076  -47.6563 H         1 UNK         0.0800 
    143 H143       -3.2672  -21.9249  -47.6952 H         1 UNK         0.0600 
    144 H144       -0.9414  -20.4887  -46.9311 H         1 UNK         0.3000 
    145 H145        1.2430  -23.3401  -47.2021 H         1 UNK         0.0600 
    146 H146        2.3312  -21.6990  -48.7107 H         1 UNK         0.0600 
    147 H147        0.8964  -22.3700  -49.4649 H         1 UNK         0.0600 
    148 H148        0.8508  -20.7467  -48.7887 H         1 UNK         0.0600 
    149 H149        1.7883  -20.6560  -46.4565 H         1 UNK         0.3000 
    150 H150        1.3899  -21.0978  -42.9100 H         1 UNK         0.0600 
    151 H151        3.6597  -21.9435  -43.5611 H         1 UNK         0.0600 
    152 H152        3.7167  -20.2787  -43.0020 H         1 UNK         0.0600 
    153 H153        3.8148  -20.6321  -44.7256 H         1 UNK         0.0600 
    154 H154        2.1577  -18.8125  -44.3844 H         1 UNK         0.3000 
    155 H155       -1.1460  -17.4377  -44.8653 H         1 UNK         0.0600 
    156 H156        1.3403  -16.7838  -43.1920 H         1 UNK         0.0600 
    157 H157       -0.3368  -16.7241  -42.6673 H         1 UNK         0.0600 
    158 H158        0.2552  -15.5736  -43.8618 H         1 UNK         0.0600 
    159 H159        1.2962  -16.4543  -45.8116 H         1 UNK         0.3000 
    160 H160        1.4465  -18.1651  -48.9528 H         1 UNK         0.0600 
    161 H161        1.5997  -15.7762  -49.6335 H         1 UNK         0.0600 
    162 H162        0.9492  -15.2703  -48.0718 H         1 UNK         0.0600 
    163 H163       -0.0481  -16.1828  -49.1774 H         1 UNK         0.0600 
    164 H164        3.1543  -16.2975  -47.5703 H         1 UNK         0.3000 
    165 H165        5.3347  -18.7179  -46.1097 H         1 UNK         0.0600 
    166 H166        6.9790  -17.4068  -47.4174 H         1 UNK         0.0600 
    167 H167        6.0664  -18.4612  -48.4850 H         1 UNK         0.0600 
    168 H168        5.6954  -16.7422  -48.4280 H         1 UNK         0.0600 
    169 H169        5.3329  -15.8509  -46.1381 H         1 UNK         0.3000 
    170 H170        3.3353  -15.3930  -43.2312 H         1 UNK         0.0600 
    171 H171        5.5750  -16.0232  -42.3153 H         1 UNK         0.0600 
    172 H172        6.3619  -15.0832  -43.5781 H         1 UNK         0.0600 
    173 H173        5.3625  -14.2807  -42.3660 H         1 UNK         0.0600 
    174 H174        4.7480  -13.4432  -44.6343 H         1 UNK         0.3000 
    175 H175        4.0576  -12.4541  -46.7240 H         1 UNK         0.0600 
    176 H176        1.0624  -12.8356  -47.2513 H         1 UNK         0.0600 
    177 H177        2.0933  -11.6434  -48.0361 H         1 UNK         0.0600 
    178 H178        2.3870  -13.3553  -48.2907 H         1 UNK         0.0600 
    179 H179        1.6583  -11.4828  -45.2655 H         1 UNK         0.3000 
    180 H180        3.0329  -10.1020  -42.7879 H         1 UNK         0.0600 
    181 H181        3.6565   -7.9740  -44.8982 H         1 UNK         0.0600 
    182 H182        4.6993   -8.5006  -43.5879 H         1 UNK         0.0600 
    183 H183        3.2170   -7.6342  -43.2241 H         1 UNK         0.0600 
    184 H184        0.9015   -9.9238  -43.2093 H         1 UNK         0.3000 
    185 H185       -1.0986   -8.1861  -44.5664 H         1 UNK         0.0600 
    186 H186       -1.1393   -8.4279  -47.0142 H         1 UNK         0.0600 
    187 H187       -1.0186  -10.1773  -46.8959 H         1 UNK         0.0600 
    188 H188       -2.4669   -9.3478  -46.3278 H         1 UNK         0.0600 
    189 H189       -1.7966   -9.8473  -43.2924 H         1 UNK         0.3000 
    190 H190       -1.7316  -21.4477  -44.5397 H         1 UNK         0.3000 
    191 H191       -3.8957  -22.4857  -42.9562 H         1 UNK         0.0600 
    192 H192       -0.8944  -22.2831  -42.3805 H         1 UNK         0.0600 
    193 H193       -2.1329  -22.6643  -41.1907 H         1 UNK         0.0600 
    194 H194       -2.1222  -21.0882  -41.9642 H         1 UNK         0.0600 
    195 H195       -1.1690  -24.0039  -44.6852 H         1 UNK         0.3000 
    196 H196       -1.4320  -26.6075  -43.5375 H         1 UNK         0.0600 
    197 H197        0.0304  -27.3065  -45.4123 H         1 UNK         0.0600 
    198 H198        0.6342  -25.8280  -44.6788 H         1 UNK         0.0600 
    199 H199       -0.2156  -25.7659  -46.2209 H         1 UNK         0.0600 
    200 H200       -2.8174  -25.1190  -46.5042 H         1 UNK         0.3000 
    201 H201       -5.1840  -26.7087  -46.3415 H         1 UNK         0.0600 
    202 H202       -3.7829  -28.4065  -47.5505 H         1 UNK         0.0600 
    203 H203       -3.3028  -27.1932  -48.7346 H         1 UNK         0.0600 
    204 H204       -4.9784  -27.7258  -48.6386 H         1 UNK         0.0600 
    205 H205       -6.8213  -25.7469  -47.6820 H         1 UNK         0.3000 
    206 H206       -6.6917  -22.9790  -47.9846 H         1 UNK         0.0600 
    207 H207       -8.8042  -24.2286  -47.7101 H         1 UNK         0.0600 
    208 H208       -8.8798  -23.2624  -49.1750 H         1 UNK         0.0600 
    209 H209       -8.5996  -24.9960  -49.2854 H         1 UNK         0.0600 
    210 H210       -5.5422  -21.7996  -49.3496 H         1 UNK         0.3000 
    211 H211       -4.2847  -21.0749  -51.0173 H         1 UNK         0.0600 
    212 H212       -6.2467  -22.4870  -52.9007 H         1 UNK         0.0600 
    213 H213       -5.2076  -21.1135  -53.2752 H         1 UNK         0.0600 
    214 H214       -6.5336  -20.9180  -52.1479 H         1 UNK         0.0600 
    215 H215       -3.4398  -23.4673  -49.7741 H         1 UNK         0.3000 
    216 H216       -1.8910  -25.0004  -49.7759 H         1 UNK         0.0600 
    217 H217       -0.9727  -24.1006  -52.5554 H         1 UNK         0.0600 
    218 H218       -0.0240  -24.9400  -51.3381 H         1 UNK         0.0600 
    219 H219       -0.5210  -23.2769  -51.0660 H         1 UNK         0.0600 
    220 H220       -4.5738  -25.3489  -51.3286 H         1 UNK         0.3000 
    221 H221       -5.7621  -26.7876  -52.4676 H         1 UNK         0.0600 
    222 H222       -3.6030  -28.8957  -51.9289 H         1 UNK         0.0600 
    223 H223       -4.9388  -28.5055  -50.8472 H         1 UNK         0.0600 
    224 H224       -5.2613  -29.2017  -52.4217 H         1 UNK         0.0600 
    225 H225       -3.6362  -25.1409  -53.7932 H         1 UNK         0.3000 
    226 H226       -3.4829  -26.5312  -56.4384 H         1 UNK         0.0600 
    227 H227       -1.3252  -26.7660  -55.1687 H         1 UNK         0.0600 
    228 H228       -1.1299  -25.7483  -56.5860 H         1 UNK         0.0600 
    229 H229       -1.2426  -25.0148  -54.9892 H         1 UNK         0.0600 
    230 H230       -4.8803  -24.0394  -54.9380 H         1 UNK         0.3000 
    231 H231       -5.6852  -22.0344  -55.4093 H         1 UNK         0.0600 
    232 H232       -6.4806  -23.0642  -57.5474 H         1 UNK         0.0600 
    233 H233       -5.0088  -22.5221  -58.3531 H         1 UNK         0.0600 
    234 H234       -6.1475  -21.3484  -57.7122 H         1 UNK         0.0600 
    235 H235       -3.0958  -22.2053  -54.4147 H         1 UNK         0.3000 
    236 H236       -1.2700  -20.4003  -55.7496 H         1 UNK         0.0600 
    237 H237        0.0674  -20.7160  -53.6784 H         1 UNK         0.0600 
    238 H238       -1.2933  -21.4905  -52.8806 H         1 UNK         0.0600 
    239 H239       -0.5140  -22.2696  -54.2583 H         1 UNK         0.0600 
    240 H240       -0.6769  -18.3767  -55.1085 H         1 UNK         0.3000 
    241 H241       -0.8853  -16.2893  -54.7521 H         1 UNK         0.0600 
    242 H242       -4.0141  -17.6758  -54.4069 H         1 UNK         0.3800 
    243 H243       -4.8690  -16.1561  -54.6178 H         1 UNK         0.3800 
    244 H244        0.1084  -17.0069  -52.6494 H         1 UNK         0.0800 
    245 H245       -0.7098  -15.4925  -52.5016 H         1 UNK         0.0800 
    246 H246       -1.9853  -14.8970  -50.6499 H         1 UNK         0.0800 
    247 H247       -3.4689  -15.5136  -51.3391 H         1 UNK         0.0800 
@<TRIPOS>BOND
     1    1    2 1    
     2    1  127 1    
     3    1  128 1    
     4    1  129 1    
     5    2    3 2    
     6    2    4 am   BACKBONE|DICT|INTERRES
     7    4    5 1    
     8    4  130 1    
     9    5    6 1    
    10    5   65 1    
    11    5  131 1    
    12    6    7 1    
    13    6  132 1    
    14    6  133 1    
    15    7    8 1    
    16    8    9 1    
    17    8  134 1    
    18    8  135 1    
    19    9   10 ar   
    20    9   14 ar   
    21   10   11 ar   
    22   10  136 1    
    23   11   12 ar   
    24   11  126 1    
    25   12   13 ar   
    26   12  137 1    
    27   13   14 ar   
    28   13   15 1    
    29   14  138 1    
    30   15   16 1    
    31   15  139 1    
    32   15  140 1    
    33   16   17 1    
    34   17   18 1    
    35   17  141 1    
    36   17  142 1    
    37   18   19 1    
    38   18   67 1    
    39   18  143 1    
    40   19   20 am   BACKBONE|DICT|INTERRES
    41   19  144 1    
    42   20   21 2    
    43   20   22 1    
    44   22   23 1    
    45   22   24 1    
    46   22  145 1    
    47   23  146 1    
    48   23  147 1    
    49   23  148 1    
    50   24   25 am   BACKBONE|DICT|INTERRES
    51   24  149 1    
    52   25   26 2    
    53   25   27 1    
    54   27   28 1    
    55   27   29 1    
    56   27  150 1    
    57   28  151 1    
    58   28  152 1    
    59   28  153 1    
    60   29   30 am   BACKBONE|DICT|INTERRES
    61   29  154 1    
    62   30   31 2    
    63   30   32 1    
    64   32   33 1    
    65   32   34 1    
    66   32  155 1    
    67   33  156 1    
    68   33  157 1    
    69   33  158 1    
    70   34   35 am   BACKBONE|DICT|INTERRES
    71   34  159 1    
    72   35   36 2    
    73   35   37 1    
    74   37   38 1    
    75   37   39 1    
    76   37  160 1    
    77   38  161 1    
    78   38  162 1    
    79   38  163 1    
    80   39   40 am   BACKBONE|DICT|INTERRES
    81   39  164 1    
    82   40   41 2    
    83   40   42 1    
    84   42   43 1    
    85   42   44 1    
    86   42  165 1    
    87   43  166 1    
    88   43  167 1    
    89   43  168 1    
    90   44   45 am   BACKBONE|DICT|INTERRES
    91   44  169 1    
    92   45   46 2    
    93   45   47 1    
    94   47   48 1    
    95   47   49 1    
    96   47  170 1    
    97   48  171 1    
    98   48  172 1    
    99   48  173 1    
   100   49   50 am   BACKBONE|DICT|INTERRES
   101   49  174 1    
   102   50   51 2    
   103   50   52 1    
   104   52   53 1    
   105   52   54 1    
   106   52  175 1    
   107   53  176 1    
   108   53  177 1    
   109   53  178 1    
   110   54   55 am   BACKBONE|DICT|INTERRES
   111   54  179 1    
   112   55   56 2    
   113   55   57 1    
   114   57   58 1    
   115   57   59 1    
   116   57  180 1    
   117   58  181 1    
   118   58  182 1    
   119   58  183 1    
   120   59   60 am   BACKBONE|DICT|INTERRES
   121   59  184 1    
   122   60   61 2    
   123   60   62 1    
   124   62   63 1    
   125   62   64 1    
   126   62  185 1    
   127   63  186 1    
   128   63  187 1    
   129   63  188 1    
   130   64   65 am   BACKBONE|DICT|INTERRES
   131   64  189 1    
   132   65   66 2    
   133   67   68 2    
   134   67   69 am   BACKBONE|DICT|INTERRES
   135   69   70 1    
   136   69  190 1    
   137   70   71 1    
   138   70   72 1    
   139   70  191 1    
   140   71  192 1    
   141   71  193 1    
   142   71  194 1    
   143   72   73 2    
   144   72   74 am   BACKBONE|DICT|INTERRES
   145   74   75 1    
   146   74  195 1    
   147   75   76 1    
   148   75   77 1    
   149   75  196 1    
   150   76  197 1    
   151   76  198 1    
   152   76  199 1    
   153   77   78 2    
   154   77   79 am   BACKBONE|DICT|INTERRES
   155   79   80 1    
   156   79  200 1    
   157   80   81 1    
   158   80   82 1    
   159   80  201 1    
   160   81  202 1    
   161   81  203 1    
   162   81  204 1    
   163   82   83 2    
   164   82   84 am   BACKBONE|DICT|INTERRES
   165   84   85 1    
   166   84  205 1    
   167   85   86 1    
   168   85   87 1    
   169   85  206 1    
   170   86  207 1    
   171   86  208 1    
   172   86  209 1    
   173   87   88 2    
   174   87   89 am   BACKBONE|DICT|INTERRES
   175   89   90 1    
   176   89  210 1    
   177   90   91 1    
   178   90   92 1    
   179   90  211 1    
   180   91  212 1    
   181   91  213 1    
   182   91  214 1    
   183   92   93 2    
   184   92   94 am   BACKBONE|DICT|INTERRES
   185   94   95 1    
   186   94  215 1    
   187   95   96 1    
   188   95   97 1    
   189   95  216 1    
   190   96  217 1    
   191   96  218 1    
   192   96  219 1    
   193   97   98 2    
   194   97   99 am   BACKBONE|DICT|INTERRES
   195   99  100 1    
   196   99  220 1    
   197  100  101 1    
   198  100  102 1    
   199  100  221 1    
   200  101  222 1    
   201  101  223 1    
   202  101  224 1    
   203  102  103 2    
   204  102  104 am   BACKBONE|DICT|INTERRES
   205  104  105 1    
   206  104  225 1    
   207  105  106 1    
   208  105  107 1    
   209  105  226 1    
   210  106  227 1    
   211  106  228 1    
   212  106  229 1    
   213  107  108 2    
   214  107  109 am   BACKBONE|DICT|INTERRES
   215  109  110 1    
   216  109  230 1    
   217  110  111 1    
   218  110  112 1    
   219  110  231 1    
   220  111  232 1    
   221  111  233 1    
   222  111  234 1    
   223  112  113 2    
   224  112  114 am   BACKBONE|DICT|INTERRES
   225  114  115 1    
   226  114  235 1    
   227  115  116 1    
   228  115  117 1    
   229  115  236 1    
   230  116  237 1    
   231  116  238 1    
   232  116  239 1    
   233  117  118 2    
   234  117  119 am   BACKBONE|DICT|INTERRES
   235  119  120 1    
   236  119  240 1    
   237  120  121 1    
   238  120  124 1    
   239  120  241 1    
   240  121  122 am   BACKBONE|DICT|INTERRES
   241  121  123 2    
   242  122  242 1    
   243  122  243 1    
   244  124  125 1    
   245  124  244 1    
   246  124  245 1    
   247  125  126 1    
   248  126  246 1    
   249  126  247 1    
@<TRIPOS>SUBSTRUCTURE
     1 UNK         1 GROUP             0       ****    0 ROOT    
