@<TRIPOS>MOLECULE
3R540
247   249    1
SMALL
USER_CHARGES


@<TRIPOS>ATOM
      1 CA          2.9611  -15.7165  -52.2014 C.3       0 UNK        -0.1800 
      2 C           2.7066  -15.3981  -50.7353 C.2       0 UNK         0.5000 
      3 O           3.4768  -15.8200  -49.8718 O.2       0 UNK        -0.5000 
      4 N           1.6389  -14.6423  -50.4491 N.am      1 UNK        -0.5000 
      5 CA          1.1778  -14.2712  -49.1044 C.3       1 UNK         0.1400 
      6 C6         -0.3645  -14.0261  -49.0858 C.3       23 UNK        -0.0398 
      7 S7         -1.2097  -15.1152  -47.8920 S.3       23 UNK        -0.2404 
      8 C8         -2.0544  -16.3031  -48.9828 C.3       23 UNK        -0.0205 
      9 C9         -1.1109  -17.0258  -49.9336 C.ar      23 UNK        -0.0193 
     10 C10        -1.2758  -16.8956  -51.3143 C.ar      23 UNK        -0.1150 
     11 C11        -0.4386  -17.5827  -52.1948 C.ar      23 UNK        -0.0193 
     12 C12         0.5786  -18.3936  -51.6873 C.ar      23 UNK        -0.1150 
     13 C13         0.7596  -18.5370  -50.3092 C.ar      23 UNK        -0.0193 
     14 C14        -0.0912  -17.8431  -49.4380 C.ar      23 UNK        -0.1150 
     15 C15         1.8950  -19.4325  -49.8137 C.3       23 UNK        -0.0205 
     16 S16         1.6466  -20.1763  -48.1671 S.3       23 UNK        -0.2404 
     17 C17         0.0685  -21.0675  -48.3952 C.3       23 UNK        -0.0398 
     18 CA         -0.0532  -22.2834  -47.4502 C.3       11 UNK         0.1400 
     19 N           0.0640  -21.9209  -46.0349 N.am      11 UNK        -0.5000 
     20 C           0.3587  -22.7958  -45.0652 C.2       10 UNK         0.5000 
     21 O           0.5232  -23.9991  -45.2655 O.2       10 UNK        -0.5000 
     22 CA          0.4493  -22.2506  -43.6305 C.3       10 UNK         0.1400 
     23 CB          1.7917  -21.5411  -43.4017 C.3       10 UNK        -0.1800 
     24 N          -0.6492  -21.3528  -43.2719 N.am      10 UNK        -0.5000 
     25 C          -1.9383  -21.7148  -43.2080 C.2       9 UNK         0.5000 
     26 O          -2.3535  -22.8228  -43.5475 O.2       9 UNK        -0.5000 
     27 CA         -2.9277  -20.6609  -42.6863 C.3       9 UNK         0.1400 
     28 CB         -2.7708  -20.4583  -41.1710 C.3       9 UNK        -0.1800 
     29 N          -2.7378  -19.3868  -43.3730 N.am      9 UNK        -0.5000 
     30 C          -3.3399  -19.0614  -44.5248 C.2       8 UNK         0.5000 
     31 O          -4.1900  -19.7624  -45.0706 O.2       8 UNK        -0.5000 
     32 CA         -2.9024  -17.7491  -45.2045 C.3       8 UNK         0.1400 
     33 CB         -3.8519  -16.6017  -44.8352 C.3       8 UNK        -0.1800 
     34 N          -1.5184  -17.3668  -44.9068 N.am      8 UNK        -0.5000 
     35 C          -0.4580  -18.0988  -45.2789 C.2       7 UNK         0.5000 
     36 O          -0.5562  -19.1533  -45.9018 O.2       7 UNK        -0.5000 
     37 CA          0.9375  -17.6345  -44.8303 C.3       7 UNK         0.1400 
     38 CB          1.5717  -16.6846  -45.8559 C.3       7 UNK        -0.1800 
     39 N           0.9641  -17.0202  -43.5036 N.am      7 UNK        -0.5000 
     40 C           0.6238  -17.6326  -42.3604 C.2       6 UNK         0.5000 
     41 O           0.1354  -18.7621  -42.3093 O.2       6 UNK        -0.5000 
     42 CA          0.8630  -16.8501  -41.0607 C.3       6 UNK         0.1400 
     43 CB          2.3546  -16.8671  -40.6912 C.3       6 UNK        -0.1800 
     44 N           0.4194  -15.4659  -41.2039 N.am      6 UNK        -0.5000 
     45 C          -0.7223  -14.9751  -40.7053 C.2       5 UNK         0.5000 
     46 O          -1.4881  -15.6158  -39.9842 O.2       5 UNK        -0.5000 
     47 CA         -1.0847  -13.5236  -41.0838 C.3       5 UNK         0.1400 
     48 CB         -0.5920  -12.5490  -40.0033 C.3       5 UNK        -0.1800 
     49 N          -0.5639  -13.0942  -42.3847 N.am      5 UNK        -0.5000 
     50 C          -0.8721  -13.6594  -43.5599 C.2       4 UNK         0.5000 
     51 O          -1.6305  -14.6204  -43.6818 O.2       4 UNK        -0.5000 
     52 CA         -0.1784  -13.0903  -44.8096 C.3       4 UNK         0.1400 
     53 CB         -0.9792  -11.9076  -45.3734 C.3       4 UNK        -0.1800 
     54 N           1.2267  -12.6950  -44.6519 N.am      4 UNK        -0.5000 
     55 C           2.2075  -13.3996  -44.0680 C.2       3 UNK         0.5000 
     56 O           2.0291  -14.4363  -43.4271 O.2       3 UNK        -0.5000 
     57 CA          3.6316  -12.8892  -44.3235 C.3       3 UNK         0.1400 
     58 CB          4.7049  -13.7020  -43.5763 C.3       3 UNK        -0.1800 
     59 N           3.8707  -12.9814  -45.7602 N.am      3 UNK        -0.5000 
     60 C           4.2849  -11.9870  -46.5517 C.2       2 UNK         0.5000 
     61 O           4.6012  -10.8689  -46.1437 O.2       2 UNK        -0.5000 
     62 CA          4.3344  -12.2888  -48.0623 C.3       2 UNK         0.1400 
     63 CB          5.7361  -12.7665  -48.4703 C.3       2 UNK        -0.1800 
     64 N           3.3482  -13.2824  -48.5000 N.am      2 UNK        -0.5000 
     65 C           2.0190  -13.1107  -48.5110 C.2       1 UNK         0.5000 
     66 O           1.4783  -12.0836  -48.0997 O.2       1 UNK        -0.5000 
     67 C          -1.3490  -23.0676  -47.7276 C.2       11 UNK         0.5000 
     68 O          -1.3614  -23.8867  -48.6454 O.2       11 UNK        -0.5000 
     69 N          -2.3965  -22.8406  -46.9205 N.am      12 UNK        -0.5000 
     70 CA         -3.6330  -23.6216  -46.9480 C.3       12 UNK         0.1400 
     71 CB         -4.7424  -22.8844  -46.1854 C.3       12 UNK        -0.1800 
     72 C          -3.4208  -25.0404  -46.3950 C.2       12 UNK         0.5000 
     73 O          -3.8772  -26.0029  -47.0112 O.2       12 UNK        -0.5000 
     74 N          -2.6917  -25.1504  -45.2746 N.am      13 UNK        -0.5000 
     75 CA         -2.3048  -26.4186  -44.6516 C.3       13 UNK         0.1400 
     76 CB         -1.6618  -26.1421  -43.2841 C.3       13 UNK        -0.1800 
     77 C          -1.3671  -27.2596  -45.5392 C.2       13 UNK         0.5000 
     78 O          -1.5302  -28.4779  -45.6141 O.2       13 UNK        -0.5000 
     79 N          -0.4273  -26.5910  -46.2215 N.am      14 UNK        -0.5000 
     80 CA          0.4859  -27.1919  -47.1968 C.3       14 UNK         0.1400 
     81 CB          1.6616  -26.2294  -47.4286 C.3       14 UNK        -0.1800 
     82 C          -0.1839  -27.5376  -48.5432 C.2       14 UNK         0.5000 
     83 O           0.4078  -28.2772  -49.3303 O.2       14 UNK        -0.5000 
     84 N          -1.3777  -26.9781  -48.7948 N.am      15 UNK        -0.5000 
     85 CA         -2.1546  -27.0394  -50.0388 C.3       15 UNK         0.1400 
     86 CB         -2.6228  -28.4795  -50.3328 C.3       15 UNK        -0.1800 
     87 C          -1.4337  -26.3766  -51.2345 C.2       15 UNK         0.5000 
     88 O          -1.6274  -26.7809  -52.3823 O.2       15 UNK        -0.5000 
     89 N          -0.6223  -25.3544  -50.9374 N.am      16 UNK        -0.5000 
     90 CA          0.0648  -24.5026  -51.9067 C.3       16 UNK         0.1400 
     91 CB          1.3377  -23.9426  -51.2519 C.3       16 UNK        -0.1800 
     92 C          -0.8392  -23.3563  -52.3987 C.2       16 UNK         0.5000 
     93 O          -0.6177  -22.8345  -53.4914 O.2       16 UNK        -0.5000 
     94 N          -1.8409  -22.9992  -51.5889 N.am      17 UNK        -0.5000 
     95 CA         -2.8753  -22.0122  -51.8671 C.3       17 UNK         0.1400 
     96 CB         -2.4757  -20.6795  -51.2089 C.3       17 UNK        -0.1800 
     97 C          -4.1962  -22.5313  -51.2807 C.2       17 UNK         0.5000 
     98 O          -4.1875  -23.4786  -50.4916 O.2       17 UNK        -0.5000 
     99 N          -5.3044  -21.8635  -51.6144 N.am      18 UNK        -0.5000 
    100 CA        -6.6159  -22.0575  -50.9879 C.3       18 UNK         0.1400 
    101 CB        -7.6899  -22.0812  -52.0904 C.3       18 UNK        -0.1800 
    102 C         -6.8516  -20.9384  -49.9518 C.2       18 UNK         0.5000 
    103 O         -7.9156  -20.3193  -49.9388 O.2       18 UNK        -0.5000 
    104 N         -5.7996  -20.6396  -49.1699 N.am      19 UNK        -0.5000 
    105 CA        -5.5968  -19.4556  -48.3160 C.3       19 UNK         0.1400 
    106 CB        -6.6953  -19.3330  -47.2405 C.3       19 UNK        -0.1800 
    107 C         -5.4145  -18.1398  -49.1105 C.2       19 UNK         0.5000 
    108 O         -5.2590  -17.0822  -48.5013 O.2       19 UNK        -0.5000 
    109 N         -5.4123  -18.2465  -50.4438 N.am      20 UNK        -0.5000 
    110 CA        -5.3224  -17.2426  -51.4977 C.3       20 UNK         0.1400 
    111 CB        -6.3316  -16.0904  -51.2787 C.3       20 UNK        -0.1800 
    112 C         -5.5875  -17.9989  -52.8195 C.2       20 UNK         0.5000 
    113 O         -5.4864  -19.2314  -52.8435 O.2       20 UNK        -0.5000 
    114 N         -5.9610  -17.2612  -53.8755 N.am      21 UNK        -0.5000 
    115 CA        -6.4719  -17.7556  -55.1616 C.3       21 UNK         0.1400 
    116 CB        -7.8337  -18.4565  -54.9661 C.3       21 UNK        -0.1800 
    117 C         -5.4636  -18.6133  -55.9553 C.2       21 UNK         0.5000 
    118 O         -5.8422  -19.6205  -56.5569 O.2       21 UNK        -0.5000 
    119 N         -4.1953  -18.1862  -55.9550 N.am      22 UNK        -0.5000 
    120 CA        -3.0930  -18.8461  -56.6791 C.3       22 UNK         0.1400 
    121 C         -3.0991  -18.6250  -58.2217 C.2       22 UNK         0.5000 
    122 N         -3.9059  -17.7220  -58.7662 N.am      22 UNK        -0.7600 
    123 O         -2.3598  -19.2917  -58.9407 O.2       22 UNK        -0.5000 
    124 C124       -1.7092  -18.4833  -56.0853 C.3       23 UNK        -0.0398 
    125 S125       -1.5853  -18.8950  -54.3142 S.3       23 UNK        -0.2404 
    126 C126       -0.6446  -17.4697  -53.6941 C.3       23 UNK        -0.0205 
    127 H127        2.1356  -15.3914  -52.8350 H         1 UNK         0.0600 
    128 H128        3.0850  -16.7912  -52.3343 H         1 UNK         0.0600 
    129 H129        3.8711  -15.2222  -52.5409 H         1 UNK         0.0600 
    130 H130        1.0728  -14.2976  -51.2105 H         1 UNK         0.3000 
    131 H131        1.3915  -15.1273  -48.4613 H         1 UNK         0.0600 
    132 H132       -0.8009  -14.1916  -50.0714 H         1 UNK         0.0800 
    133 H133       -0.6397  -12.9991  -48.8451 H         1 UNK         0.0800 
    134 H134       -2.5558  -17.0466  -48.3655 H         1 UNK         0.0800 
    135 H135       -2.8409  -15.7817  -49.5306 H         1 UNK         0.0800 
    136 H136       -2.0611  -16.2669  -51.7073 H         1 UNK         0.1150 
    137 H137        1.2236  -18.9253  -52.3727 H         1 UNK         0.1150 
    138 H138        0.0297  -17.9347  -48.3693 H         1 UNK         0.1150 
    139 H139        2.0683  -20.2407  -50.5261 H         1 UNK         0.0800 
    140 H140        2.8100  -18.8394  -49.7890 H         1 UNK         0.0800 
    141 H141       -0.0017  -21.3870  -49.4363 H         1 UNK         0.0800 
    142 H142       -0.7547  -20.3703  -48.2333 H         1 UNK         0.0800 
    143 H143        0.7745  -22.9549  -47.6871 H         1 UNK         0.0600 
    144 H144       -0.0799  -20.9373  -45.8147 H         1 UNK         0.3000 
    145 H145        0.4036  -23.1059  -42.9532 H         1 UNK         0.0600 
    146 H146        1.8875  -21.1982  -42.3713 H         1 UNK         0.0600 
    147 H147        2.6269  -22.2138  -43.6008 H         1 UNK         0.0600 
    148 H148        1.9056  -20.6767  -44.0544 H         1 UNK         0.0600 
    149 H149       -0.3879  -20.4174  -42.9691 H         1 UNK         0.3000 
    150 H150       -3.9394  -21.0307  -42.8676 H         1 UNK         0.0600 
    151 H151       -3.5084  -19.7509  -40.7918 H         1 UNK         0.0600 
    152 H152       -1.7821  -20.0813  -40.9081 H         1 UNK         0.0600 
    153 H153       -2.9163  -21.3977  -40.6361 H         1 UNK         0.0600 
    154 H154       -2.0054  -18.7847  -43.0206 H         1 UNK         0.3000 
    155 H155       -2.9775  -17.9111  -46.2805 H         1 UNK         0.0600 
    156 H156       -4.8844  -16.8552  -45.0793 H         1 UNK         0.0600 
    157 H157       -3.8097  -16.3720  -43.7699 H         1 UNK         0.0600 
    158 H158       -3.6029  -15.6947  -45.3867 H         1 UNK         0.0600 
    159 H159       -1.3833  -16.5019  -44.3926 H         1 UNK         0.3000 
    160 H160        1.5684  -18.5227  -44.7826 H         1 UNK         0.0600 
    161 H161        2.5912  -16.4230  -45.5726 H         1 UNK         0.0600 
    162 H162        1.0041  -15.7619  -45.9523 H         1 UNK         0.0600 
    163 H163        1.6207  -17.1483  -46.8415 H         1 UNK         0.0600 
    164 H164        1.3574  -16.0829  -43.4542 H         1 UNK         0.3000 
    165 H165        0.3125  -17.3519  -40.2622 H         1 UNK         0.0600 
    166 H166        2.5279  -16.3645  -39.7397 H         1 UNK         0.0600 
    167 H167        2.7204  -17.8898  -40.5908 H         1 UNK         0.0600 
    168 H168        2.9658  -16.3709  -41.4465 H         1 UNK         0.0600 
    169 H169        0.9672  -14.8812  -41.8269 H         1 UNK         0.3000 
    170 H170       -2.1739  -13.4623  -41.1292 H         1 UNK         0.0600 
    171 H171        0.4965  -12.5440  -39.9333 H         1 UNK         0.0600 
    172 H172       -0.9212  -11.5305  -40.2098 H         1 UNK         0.0600 
    173 H173       -0.9829  -12.8226  -39.0223 H         1 UNK         0.0600 
    174 H174        0.0886  -12.3241  -42.3815 H         1 UNK         0.3000 
    175 H175       -0.1904  -13.8803  -45.5570 H         1 UNK         0.0600 
    176 H176       -0.5863  -11.5881  -46.3385 H         1 UNK         0.0600 
    177 H177       -0.9577  -11.0499  -44.7002 H         1 UNK         0.0600 
    178 H178       -2.0242  -12.1808  -45.5276 H         1 UNK         0.0600 
    179 H179        1.4989  -11.8728  -45.1720 H         1 UNK         0.3000 
    180 H180        3.6754  -11.8536  -43.9801 H         1 UNK         0.0600 
    181 H181        4.7016  -14.7503  -43.8781 H         1 UNK         0.0600 
    182 H182        4.5405  -13.6685  -42.4986 H         1 UNK         0.0600 
    183 H183        5.7013  -13.3031  -43.7666 H         1 UNK         0.0600 
    184 H184        3.6111  -13.8547  -46.1961 H         1 UNK         0.3000 
    185 H185        4.1252  -11.3555  -48.5892 H         1 UNK         0.0600 
    186 H186        5.9918  -13.7144  -47.9951 H         1 UNK         0.0600 
    187 H187        5.8078  -12.9023  -49.5497 H         1 UNK         0.0600 
    188 H188        6.4967  -12.0389  -48.1837 H         1 UNK         0.0600 
    189 H189        3.7065  -14.1559  -48.8761 H         1 UNK         0.3000 
    190 H190       -2.2943  -22.1735  -46.1692 H         1 UNK         0.3000 
    191 H191       -3.9545  -23.7196  -47.9844 H         1 UNK         0.0600 
    192 H192       -4.9346  -21.9068  -46.6243 H         1 UNK         0.0600 
    193 H193       -5.6775  -23.4444  -46.2198 H         1 UNK         0.0600 
    194 H194       -4.4883  -22.7337  -45.1364 H         1 UNK         0.0600 
    195 H195       -2.3974  -24.3035  -44.7958 H         1 UNK         0.3000 
    196 H196       -3.2144  -26.9998  -44.4873 H         1 UNK         0.0600 
    197 H197       -1.3848  -27.0724  -42.7869 H         1 UNK         0.0600 
    198 H198       -2.3506  -25.6130  -42.6253 H         1 UNK         0.0600 
    199 H199       -0.7594  -25.5373  -43.3772 H         1 UNK         0.0600 
    200 H200       -0.3016  -25.6006  -46.0320 H         1 UNK         0.3000 
    201 H201        0.8802  -28.1193  -46.7765 H         1 UNK         0.0600 
    202 H202        2.1763  -26.0012  -46.4951 H         1 UNK         0.0600 
    203 H203        1.3277  -25.2888  -47.8669 H         1 UNK         0.0600 
    204 H204        2.3969  -26.6638  -48.1070 H         1 UNK         0.0600 
    205 H205       -1.7717  -26.3843  -48.0773 H         1 UNK         0.3000 
    206 H206       -3.0460  -26.4359  -49.8601 H         1 UNK         0.0600 
    207 H207       -3.1282  -28.9123  -49.4693 H         1 UNK         0.0600 
    208 H208       -3.3290  -28.4982  -51.1636 H         1 UNK         0.0600 
    209 H209       -1.7907  -29.1321  -50.5979 H         1 UNK         0.0600 
    210 H210       -0.6060  -25.0396  -49.9719 H         1 UNK         0.3000 
    211 H211        0.3560  -25.0995  -52.7734 H         1 UNK         0.0600 
    212 H212        1.1093  -23.3524  -50.3642 H         1 UNK         0.0600 
    213 H213        1.8834  -23.2993  -51.9434 H         1 UNK         0.0600 
    214 H214        2.0116  -24.7459  -50.9534 H         1 UNK         0.0600 
    215 H215       -1.9842  -23.5201  -50.7300 H         1 UNK         0.3000 
    216 H216       -2.9955  -21.8776  -52.9442 H         1 UNK         0.0600 
    217 H217       -3.1586  -19.8779  -51.4892 H         1 UNK         0.0600 
    218 H218       -1.4794  -20.3723  -51.5243 H         1 UNK         0.0600 
    219 H219       -2.4729  -20.7470  -50.1206 H         1 UNK         0.0600 
    220 H220       -5.2374  -21.0672  -52.2445 H         1 UNK         0.3000 
    221 H221       -6.6587  -23.0099  -50.4555 H         1 UNK         0.0600 
    222 H222       -7.7288  -21.1360  -52.6330 H         1 UNK         0.0600 
    223 H223       -7.4935  -22.8734  -52.8130 H         1 UNK         0.0600 
    224 H224       -8.6800  -22.2632  -51.6709 H         1 UNK         0.0600 
    225 H225       -4.9890  -21.2344  -49.2646 H         1 UNK         0.3000 
    226 H226       -4.6505  -19.6230  -47.7999 H         1 UNK         0.0600 
    227 H227       -6.8234  -20.2684  -46.6963 H         1 UNK         0.0600 
    228 H228       -6.4343  -18.5685  -46.5078 H         1 UNK         0.0600 
    229 H229       -7.6586  -19.0546  -47.6676 H         1 UNK         0.0600 
    230 H230       -5.5428  -19.1711  -50.8340 H         1 UNK         0.3000 
    231 H231       -4.3066  -16.8496  -51.5214 H         1 UNK         0.0600 
    232 H232       -7.3585  -16.4577  -51.2575 H         1 UNK         0.0600 
    233 H233       -6.2631  -15.3392  -52.0657 H         1 UNK         0.0600 
    234 H234       -6.1482  -15.5611  -50.3447 H         1 UNK         0.0600 
    235 H235       -5.9946  -16.2583  -53.7596 H         1 UNK         0.3000 
    236 H236       -6.6517  -16.8707  -55.7737 H         1 UNK         0.0600 
    237 H237       -7.7329  -19.3893  -54.4109 H         1 UNK         0.0600 
    238 H238       -8.5323  -17.8184  -54.4250 H         1 UNK         0.0600 
    239 H239       -8.2928  -18.6962  -55.9259 H         1 UNK         0.0600 
    240 H240       -3.9567  -17.3634  -55.4221 H         1 UNK         0.3000 
    241 H241       -3.2209  -19.9220  -56.5431 H         1 UNK         0.0600 
    242 H242       -3.9030  -17.5924  -59.7661 H         1 UNK         0.3800 
    243 H243       -4.5179  -17.1658  -58.1914 H         1 UNK         0.3800 
    244 H244       -0.9138  -19.0233  -56.6023 H         1 UNK         0.0800 
    245 H245       -1.5046  -17.4217  -56.2333 H         1 UNK         0.0800 
    246 H246       -1.1729  -16.5463  -53.9366 H         1 UNK         0.0800 
    247 H247        0.3215  -17.4205  -54.1987 H         1 UNK         0.0800 
@<TRIPOS>BOND
     1    1    2 1    
     2    1  127 1    
     3    1  128 1    
     4    1  129 1    
     5    2    3 2    
     6    2    4 am   BACKBONE|DICT|INTERRES
     7    4    5 1    
     8    4  130 1    
     9    5    6 1    
    10    5   65 1    
    11    5  131 1    
    12    6    7 1    
    13    6  132 1    
    14    6  133 1    
    15    7    8 1    
    16    8    9 1    
    17    8  134 1    
    18    8  135 1    
    19    9   10 ar   
    20    9   14 ar   
    21   10   11 ar   
    22   10  136 1    
    23   11   12 ar   
    24   11  126 1    
    25   12   13 ar   
    26   12  137 1    
    27   13   14 ar   
    28   13   15 1    
    29   14  138 1    
    30   15   16 1    
    31   15  139 1    
    32   15  140 1    
    33   16   17 1    
    34   17   18 1    
    35   17  141 1    
    36   17  142 1    
    37   18   19 1    
    38   18   67 1    
    39   18  143 1    
    40   19   20 am   BACKBONE|DICT|INTERRES
    41   19  144 1    
    42   20   21 2    
    43   20   22 1    
    44   22   23 1    
    45   22   24 1    
    46   22  145 1    
    47   23  146 1    
    48   23  147 1    
    49   23  148 1    
    50   24   25 am   BACKBONE|DICT|INTERRES
    51   24  149 1    
    52   25   26 2    
    53   25   27 1    
    54   27   28 1    
    55   27   29 1    
    56   27  150 1    
    57   28  151 1    
    58   28  152 1    
    59   28  153 1    
    60   29   30 am   BACKBONE|DICT|INTERRES
    61   29  154 1    
    62   30   31 2    
    63   30   32 1    
    64   32   33 1    
    65   32   34 1    
    66   32  155 1    
    67   33  156 1    
    68   33  157 1    
    69   33  158 1    
    70   34   35 am   BACKBONE|DICT|INTERRES
    71   34  159 1    
    72   35   36 2    
    73   35   37 1    
    74   37   38 1    
    75   37   39 1    
    76   37  160 1    
    77   38  161 1    
    78   38  162 1    
    79   38  163 1    
    80   39   40 am   BACKBONE|DICT|INTERRES
    81   39  164 1    
    82   40   41 2    
    83   40   42 1    
    84   42   43 1    
    85   42   44 1    
    86   42  165 1    
    87   43  166 1    
    88   43  167 1    
    89   43  168 1    
    90   44   45 am   BACKBONE|DICT|INTERRES
    91   44  169 1    
    92   45   46 2    
    93   45   47 1    
    94   47   48 1    
    95   47   49 1    
    96   47  170 1    
    97   48  171 1    
    98   48  172 1    
    99   48  173 1    
   100   49   50 am   BACKBONE|DICT|INTERRES
   101   49  174 1    
   102   50   51 2    
   103   50   52 1    
   104   52   53 1    
   105   52   54 1    
   106   52  175 1    
   107   53  176 1    
   108   53  177 1    
   109   53  178 1    
   110   54   55 am   BACKBONE|DICT|INTERRES
   111   54  179 1    
   112   55   56 2    
   113   55   57 1    
   114   57   58 1    
   115   57   59 1    
   116   57  180 1    
   117   58  181 1    
   118   58  182 1    
   119   58  183 1    
   120   59   60 am   BACKBONE|DICT|INTERRES
   121   59  184 1    
   122   60   61 2    
   123   60   62 1    
   124   62   63 1    
   125   62   64 1    
   126   62  185 1    
   127   63  186 1    
   128   63  187 1    
   129   63  188 1    
   130   64   65 am   BACKBONE|DICT|INTERRES
   131   64  189 1    
   132   65   66 2    
   133   67   68 2    
   134   67   69 am   BACKBONE|DICT|INTERRES
   135   69   70 1    
   136   69  190 1    
   137   70   71 1    
   138   70   72 1    
   139   70  191 1    
   140   71  192 1    
   141   71  193 1    
   142   71  194 1    
   143   72   73 2    
   144   72   74 am   BACKBONE|DICT|INTERRES
   145   74   75 1    
   146   74  195 1    
   147   75   76 1    
   148   75   77 1    
   149   75  196 1    
   150   76  197 1    
   151   76  198 1    
   152   76  199 1    
   153   77   78 2    
   154   77   79 am   BACKBONE|DICT|INTERRES
   155   79   80 1    
   156   79  200 1    
   157   80   81 1    
   158   80   82 1    
   159   80  201 1    
   160   81  202 1    
   161   81  203 1    
   162   81  204 1    
   163   82   83 2    
   164   82   84 am   BACKBONE|DICT|INTERRES
   165   84   85 1    
   166   84  205 1    
   167   85   86 1    
   168   85   87 1    
   169   85  206 1    
   170   86  207 1    
   171   86  208 1    
   172   86  209 1    
   173   87   88 2    
   174   87   89 am   BACKBONE|DICT|INTERRES
   175   89   90 1    
   176   89  210 1    
   177   90   91 1    
   178   90   92 1    
   179   90  211 1    
   180   91  212 1    
   181   91  213 1    
   182   91  214 1    
   183   92   93 2    
   184   92   94 am   BACKBONE|DICT|INTERRES
   185   94   95 1    
   186   94  215 1    
   187   95   96 1    
   188   95   97 1    
   189   95  216 1    
   190   96  217 1    
   191   96  218 1    
   192   96  219 1    
   193   97   98 2    
   194   97   99 am   BACKBONE|DICT|INTERRES
   195   99  100 1    
   196   99  220 1    
   197  100  101 1    
   198  100  102 1    
   199  100  221 1    
   200  101  222 1    
   201  101  223 1    
   202  101  224 1    
   203  102  103 2    
   204  102  104 am   BACKBONE|DICT|INTERRES
   205  104  105 1    
   206  104  225 1    
   207  105  106 1    
   208  105  107 1    
   209  105  226 1    
   210  106  227 1    
   211  106  228 1    
   212  106  229 1    
   213  107  108 2    
   214  107  109 am   BACKBONE|DICT|INTERRES
   215  109  110 1    
   216  109  230 1    
   217  110  111 1    
   218  110  112 1    
   219  110  231 1    
   220  111  232 1    
   221  111  233 1    
   222  111  234 1    
   223  112  113 2    
   224  112  114 am   BACKBONE|DICT|INTERRES
   225  114  115 1    
   226  114  235 1    
   227  115  116 1    
   228  115  117 1    
   229  115  236 1    
   230  116  237 1    
   231  116  238 1    
   232  116  239 1    
   233  117  118 2    
   234  117  119 am   BACKBONE|DICT|INTERRES
   235  119  120 1    
   236  119  240 1    
   237  120  121 1    
   238  120  124 1    
   239  120  241 1    
   240  121  122 am   BACKBONE|DICT|INTERRES
   241  121  123 2    
   242  122  242 1    
   243  122  243 1    
   244  124  125 1    
   245  124  244 1    
   246  124  245 1    
   247  125  126 1    
   248  126  246 1    
   249  126  247 1    
@<TRIPOS>SUBSTRUCTURE
     1 UNK         1 GROUP             0       ****    0 ROOT    
