@<TRIPOS>MOLECULE
3R540
247   249    1
SMALL
USER_CHARGES


@<TRIPOS>ATOM
      1 CA         -2.1782  -16.8616  -48.0101 C.3       0 UNK        -0.1800 
      2 C          -1.8884  -15.3672  -48.0703 C.2       0 UNK         0.5000 
      3 O          -2.8023  -14.5744  -48.2978 O.2       0 UNK        -0.5000 
      4 N          -0.6260  -14.9825  -47.8601 N.am      1 UNK        -0.5000 
      5 CA         -0.1648  -13.5953  -47.8192 C.3       1 UNK         0.1400 
      6 C6          1.2909  -13.4630  -48.3241 C.3       23 UNK        -0.0398 
      7 S7          1.4232  -13.5792  -50.1373 S.3       23 UNK        -0.2404 
      8 C8          2.0914  -15.2618  -50.3855 C.3       23 UNK        -0.0205 
      9 C9          1.0325  -16.3476  -50.5694 C.ar      23 UNK        -0.0193 
     10 C10        -0.1487  -16.0995  -51.2773 C.ar      23 UNK        -0.1150 
     11 C11        -1.0649  -17.1242  -51.5227 C.ar      23 UNK        -0.0193 
     12 C12        -0.7944  -18.4120  -51.0551 C.ar      23 UNK        -0.1150 
     13 C13         0.3799  -18.6854  -50.3461 C.ar      23 UNK        -0.0193 
     14 C14         1.2852  -17.6423  -50.1037 C.ar      23 UNK        -0.1150 
     15 C15         0.6565  -20.1343  -49.9426 C.3       23 UNK        -0.0205 
     16 S16         1.9253  -20.3929  -48.6560 S.3       23 UNK        -0.2404 
     17 C17         0.9823  -20.0595  -47.1337 C.3       23 UNK        -0.0398 
     18 CA          0.4917  -21.3582  -46.4434 C.3       11 UNK         0.1400 
     19 N           0.4687  -21.2216  -44.9864 N.am      11 UNK        -0.5000 
     20 C           0.5965  -22.2399  -44.1253 C.2       10 UNK         0.5000 
     21 O           0.8267  -23.3996  -44.4672 O.2       10 UNK        -0.5000 
     22 CA          0.4257  -21.9178  -42.6279 C.3       10 UNK         0.1400 
     23 CB          1.7912  -21.6854  -41.9702 C.3       10 UNK        -0.1800 
     24 N          -0.4360  -20.7598  -42.3799 N.am      10 UNK        -0.5000 
     25 C          -1.7577  -20.7627  -42.5951 C.2       9 UNK         0.5000 
     26 O          -2.3729  -21.7325  -43.0354 O.2       9 UNK        -0.5000 
     27 CA         -2.5191  -19.4580  -42.3090 C.3       9 UNK         0.1400 
     28 CB         -2.7864  -19.3129  -40.8030 C.3       9 UNK        -0.1800 
     29 N          -1.8659  -18.2416  -42.7952 N.am      9 UNK        -0.5000 
     30 C          -1.4115  -18.0051  -44.0337 C.2       8 UNK         0.5000 
     31 O          -1.3791  -18.8493  -44.9286 O.2       8 UNK        -0.5000 
     32 CA         -0.9179  -16.5801  -44.3250 C.3       8 UNK         0.1400 
     33 CB         -1.5156  -15.5229  -43.3749 C.3       8 UNK        -0.1800 
     34 N           0.5331  -16.5353  -44.2297 N.am      8 UNK        -0.5000 
     35 C           1.3964  -16.6930  -45.2402 C.2       7 UNK         0.5000 
     36 O           1.0617  -16.8937  -46.4082 O.2       7 UNK        -0.5000 
     37 CA          2.8930  -16.5941  -44.8915 C.3       7 UNK         0.1400 
     38 CB          3.4185  -15.1729  -45.1449 C.3       7 UNK        -0.1800 
     39 N           3.1499  -16.9344  -43.4920 N.am      7 UNK        -0.5000 
     40 C           3.5663  -18.1305  -43.0584 C.2       6 UNK         0.5000 
     41 O           3.8032  -19.0827  -43.8015 O.2       6 UNK        -0.5000 
     42 CA          3.7610  -18.2917  -41.5361 C.3       6 UNK         0.1400 
     43 CB          5.2167  -17.9871  -41.1512 C.3       6 UNK        -0.1800 
     44 N           2.8747  -17.4412  -40.7408 N.am      6 UNK        -0.5000 
     45 C           1.5444  -17.5790  -40.6564 C.2       5 UNK         0.5000 
     46 O           0.9103  -18.4787  -41.2083 O.2       5 UNK        -0.5000 
     47 CA          0.7889  -16.4982  -39.8553 C.3       5 UNK         0.1400 
     48 CB          0.6068  -16.9448  -38.3976 C.3       5 UNK        -0.1800 
     49 N           1.4158  -15.1678  -39.8820 N.am      5 UNK        -0.5000 
     50 C           1.6785  -14.4662  -40.9929 C.2       4 UNK         0.5000 
     51 O           1.4714  -14.8965  -42.1289 O.2       4 UNK        -0.5000 
     52 CA          2.3273  -13.0869  -40.8228 C.3       4 UNK         0.1400 
     53 CB          3.8290  -13.2449  -40.5120 C.3       4 UNK        -0.1800 
     54 N           2.1371  -12.3524  -42.0708 N.am      4 UNK        -0.5000 
     55 C           2.3985  -11.0594  -42.2935 C.2       3 UNK         0.5000 
     56 O           2.8155  -10.2842  -41.4322 O.2       3 UNK        -0.5000 
     57 CA          2.1472  -10.5443  -43.7222 C.3       3 UNK         0.1400 
     58 CB          3.3544  -10.8479  -44.6237 C.3       3 UNK        -0.1800 
     59 N           0.9513  -11.1394  -44.3164 N.am      3 UNK        -0.5000 
     60 C          -0.3016  -10.7106  -44.1316 C.2       2 UNK         0.5000 
     61 O          -0.5736   -9.7118  -43.4628 O.2       2 UNK        -0.5000 
     62 CA         -1.4392  -11.5256  -44.8003 C.3       2 UNK         0.1400 
     63 CB         -2.7425  -10.7157  -44.9266 C.3       2 UNK        -0.1800 
     64 N          -1.1218  -12.0958  -46.1183 N.am      2 UNK        -0.5000 
     65 C          -0.2711  -13.0991  -46.3682 C.2       1 UNK         0.5000 
     66 O           0.4402  -13.6111  -45.5048 O.2       1 UNK        -0.5000 
     67 C          -0.8940  -21.7986  -46.9570 C.2       11 UNK         0.5000 
     68 O          -0.9807  -22.6810  -47.8098 O.2       11 UNK        -0.5000 
     69 N          -1.9540  -21.1939  -46.3998 N.am      12 UNK        -0.5000 
     70 CA         -3.3560  -21.4819  -46.7017 C.3       12 UNK         0.1400 
     71 CB         -4.2451  -20.4433  -46.0035 C.3       12 UNK        -0.1800 
     72 C          -3.7913  -22.9118  -46.3294 C.2       12 UNK         0.5000 
     73 O          -4.6665  -23.4655  -46.9951 O.2       12 UNK        -0.5000 
     74 N          -3.1652  -23.4939  -45.2977 N.am      13 UNK        -0.5000 
     75 CA         -3.3414  -24.8739  -44.8403 C.3       13 UNK         0.1400 
     76 CB         -2.8145  -24.9849  -43.3981 C.3       13 UNK        -0.1800 
     77 C          -2.6872  -25.9036  -45.7909 C.2       13 UNK         0.5000 
     78 O          -1.8092  -26.6655  -45.3812 O.2       13 UNK        -0.5000 
     79 N          -3.1345  -25.9097  -47.0478 N.am      14 UNK        -0.5000 
     80 CA         -2.7285  -26.8068  -48.1222 C.3       14 UNK         0.1400 
     81 CB         -1.3982  -26.3281  -48.7314 C.3       14 UNK        -0.1800 
     82 C          -3.8490  -26.8322  -49.1718 C.2       14 UNK         0.5000 
     83 O          -4.7152  -25.9521  -49.1591 O.2       14 UNK        -0.5000 
     84 N          -3.8111  -27.8270  -50.0687 N.am      15 UNK        -0.5000 
     85 CA         -4.7606  -28.0209  -51.1695 C.3       15 UNK         0.1400 
     86 CB         -4.3897  -29.3035  -51.9316 C.3       15 UNK        -0.1800 
     87 C          -4.7939  -26.8008  -52.1092 C.2       15 UNK         0.5000 
     88 O          -3.8444  -26.5902  -52.8664 O.2       15 UNK        -0.5000 
     89 N          -5.8438  -25.9774  -51.9693 N.am      16 UNK        -0.5000 
     90 CA         -6.0265  -24.6620  -52.5970 C.3       16 UNK         0.1400 
     91 CB         -6.3295  -24.8173  -54.0998 C.3       16 UNK        -0.1800 
     92 C          -4.8450  -23.7066  -52.3187 C.2       16 UNK         0.5000 
     93 O          -4.3762  -23.0137  -53.2250 O.2       16 UNK        -0.5000 
     94 N          -4.3254  -23.7521  -51.0821 N.am      17 UNK        -0.5000 
     95 CA         -3.1387  -23.0376  -50.5926 C.3       17 UNK         0.1400 
     96 CB         -3.4007  -21.5160  -50.5867 C.3       17 UNK        -0.1800 
     97 C          -1.8364  -23.3900  -51.3509 C.2       17 UNK         0.5000 
     98 O          -0.8628  -22.6456  -51.2548 O.2       17 UNK        -0.5000 
     99 N          -1.8527  -24.4847  -52.1314 N.am      18 UNK        -0.5000 
    100 CA        -0.8331  -24.9044  -53.0991 C.3       18 UNK         0.1400 
    101 CB         0.4521  -25.3523  -52.3727 C.3       18 UNK        -0.1800 
    102 C         -0.5649  -23.8543  -54.2048 C.2       18 UNK         0.5000 
    103 O          0.5196  -23.8500  -54.7904 O.2       18 UNK        -0.5000 
    104 N         -1.5448  -22.9758  -54.4649 N.am      19 UNK        -0.5000 
    105 CA        -1.3963  -21.7889  -55.3095 C.3       19 UNK         0.1400 
    106 CB        -0.9216  -20.6128  -54.4316 C.3       19 UNK        -0.1800 
    107 C         -2.6902  -21.4426  -56.0685 C.2       19 UNK         0.5000 
    108 O         -2.8277  -20.3097  -56.5316 O.2       19 UNK        -0.5000 
    109 N         -3.6381  -22.3912  -56.1513 N.am      20 UNK        -0.5000 
    110 CA        -4.9913  -22.2328  -56.7109 C.3       20 UNK         0.1400 
    111 CB        -4.9302  -22.0621  -58.2428 C.3       20 UNK        -0.1800 
    112 C         -5.7898  -21.1067  -56.0125 C.2       20 UNK         0.5000 
    113 O         -6.5039  -20.3427  -56.6663 O.2       20 UNK        -0.5000 
    114 N         -5.5785  -20.9845  -54.6927 N.am      21 UNK        -0.5000 
    115 CA        -6.0503  -19.9350  -53.7825 C.3       21 UNK         0.1400 
    116 CB        -7.5760  -20.0455  -53.5906 C.3       21 UNK        -0.1800 
    117 C         -5.6068  -18.5070  -54.1789 C.2       21 UNK         0.5000 
    118 O         -6.1980  -17.5365  -53.7032 O.2       21 UNK        -0.5000 
    119 N         -4.5940  -18.4013  -55.0524 N.am      22 UNK        -0.5000 
    120 CA        -4.1656  -17.1782  -55.7486 C.3       22 UNK         0.1400 
    121 C         -5.2532  -16.5745  -56.6931 C.2       22 UNK         0.5000 
    122 N         -6.2180  -17.3547  -57.1703 N.am      22 UNK        -0.7600 
    123 O         -5.2130  -15.3933  -57.0277 O.2       22 UNK        -0.5000 
    124 C124       -3.5061  -16.1355  -54.8040 C.3       23 UNK        -0.0398 
    125 S125       -1.9401  -16.7551  -54.1004 S.3       23 UNK        -0.2404 
    126 C126       -2.3241  -16.8363  -52.3252 C.3       23 UNK        -0.0205 
    127 H127       -2.8326  -17.0878  -47.1685 H         1 UNK         0.0600 
    128 H128       -2.6732  -17.1864  -48.9250 H         1 UNK         0.0600 
    129 H129       -1.2639  -17.4445  -47.8968 H         1 UNK         0.0600 
    130 H130        0.0625  -15.6789  -47.5867 H         1 UNK         0.3000 
    131 H131       -0.8034  -12.9721  -48.4490 H         1 UNK         0.0600 
    132 H132        1.7071  -12.4922  -48.0476 H         1 UNK         0.0800 
    133 H133        1.9319  -14.2077  -47.8536 H         1 UNK         0.0800 
    134 H134        2.7650  -15.5144  -49.5655 H         1 UNK         0.0800 
    135 H135        2.7066  -15.2482  -51.2858 H         1 UNK         0.0800 
    136 H136       -0.3486  -15.1126  -51.6690 H         1 UNK         0.1150 
    137 H137       -1.4878  -19.2126  -51.2700 H         1 UNK         0.1150 
    138 H138        2.2116  -17.8379  -49.5842 H         1 UNK         0.1150 
    139 H139       -0.2699  -20.6080  -49.6187 H         1 UNK         0.0800 
    140 H140        0.9748  -20.6711  -50.8370 H         1 UNK         0.0800 
    141 H141        0.1699  -19.3569  -47.3284 H         1 UNK         0.0800 
    142 H142        1.6707  -19.5320  -46.4724 H         1 UNK         0.0800 
    143 H143        1.1961  -22.1578  -46.6846 H         1 UNK         0.0600 
    144 H144        0.2125  -20.3115  -44.6254 H         1 UNK         0.3000 
    145 H145       -0.0339  -22.7873  -42.1530 H         1 UNK         0.0600 
    146 H146        1.6898  -21.4398  -40.9129 H         1 UNK         0.0600 
    147 H147        2.4166  -22.5759  -42.0430 H         1 UNK         0.0600 
    148 H148        2.3237  -20.8716  -42.4583 H         1 UNK         0.0600 
    149 H149        0.0061  -19.9188  -42.0136 H         1 UNK         0.3000 
    150 H150       -3.4826  -19.5263  -42.8165 H         1 UNK         0.0600 
    151 H151       -3.2845  -20.1987  -40.4065 H         1 UNK         0.0600 
    152 H152       -3.4323  -18.4594  -40.5963 H         1 UNK         0.0600 
    153 H153       -1.8606  -19.1773  -40.2421 H         1 UNK         0.0600 
    154 H154       -1.8167  -17.4829  -42.1330 H         1 UNK         0.3000 
    155 H155       -1.2276  -16.3256  -45.3379 H         1 UNK         0.0600 
    156 H156       -1.2244  -15.6803  -42.3370 H         1 UNK         0.0600 
    157 H157       -2.6051  -15.5181  -43.4243 H         1 UNK         0.0600 
    158 H158       -1.1762  -14.5267  -43.6477 H         1 UNK         0.0600 
    159 H159        0.9085  -16.2614  -43.3290 H         1 UNK         0.3000 
    160 H160        3.4327  -17.2769  -45.5510 H         1 UNK         0.0600 
    161 H161        4.4769  -15.0934  -44.8965 H         1 UNK         0.0600 
    162 H162        2.8796  -14.4325  -44.5528 H         1 UNK         0.0600 
    163 H163        3.3129  -14.8994  -46.1934 H         1 UNK         0.0600 
    164 H164        2.9242  -16.2185  -42.8128 H         1 UNK         0.3000 
    165 H165        3.5546  -19.3306  -41.2759 H         1 UNK         0.0600 
    166 H166        5.3908  -18.1680  -40.0904 H         1 UNK         0.0600 
    167 H167        5.9083  -18.6231  -41.7055 H         1 UNK         0.0600 
    168 H168        5.4813  -16.9505  -41.3641 H         1 UNK         0.0600 
    169 H169        3.3055  -16.6727  -40.2486 H         1 UNK         0.3000 
    170 H170       -0.2018  -16.4020  -40.3021 H         1 UNK         0.0600 
    171 H171        0.1207  -17.9201  -38.3453 H         1 UNK         0.0600 
    172 H172        1.5630  -17.0259  -37.8792 H         1 UNK         0.0600 
    173 H173       -0.0177  -16.2430  -37.8445 H         1 UNK         0.0600 
    174 H174        1.6308  -14.7577  -38.9843 H         1 UNK         0.3000 
    175 H175        1.8257  -12.5554  -40.0121 H         1 UNK         0.0600 
    176 H176        4.3546  -13.7503  -41.3235 H         1 UNK         0.0600 
    177 H177        4.3104  -12.2801  -40.3540 H         1 UNK         0.0600 
    178 H178        3.9855  -13.8293  -39.6046 H         1 UNK         0.0600 
    179 H179        1.7612  -12.9247  -42.8178 H         1 UNK         0.3000 
    180 H180        2.0239   -9.4602  -43.6744 H         1 UNK         0.0600 
    181 H181        3.5233  -11.9206  -44.7263 H         1 UNK         0.0600 
    182 H182        4.2661  -10.4089  -44.2163 H         1 UNK         0.0600 
    183 H183        3.2129  -10.4348  -45.6226 H         1 UNK         0.0600 
    184 H184        1.0669  -12.0090  -44.8297 H         1 UNK         0.3000 
    185 H185       -1.6459  -12.3555  -44.1243 H         1 UNK         0.0600 
    186 H186       -3.0815  -10.3550  -43.9546 H         1 UNK         0.0600 
    187 H187       -2.6130   -9.8475  -45.5740 H         1 UNK         0.0600 
    188 H188       -3.5479  -11.3248  -45.3378 H         1 UNK         0.0600 
    189 H189       -1.6452  -11.7119  -46.8920 H         1 UNK         0.3000 
    190 H190       -1.7840  -20.4403  -45.7373 H         1 UNK         0.3000 
    191 H191       -3.4893  -21.3702  -47.7773 H         1 UNK         0.0600 
    192 H192       -4.1577  -20.5072  -44.9191 H         1 UNK         0.0600 
    193 H193       -5.2950  -20.5938  -46.2579 H         1 UNK         0.0600 
    194 H194       -3.9790  -19.4293  -46.3030 H         1 UNK         0.0600 
    195 H195       -2.5101  -22.9318  -44.7671 H         1 UNK         0.3000 
    196 H196       -4.4106  -25.0941  -44.8185 H         1 UNK         0.0600 
    197 H197       -2.9423  -25.9952  -43.0079 H         1 UNK         0.0600 
    198 H198       -3.3521  -24.3117  -42.7302 H         1 UNK         0.0600 
    199 H199       -1.7536  -24.7377  -43.3387 H         1 UNK         0.0600 
    200 H200       -3.8716  -25.2558  -47.3052 H         1 UNK         0.3000 
    201 H201       -2.6108  -27.8165  -47.7236 H         1 UNK         0.0600 
    202 H202       -0.5918  -26.3692  -47.9992 H         1 UNK         0.0600 
    203 H203       -1.4666  -25.3001  -49.0865 H         1 UNK         0.0600 
    204 H204       -1.1000  -26.9505  -49.5756 H         1 UNK         0.0600 
    205 H205       -3.0533  -28.4924  -50.0206 H         1 UNK         0.3000 
    206 H206       -5.7538  -28.1606  -50.7378 H         1 UNK         0.0600 
    207 H207       -4.4425  -30.1776  -51.2823 H         1 UNK         0.0600 
    208 H208       -5.0750  -29.4750  -52.7626 H         1 UNK         0.0600 
    209 H209       -3.3809  -29.2522  -52.3436 H         1 UNK         0.0600 
    210 H210       -6.5375  -26.2194  -51.2749 H         1 UNK         0.3000 
    211 H211       -6.9014  -24.2113  -52.1265 H         1 UNK         0.0600 
    212 H212       -5.4595  -25.1687  -54.6557 H         1 UNK         0.0600 
    213 H213       -6.6388  -23.8647  -54.5294 H         1 UNK         0.0600 
    214 H214       -7.1422  -25.5238  -54.2676 H         1 UNK         0.0600 
    215 H215       -4.7304  -24.4089  -50.4202 H         1 UNK         0.3000 
    216 H216       -2.9952  -23.3599  -49.5607 H         1 UNK         0.0600 
    217 H217       -3.4181  -21.1027  -51.5956 H         1 UNK         0.0600 
    218 H218       -2.6221  -20.9909  -50.0338 H         1 UNK         0.0600 
    219 H219       -4.3517  -21.2786  -50.1104 H         1 UNK         0.0600 
    220 H220       -2.7065  -25.0309  -52.1686 H         1 UNK         0.3000 
    221 H221       -1.2434  -25.7769  -53.6090 H         1 UNK         0.0600 
    222 H222        0.9583  -24.5151  -51.8914 H         1 UNK         0.0600 
    223 H223        0.2329  -26.0964  -51.6073 H         1 UNK         0.0600 
    224 H224        1.1591  -25.8046  -53.0690 H         1 UNK         0.0600 
    225 H225       -2.4079  -23.0411  -53.9349 H         1 UNK         0.3000 
    226 H226       -0.6424  -21.9754  -56.0766 H         1 UNK         0.0600 
    227 H227        0.0067  -20.8529  -53.9128 H         1 UNK         0.0600 
    228 H228       -0.7339  -19.7194  -55.0283 H         1 UNK         0.0600 
    229 H229       -1.6651  -20.3533  -53.6768 H         1 UNK         0.0600 
    230 H230       -3.4424  -23.2876  -55.7289 H         1 UNK         0.3000 
    231 H231       -5.5237  -23.1617  -56.5071 H         1 UNK         0.0600 
    232 H232       -4.3677  -22.8720  -58.7072 H         1 UNK         0.0600 
    233 H233       -4.4604  -21.1205  -58.5287 H         1 UNK         0.0600 
    234 H234       -5.9306  -22.0723  -58.6770 H         1 UNK         0.0600 
    235 H235       -4.9850  -21.6865  -54.2528 H         1 UNK         0.3000 
    236 H236       -5.5796  -20.1388  -52.8198 H         1 UNK         0.0600 
    237 H237       -7.9243  -19.3708  -52.8079 H         1 UNK         0.0600 
    238 H238       -8.1165  -19.7944  -54.5037 H         1 UNK         0.0600 
    239 H239       -7.8633  -21.0552  -53.2971 H         1 UNK         0.0600 
    240 H240       -4.1589  -19.2492  -55.3977 H         1 UNK         0.3000 
    241 H241       -3.3897  -17.5074  -56.4406 H         1 UNK         0.0600 
    242 H242       -6.2639  -18.3397  -56.9294 H         1 UNK         0.3800 
    243 H243       -6.9107  -16.9618  -57.7876 H         1 UNK         0.3800 
    244 H244       -3.2582  -15.2239  -55.3493 H         1 UNK         0.0800 
    245 H245       -4.1918  -15.8329  -54.0122 H         1 UNK         0.0800 
    246 H246       -2.7550  -15.8895  -51.9960 H         1 UNK         0.0800 
    247 H247       -3.0803  -17.6034  -52.1514 H         1 UNK         0.0800 
@<TRIPOS>BOND
     1    1    2 1    
     2    1  127 1    
     3    1  128 1    
     4    1  129 1    
     5    2    3 2    
     6    2    4 am   BACKBONE|DICT|INTERRES
     7    4    5 1    
     8    4  130 1    
     9    5    6 1    
    10    5   65 1    
    11    5  131 1    
    12    6    7 1    
    13    6  132 1    
    14    6  133 1    
    15    7    8 1    
    16    8    9 1    
    17    8  134 1    
    18    8  135 1    
    19    9   10 ar   
    20    9   14 ar   
    21   10   11 ar   
    22   10  136 1    
    23   11   12 ar   
    24   11  126 1    
    25   12   13 ar   
    26   12  137 1    
    27   13   14 ar   
    28   13   15 1    
    29   14  138 1    
    30   15   16 1    
    31   15  139 1    
    32   15  140 1    
    33   16   17 1    
    34   17   18 1    
    35   17  141 1    
    36   17  142 1    
    37   18   19 1    
    38   18   67 1    
    39   18  143 1    
    40   19   20 am   BACKBONE|DICT|INTERRES
    41   19  144 1    
    42   20   21 2    
    43   20   22 1    
    44   22   23 1    
    45   22   24 1    
    46   22  145 1    
    47   23  146 1    
    48   23  147 1    
    49   23  148 1    
    50   24   25 am   BACKBONE|DICT|INTERRES
    51   24  149 1    
    52   25   26 2    
    53   25   27 1    
    54   27   28 1    
    55   27   29 1    
    56   27  150 1    
    57   28  151 1    
    58   28  152 1    
    59   28  153 1    
    60   29   30 am   BACKBONE|DICT|INTERRES
    61   29  154 1    
    62   30   31 2    
    63   30   32 1    
    64   32   33 1    
    65   32   34 1    
    66   32  155 1    
    67   33  156 1    
    68   33  157 1    
    69   33  158 1    
    70   34   35 am   BACKBONE|DICT|INTERRES
    71   34  159 1    
    72   35   36 2    
    73   35   37 1    
    74   37   38 1    
    75   37   39 1    
    76   37  160 1    
    77   38  161 1    
    78   38  162 1    
    79   38  163 1    
    80   39   40 am   BACKBONE|DICT|INTERRES
    81   39  164 1    
    82   40   41 2    
    83   40   42 1    
    84   42   43 1    
    85   42   44 1    
    86   42  165 1    
    87   43  166 1    
    88   43  167 1    
    89   43  168 1    
    90   44   45 am   BACKBONE|DICT|INTERRES
    91   44  169 1    
    92   45   46 2    
    93   45   47 1    
    94   47   48 1    
    95   47   49 1    
    96   47  170 1    
    97   48  171 1    
    98   48  172 1    
    99   48  173 1    
   100   49   50 am   BACKBONE|DICT|INTERRES
   101   49  174 1    
   102   50   51 2    
   103   50   52 1    
   104   52   53 1    
   105   52   54 1    
   106   52  175 1    
   107   53  176 1    
   108   53  177 1    
   109   53  178 1    
   110   54   55 am   BACKBONE|DICT|INTERRES
   111   54  179 1    
   112   55   56 2    
   113   55   57 1    
   114   57   58 1    
   115   57   59 1    
   116   57  180 1    
   117   58  181 1    
   118   58  182 1    
   119   58  183 1    
   120   59   60 am   BACKBONE|DICT|INTERRES
   121   59  184 1    
   122   60   61 2    
   123   60   62 1    
   124   62   63 1    
   125   62   64 1    
   126   62  185 1    
   127   63  186 1    
   128   63  187 1    
   129   63  188 1    
   130   64   65 am   BACKBONE|DICT|INTERRES
   131   64  189 1    
   132   65   66 2    
   133   67   68 2    
   134   67   69 am   BACKBONE|DICT|INTERRES
   135   69   70 1    
   136   69  190 1    
   137   70   71 1    
   138   70   72 1    
   139   70  191 1    
   140   71  192 1    
   141   71  193 1    
   142   71  194 1    
   143   72   73 2    
   144   72   74 am   BACKBONE|DICT|INTERRES
   145   74   75 1    
   146   74  195 1    
   147   75   76 1    
   148   75   77 1    
   149   75  196 1    
   150   76  197 1    
   151   76  198 1    
   152   76  199 1    
   153   77   78 2    
   154   77   79 am   BACKBONE|DICT|INTERRES
   155   79   80 1    
   156   79  200 1    
   157   80   81 1    
   158   80   82 1    
   159   80  201 1    
   160   81  202 1    
   161   81  203 1    
   162   81  204 1    
   163   82   83 2    
   164   82   84 am   BACKBONE|DICT|INTERRES
   165   84   85 1    
   166   84  205 1    
   167   85   86 1    
   168   85   87 1    
   169   85  206 1    
   170   86  207 1    
   171   86  208 1    
   172   86  209 1    
   173   87   88 2    
   174   87   89 am   BACKBONE|DICT|INTERRES
   175   89   90 1    
   176   89  210 1    
   177   90   91 1    
   178   90   92 1    
   179   90  211 1    
   180   91  212 1    
   181   91  213 1    
   182   91  214 1    
   183   92   93 2    
   184   92   94 am   BACKBONE|DICT|INTERRES
   185   94   95 1    
   186   94  215 1    
   187   95   96 1    
   188   95   97 1    
   189   95  216 1    
   190   96  217 1    
   191   96  218 1    
   192   96  219 1    
   193   97   98 2    
   194   97   99 am   BACKBONE|DICT|INTERRES
   195   99  100 1    
   196   99  220 1    
   197  100  101 1    
   198  100  102 1    
   199  100  221 1    
   200  101  222 1    
   201  101  223 1    
   202  101  224 1    
   203  102  103 2    
   204  102  104 am   BACKBONE|DICT|INTERRES
   205  104  105 1    
   206  104  225 1    
   207  105  106 1    
   208  105  107 1    
   209  105  226 1    
   210  106  227 1    
   211  106  228 1    
   212  106  229 1    
   213  107  108 2    
   214  107  109 am   BACKBONE|DICT|INTERRES
   215  109  110 1    
   216  109  230 1    
   217  110  111 1    
   218  110  112 1    
   219  110  231 1    
   220  111  232 1    
   221  111  233 1    
   222  111  234 1    
   223  112  113 2    
   224  112  114 am   BACKBONE|DICT|INTERRES
   225  114  115 1    
   226  114  235 1    
   227  115  116 1    
   228  115  117 1    
   229  115  236 1    
   230  116  237 1    
   231  116  238 1    
   232  116  239 1    
   233  117  118 2    
   234  117  119 am   BACKBONE|DICT|INTERRES
   235  119  120 1    
   236  119  240 1    
   237  120  121 1    
   238  120  124 1    
   239  120  241 1    
   240  121  122 am   BACKBONE|DICT|INTERRES
   241  121  123 2    
   242  122  242 1    
   243  122  243 1    
   244  124  125 1    
   245  124  244 1    
   246  124  245 1    
   247  125  126 1    
   248  126  246 1    
   249  126  247 1    
@<TRIPOS>SUBSTRUCTURE
     1 UNK         1 GROUP             0       ****    0 ROOT    
