@<TRIPOS>MOLECULE
3R540
247   249    1
SMALL
USER_CHARGES


@<TRIPOS>ATOM
      1 CA         -1.0606  -14.7269  -42.4389 C.3       0 UNK        -0.1800 
      2 C          -2.1629  -14.4843  -43.4577 C.2       0 UNK         0.5000 
      3 O          -3.3414  -14.5503  -43.1074 O.2       0 UNK        -0.5000 
      4 N          -1.7773  -14.2018  -44.7062 N.am      1 UNK        -0.5000 
      5 CA         -2.6769  -13.8974  -45.8213 C.3       1 UNK         0.1400 
      6 C6         -2.5760  -14.9431  -46.9665 C.3       23 UNK        -0.0398 
      7 S7         -3.0755  -16.6071  -46.4053 S.3       23 UNK        -0.2404 
      8 C8         -3.8973  -17.2869  -47.8789 C.3       23 UNK        -0.0205 
      9 C9         -2.9548  -17.5257  -49.0535 C.ar      23 UNK        -0.0193 
     10 C10        -3.3159  -17.0727  -50.3252 C.ar      23 UNK        -0.1150 
     11 C11        -2.5178  -17.3558  -51.4356 C.ar      23 UNK        -0.0193 
     12 C12        -1.3392  -18.0859  -51.2652 C.ar      23 UNK        -0.1150 
     13 C13        -0.9565  -18.5404  -49.9999 C.ar      23 UNK        -0.0193 
     14 C14        -1.7691  -18.2548  -48.8961 C.ar      23 UNK        -0.1150 
     15 C15         0.3408  -19.3241  -49.8426 C.3       23 UNK        -0.0205 
     16 S16         0.0583  -21.0951  -49.5074 S.3       23 UNK        -0.2404 
     17 C17         0.3708  -21.1310  -47.7139 C.3       23 UNK        -0.0398 
     18 CA         -0.1900  -22.3464  -46.9377 C.3       11 UNK         0.1400 
     19 N           0.2907  -22.3213  -45.5503 N.am      11 UNK        -0.5000 
     20 C           0.0609  -23.2544  -44.6160 C.2       10 UNK         0.5000 
     21 O          -0.5527  -24.2981  -44.8278 O.2       10 UNK        -0.5000 
     22 CA          0.5574  -22.9482  -43.1903 C.3       10 UNK         0.1400 
     23 CB          2.0588  -23.2416  -43.0561 C.3       10 UNK        -0.1800 
     24 N           0.2829  -21.5690  -42.7829 N.am      10 UNK        -0.5000 
     25 C          -0.9464  -21.0542  -42.6285 C.2       9 UNK         0.5000 
     26 O          -1.9801  -21.7108  -42.7498 O.2       9 UNK        -0.5000 
     27 CA         -1.0407  -19.5396  -42.3585 C.3       9 UNK         0.1400 
     28 CB         -0.7837  -19.2222  -40.8788 C.3       9 UNK        -0.1800 
     29 N          -0.1242  -18.7682  -43.1993 N.am      9 UNK        -0.5000 
     30 C          -0.1815  -18.7405  -44.5379 C.2       8 UNK         0.5000 
     31 O          -1.0558  -19.3063  -45.1920 O.2       8 UNK        -0.5000 
     32 CA          0.9624  -18.0233  -45.2729 C.3       8 UNK         0.1400 
     33 CB          0.6864  -16.5264  -45.4052 C.3       8 UNK        -0.1800 
     34 N           2.2546  -18.2355  -44.6255 N.am      8 UNK        -0.5000 
     35 C           2.9182  -19.3984  -44.6512 C.2       7 UNK         0.5000 
     36 O           2.5314  -20.3893  -45.2704 O.2       7 UNK        -0.5000 
     37 CA          4.1974  -19.4833  -43.8009 C.3       7 UNK         0.1400 
     38 CB          5.4073  -18.9353  -44.5701 C.3       7 UNK        -0.1800 
     39 N           4.0569  -18.7764  -42.5268 N.am      7 UNK        -0.5000 
     40 C           3.2779  -19.2097  -41.5250 C.2       6 UNK         0.5000 
     41 O           2.6316  -20.2562  -41.5734 O.2       6 UNK        -0.5000 
     42 CA          3.1678  -18.3185  -40.2733 C.3       6 UNK         0.1400 
     43 CB          4.2414  -18.7050  -39.2454 C.3       6 UNK        -0.1800 
     44 N           3.2582  -16.8828  -40.5442 N.am      6 UNK        -0.5000 
     45 C           2.4383  -16.1855  -41.3426 C.2       5 UNK         0.5000 
     46 O           1.5216  -16.6986  -41.9848 O.2       5 UNK        -0.5000 
     47 CA          2.6896  -14.6656  -41.4647 C.3       5 UNK         0.1400 
     48 CB          3.7071  -14.1162  -40.4399 C.3       5 UNK        -0.1800 
     49 N           3.0861  -14.2554  -42.8169 N.am      5 UNK        -0.5000 
     50 C           4.0786  -14.7623  -43.5619 C.2       4 UNK         0.5000 
     51 O           4.7429  -15.7465  -43.2307 O.2       4 UNK        -0.5000 
     52 CA          4.4459  -14.0312  -44.8717 C.3       4 UNK         0.1400 
     53 CB          4.4294  -14.9810  -46.0848 C.3       4 UNK        -0.1800 
     54 N           3.7141  -12.7897  -45.1725 N.am      4 UNK        -0.5000 
     55 C           2.4237  -12.6322  -45.4997 C.2       3 UNK         0.5000 
     56 O           1.5733  -13.5204  -45.4008 O.2       3 UNK        -0.5000 
     57 CA          2.0141  -11.2496  -46.0453 C.3       3 UNK         0.1400 
     58 CB          3.0885  -10.6362  -46.9728 C.3       3 UNK        -0.1800 
     59 N           0.7546  -11.4161  -46.7627 N.am      3 UNK        -0.5000 
     60 C          -0.0676  -10.4580  -47.2053 C.2       2 UNK         0.5000 
     61 O           0.1418   -9.2522  -47.0677 O.2       2 UNK        -0.5000 
     62 CA         -1.3514  -10.9321  -47.9186 C.3       2 UNK         0.1400 
     63 CB         -1.1285  -10.9997  -49.4374 C.3       2 UNK        -0.1800 
     64 N          -1.8148  -12.2410  -47.4459 N.am      2 UNK        -0.5000 
     65 C          -2.3631  -12.4489  -46.2400 C.2       1 UNK         0.5000 
     66 O          -2.5997  -11.5369  -45.4446 O.2       1 UNK        -0.5000 
     67 C          -1.7315  -22.4376  -47.0133 C.2       11 UNK         0.5000 
     68 O          -2.2611  -23.2551  -47.7698 O.2       11 UNK        -0.5000 
     69 N          -2.4203  -21.6348  -46.1905 N.am      12 UNK        -0.5000 
     70 CA         -3.8712  -21.6609  -46.0252 C.3       12 UNK         0.1400 
     71 CB         -4.3149  -20.4551  -45.1834 C.3       12 UNK        -0.1800 
     72 C          -4.3704  -22.9811  -45.4106 C.2       12 UNK         0.5000 
     73 O          -5.2915  -23.5884  -45.9569 O.2       12 UNK        -0.5000 
     74 N          -3.7404  -23.4171  -44.3097 N.am      13 UNK        -0.5000 
     75 CA         -4.0819  -24.6402  -43.5759 C.3       13 UNK         0.1400 
     76 CB         -3.2648  -24.7047  -42.2770 C.3       13 UNK        -0.1800 
     77 C          -3.8919  -25.9294  -44.3972 C.2       13 UNK         0.5000 
     78 O          -4.7159  -26.8394  -44.2994 O.2       13 UNK        -0.5000 
     79 N          -2.8293  -25.9738  -45.2109 N.am      14 UNK        -0.5000 
     80 CA         -2.5226  -27.0694  -46.1329 C.3       14 UNK         0.1400 
     81 CB         -1.0409  -26.9744  -46.5323 C.3       14 UNK        -0.1800 
     82 C          -3.4086  -27.0802  -47.3950 C.2       14 UNK         0.5000 
     83 O          -3.3561  -28.0510  -48.1508 O.2       14 UNK        -0.5000 
     84 N          -4.1675  -25.9964  -47.6218 N.am      15 UNK        -0.5000 
     85 CA         -4.9800  -25.7012  -48.8076 C.3       15 UNK         0.1400 
     86 CB         -6.1022  -26.7414  -49.0017 C.3       15 UNK        -0.1800 
     87 C          -4.1409  -25.4794  -50.0844 C.2       15 UNK         0.5000 
     88 O          -4.6796  -25.5262  -51.1913 O.2       15 UNK        -0.5000 
     89 N          -2.8454  -25.1801  -49.9122 N.am      16 UNK        -0.5000 
     90 CA         -1.9207  -24.7918  -50.9770 C.3       16 UNK         0.1400 
     91 CB         -0.4824  -24.8441  -50.4432 C.3       16 UNK        -0.1800 
     92 C          -2.2491  -23.3989  -51.5426 C.2       16 UNK         0.5000 
     93 O          -1.9490  -23.1301  -52.7045 O.2       16 UNK        -0.5000 
     94 N          -2.9186  -22.5657  -50.7336 N.am      17 UNK        -0.5000 
     95 CA         -3.4567  -21.2564  -51.0987 C.3       17 UNK         0.1400 
     96 CB         -4.1845  -20.6722  -49.8805 C.3       17 UNK        -0.1800 
     97 C          -4.4018  -21.2941  -52.3146 C.2       17 UNK         0.5000 
     98 O          -4.3615  -20.3868  -53.1451 O.2       17 UNK        -0.5000 
     99 N          -5.2072  -22.3613  -52.4176 N.am      18 UNK        -0.5000 
    100 CA        -6.1264  -22.5976  -53.5310 C.3       18 UNK         0.1400 
    101 CB        -7.1320  -23.6884  -53.1327 C.3       18 UNK        -0.1800 
    102 C         -5.3999  -22.9785  -54.8344 C.2       18 UNK         0.5000 
    103 O         -5.8733  -22.6240  -55.9141 O.2       18 UNK        -0.5000 
    104 N         -4.2634  -23.6788  -54.7126 N.am      19 UNK        -0.5000 
    105 CA        -3.3949  -24.0420  -55.8325 C.3       19 UNK         0.1400 
    106 CB        -2.5063  -25.2305  -55.4328 C.3       19 UNK        -0.1800 
    107 C         -2.5457  -22.8470  -56.3007 C.2       19 UNK         0.5000 
    108 O         -2.3705  -22.6625  -57.5056 O.2       19 UNK        -0.5000 
    109 N         -2.0542  -22.0492  -55.3414 N.am      20 UNK        -0.5000 
    110 CA        -1.3215  -20.8043  -55.5736 C.3       20 UNK         0.1400 
    111 CB        -0.7437  -20.3013  -54.2425 C.3       20 UNK        -0.1800 
    112 C         -2.1964  -19.7209  -56.2299 C.2       20 UNK         0.5000 
    113 O         -1.7262  -19.0244  -57.1301 O.2       20 UNK        -0.5000 
    114 N         -3.4520  -19.6135  -55.7707 N.am      21 UNK        -0.5000 
    115 CA        -4.5600  -18.7792  -56.2529 C.3       21 UNK         0.1400 
    116 CB        -4.9216  -19.1298  -57.7081 C.3       21 UNK        -0.1800 
    117 C         -4.3789  -17.2576  -56.0771 C.2       21 UNK         0.5000 
    118 O         -5.3603  -16.5747  -55.7832 O.2       21 UNK        -0.5000 
    119 N         -3.1490  -16.7550  -56.2439 N.am      22 UNK        -0.5000 
    120 CA        -2.7471  -15.3403  -56.1291 C.3       22 UNK         0.1400 
    121 C         -3.3405  -14.4075  -57.2325 C.2       22 UNK         0.5000 
    122 N         -3.8313  -14.9320  -58.3492 N.am      22 UNK        -0.7600 
    123 O         -3.3280  -13.1867  -57.0978 O.2       22 UNK        -0.5000 
    124 C124       -2.9358  -14.7694  -54.6933 C.3       23 UNK        -0.0398 
    125 S125       -1.8682  -15.5718  -53.4476 S.3       23 UNK        -0.2404 
    126 C126       -2.9449  -16.8978  -52.8208 C.3       23 UNK        -0.0205 
    127 H127       -0.0807  -14.4781  -42.8452 H         1 UNK         0.0600 
    128 H128       -1.2233  -14.1174  -41.5502 H         1 UNK         0.0600 
    129 H129       -1.0527  -15.7753  -42.1405 H         1 UNK         0.0600 
    130 H130       -0.7893  -14.1217  -44.9102 H         1 UNK         0.3000 
    131 H131       -3.7150  -13.8858  -45.4828 H         1 UNK         0.0600 
    132 H132       -1.5598  -15.0102  -47.3581 H         1 UNK         0.0800 
    133 H133       -3.2175  -14.6527  -47.8004 H         1 UNK         0.0800 
    134 H134       -4.7162  -16.6234  -48.1610 H         1 UNK         0.0800 
    135 H135       -4.3567  -18.2393  -47.6141 H         1 UNK         0.0800 
    136 H136       -4.2361  -16.5210  -50.4568 H         1 UNK         0.1150 
    137 H137       -0.7186  -18.2973  -52.1237 H         1 UNK         0.1150 
    138 H138       -1.4942  -18.6124  -47.9147 H         1 UNK         0.1150 
    139 H139        0.9381  -19.2462  -50.7523 H         1 UNK         0.0800 
    140 H140        0.9459  -18.8740  -49.0544 H         1 UNK         0.0800 
    141 H141        1.4530  -21.0873  -47.5863 H         1 UNK         0.0800 
    142 H142       -0.0182  -20.2123  -47.2856 H         1 UNK         0.0800 
    143 H143        0.2111  -23.2537  -47.3929 H         1 UNK         0.0600 
    144 H144        0.8552  -21.5192  -45.2909 H         1 UNK         0.3000 
    145 H145        0.0239  -23.6093  -42.5047 H         1 UNK         0.0600 
    146 H146        2.6576  -22.5916  -43.6940 H         1 UNK         0.0600 
    147 H147        2.3960  -23.1026  -42.0288 H         1 UNK         0.0600 
    148 H148        2.2814  -24.2722  -43.3353 H         1 UNK         0.0600 
    149 H149        1.0885  -20.9775  -42.6046 H         1 UNK         0.3000 
    150 H150       -2.0563  -19.2203  -42.6018 H         1 UNK         0.0600 
    151 H151       -0.8427  -18.1505  -40.6871 H         1 UNK         0.0600 
    152 H152        0.1976  -19.5682  -40.5569 H         1 UNK         0.0600 
    153 H153       -1.5250  -19.7094  -40.2443 H         1 UNK         0.0600 
    154 H154        0.5915  -18.2207  -42.7302 H         1 UNK         0.3000 
    155 H155        1.0130  -18.4321  -46.2830 H         1 UNK         0.0600 
    156 H156        0.8320  -15.9988  -44.4639 H         1 UNK         0.0600 
    157 H157       -0.3348  -16.3498  -45.7304 H         1 UNK         0.0600 
    158 H158        1.3336  -16.0770  -46.1547 H         1 UNK         0.0600 
    159 H159        2.5995  -17.4907  -44.0362 H         1 UNK         0.3000 
    160 H160        4.3850  -20.5382  -43.5890 H         1 UNK         0.0600 
    161 H161        5.2891  -17.8789  -44.8072 H         1 UNK         0.0600 
    162 H162        5.5455  -19.4694  -45.5110 H         1 UNK         0.0600 
    163 H163        6.3252  -19.0484  -43.9933 H         1 UNK         0.0600 
    164 H164        4.5151  -17.8766  -42.4443 H         1 UNK         0.3000 
    165 H165        2.1900  -18.5026  -39.8254 H         1 UNK         0.0600 
    166 H166        5.2465  -18.5071  -39.6201 H         1 UNK         0.0600 
    167 H167        4.1142  -18.1526  -38.3142 H         1 UNK         0.0600 
    168 H168        4.1847  -19.7668  -39.0017 H         1 UNK         0.0600 
    169 H169        4.0041  -16.3855  -40.0802 H         1 UNK         0.3000 
    170 H170        1.7321  -14.1856  -41.2607 H         1 UNK         0.0600 
    171 H171        3.4086  -14.3525  -39.4176 H         1 UNK         0.0600 
    172 H172        4.7096  -14.5149  -40.5999 H         1 UNK         0.0600 
    173 H173        3.7742  -13.0302  -40.5065 H         1 UNK         0.0600 
    174 H174        2.5585  -13.4948  -43.2207 H         1 UNK         0.3000 
    175 H175        5.4817  -13.7181  -44.7336 H         1 UNK         0.0600 
    176 H176        3.4375  -15.3862  -46.2707 H         1 UNK         0.0600 
    177 H177        4.7556  -14.4688  -46.9899 H         1 UNK         0.0600 
    178 H178        5.1038  -15.8236  -45.9344 H         1 UNK         0.0600 
    179 H179        4.3038  -11.9725  -45.2455 H         1 UNK         0.3000 
    180 H180        1.8463  -10.5896  -45.1924 H         1 UNK         0.0600 
    181 H181        4.0136  -10.4297  -46.4343 H         1 UNK         0.0600 
    182 H182        3.3278  -11.3033  -47.8020 H         1 UNK         0.0600 
    183 H183        2.7621   -9.6872  -47.3971 H         1 UNK         0.0600 
    184 H184        0.4795  -12.3844  -46.8640 H         1 UNK         0.3000 
    185 H185       -2.1326  -10.1946  -47.7221 H         1 UNK         0.0600 
    186 H186       -2.0464  -11.2700  -49.9597 H         1 UNK         0.0600 
    187 H187       -0.8066  -10.0332  -49.8276 H         1 UNK         0.0600 
    188 H188       -0.3632  -11.7310  -49.7010 H         1 UNK         0.0600 
    189 H189       -1.6524  -13.0223  -48.0635 H         1 UNK         0.3000 
    190 H190       -1.9125  -20.9492  -45.6371 H         1 UNK         0.3000 
    191 H191       -4.3222  -21.5647  -47.0141 H         1 UNK         0.0600 
    192 H192       -5.4018  -20.4108  -45.1070 H         1 UNK         0.0600 
    193 H193       -3.9792  -19.5193  -45.6285 H         1 UNK         0.0600 
    194 H194       -3.9151  -20.4973  -44.1704 H         1 UNK         0.0600 
    195 H195       -3.0059  -22.8408  -43.9063 H         1 UNK         0.3000 
    196 H196       -5.1382  -24.5764  -43.3073 H         1 UNK         0.0600 
    197 H197       -3.5151  -25.5959  -41.7002 H         1 UNK         0.0600 
    198 H198       -3.4635  -23.8408  -41.6427 H         1 UNK         0.0600 
    199 H199       -2.1937  -24.7331  -42.4786 H         1 UNK         0.0600 
    200 H200       -2.1567  -25.2104  -45.1790 H         1 UNK         0.3000 
    201 H201       -2.6783  -28.0171  -45.6134 H         1 UNK         0.0600 
    202 H202       -0.3929  -27.0228  -45.6570 H         1 UNK         0.0600 
    203 H203       -0.8263  -26.0418  -47.0564 H         1 UNK         0.0600 
    204 H204       -0.7559  -27.7952  -47.1916 H         1 UNK         0.0600 
    205 H205       -4.1447  -25.2579  -46.9291 H         1 UNK         0.3000 
    206 H206       -5.4591  -24.7431  -48.6015 H         1 UNK         0.0600 
    207 H207       -6.6731  -26.8810  -48.0837 H         1 UNK         0.0600 
    208 H208       -6.8031  -26.4190  -49.7725 H         1 UNK         0.0600 
    209 H209       -5.7107  -27.7121  -49.3063 H         1 UNK         0.0600 
    210 H210       -2.5123  -25.0597  -48.9638 H         1 UNK         0.3000 
    211 H211       -2.0122  -25.5114  -51.7931 H         1 UNK         0.0600 
    212 H212        0.2324  -24.5702  -51.2203 H         1 UNK         0.0600 
    213 H213       -0.2251  -25.8465  -50.1007 H         1 UNK         0.0600 
    214 H214       -0.3380  -24.1580  -49.6092 H         1 UNK         0.0600 
    215 H215       -3.0457  -22.8562  -49.7720 H         1 UNK         0.3000 
    216 H216       -2.6147  -20.6108  -51.3495 H         1 UNK         0.0600 
    217 H217       -4.6206  -19.7005  -50.1138 H         1 UNK         0.0600 
    218 H218       -3.4965  -20.5305  -49.0476 H         1 UNK         0.0600 
    219 H219       -4.9928  -21.3215  -49.5423 H         1 UNK         0.0600 
    220 H220       -5.1533  -23.0831  -51.7129 H         1 UNK         0.3000 
    221 H221       -6.6813  -21.6755  -53.7177 H         1 UNK         0.0600 
    222 H222       -6.6371  -24.6393  -52.9317 H         1 UNK         0.0600 
    223 H223       -7.6898  -23.4049  -52.2401 H         1 UNK         0.0600 
    224 H224       -7.8577  -23.8587  -53.9290 H         1 UNK         0.0600 
    225 H225       -3.9248  -23.8964  -53.7862 H         1 UNK         0.3000 
    226 H226       -4.0198  -24.3584  -56.6705 H         1 UNK         0.0600 
    227 H227       -1.8850  -25.5486  -56.2709 H         1 UNK         0.0600 
    228 H228       -1.8382  -24.9823  -54.6081 H         1 UNK         0.0600 
    229 H229       -3.1077  -26.0878  -55.1303 H         1 UNK         0.0600 
    230 H230       -2.1790  -22.3287  -54.3714 H         1 UNK         0.3000 
    231 H231       -0.4915  -21.0208  -56.2492 H         1 UNK         0.0600 
    232 H232       -0.1861  -19.3743  -54.3820 H         1 UNK         0.0600 
    233 H233       -0.0617  -21.0314  -53.8063 H         1 UNK         0.0600 
    234 H234       -1.5313  -20.1076  -53.5145 H         1 UNK         0.0600 
    235 H235       -3.6904  -20.1677  -54.9529 H         1 UNK         0.3000 
    236 H236       -5.4129  -19.0578  -55.6318 H         1 UNK         0.0600 
    237 H237       -4.1175  -18.8798  -58.4006 H         1 UNK         0.0600 
    238 H238       -5.1356  -20.1938  -57.8126 H         1 UNK         0.0600 
    239 H239       -5.8105  -18.5861  -58.0303 H         1 UNK         0.0600 
    240 H240       -2.4230  -17.4048  -56.5336 H         1 UNK         0.3000 
    241 H241       -1.6761  -15.3334  -56.3337 H         1 UNK         0.0600 
    242 H242       -4.2021  -14.3239  -59.0626 H         1 UNK         0.3800 
    243 H243       -3.8340  -15.9297  -58.4882 H         1 UNK         0.3800 
    244 H244       -3.9799  -14.8137  -54.3828 H         1 UNK         0.0800 
    245 H245       -2.6714  -13.7113  -54.6692 H         1 UNK         0.0800 
    246 H246       -3.9818  -16.5593  -52.8042 H         1 UNK         0.0800 
    247 H247       -2.9087  -17.7473  -53.5033 H         1 UNK         0.0800 
@<TRIPOS>BOND
     1    1    2 1    
     2    1  127 1    
     3    1  128 1    
     4    1  129 1    
     5    2    3 2    
     6    2    4 am   BACKBONE|DICT|INTERRES
     7    4    5 1    
     8    4  130 1    
     9    5    6 1    
    10    5   65 1    
    11    5  131 1    
    12    6    7 1    
    13    6  132 1    
    14    6  133 1    
    15    7    8 1    
    16    8    9 1    
    17    8  134 1    
    18    8  135 1    
    19    9   10 ar   
    20    9   14 ar   
    21   10   11 ar   
    22   10  136 1    
    23   11   12 ar   
    24   11  126 1    
    25   12   13 ar   
    26   12  137 1    
    27   13   14 ar   
    28   13   15 1    
    29   14  138 1    
    30   15   16 1    
    31   15  139 1    
    32   15  140 1    
    33   16   17 1    
    34   17   18 1    
    35   17  141 1    
    36   17  142 1    
    37   18   19 1    
    38   18   67 1    
    39   18  143 1    
    40   19   20 am   BACKBONE|DICT|INTERRES
    41   19  144 1    
    42   20   21 2    
    43   20   22 1    
    44   22   23 1    
    45   22   24 1    
    46   22  145 1    
    47   23  146 1    
    48   23  147 1    
    49   23  148 1    
    50   24   25 am   BACKBONE|DICT|INTERRES
    51   24  149 1    
    52   25   26 2    
    53   25   27 1    
    54   27   28 1    
    55   27   29 1    
    56   27  150 1    
    57   28  151 1    
    58   28  152 1    
    59   28  153 1    
    60   29   30 am   BACKBONE|DICT|INTERRES
    61   29  154 1    
    62   30   31 2    
    63   30   32 1    
    64   32   33 1    
    65   32   34 1    
    66   32  155 1    
    67   33  156 1    
    68   33  157 1    
    69   33  158 1    
    70   34   35 am   BACKBONE|DICT|INTERRES
    71   34  159 1    
    72   35   36 2    
    73   35   37 1    
    74   37   38 1    
    75   37   39 1    
    76   37  160 1    
    77   38  161 1    
    78   38  162 1    
    79   38  163 1    
    80   39   40 am   BACKBONE|DICT|INTERRES
    81   39  164 1    
    82   40   41 2    
    83   40   42 1    
    84   42   43 1    
    85   42   44 1    
    86   42  165 1    
    87   43  166 1    
    88   43  167 1    
    89   43  168 1    
    90   44   45 am   BACKBONE|DICT|INTERRES
    91   44  169 1    
    92   45   46 2    
    93   45   47 1    
    94   47   48 1    
    95   47   49 1    
    96   47  170 1    
    97   48  171 1    
    98   48  172 1    
    99   48  173 1    
   100   49   50 am   BACKBONE|DICT|INTERRES
   101   49  174 1    
   102   50   51 2    
   103   50   52 1    
   104   52   53 1    
   105   52   54 1    
   106   52  175 1    
   107   53  176 1    
   108   53  177 1    
   109   53  178 1    
   110   54   55 am   BACKBONE|DICT|INTERRES
   111   54  179 1    
   112   55   56 2    
   113   55   57 1    
   114   57   58 1    
   115   57   59 1    
   116   57  180 1    
   117   58  181 1    
   118   58  182 1    
   119   58  183 1    
   120   59   60 am   BACKBONE|DICT|INTERRES
   121   59  184 1    
   122   60   61 2    
   123   60   62 1    
   124   62   63 1    
   125   62   64 1    
   126   62  185 1    
   127   63  186 1    
   128   63  187 1    
   129   63  188 1    
   130   64   65 am   BACKBONE|DICT|INTERRES
   131   64  189 1    
   132   65   66 2    
   133   67   68 2    
   134   67   69 am   BACKBONE|DICT|INTERRES
   135   69   70 1    
   136   69  190 1    
   137   70   71 1    
   138   70   72 1    
   139   70  191 1    
   140   71  192 1    
   141   71  193 1    
   142   71  194 1    
   143   72   73 2    
   144   72   74 am   BACKBONE|DICT|INTERRES
   145   74   75 1    
   146   74  195 1    
   147   75   76 1    
   148   75   77 1    
   149   75  196 1    
   150   76  197 1    
   151   76  198 1    
   152   76  199 1    
   153   77   78 2    
   154   77   79 am   BACKBONE|DICT|INTERRES
   155   79   80 1    
   156   79  200 1    
   157   80   81 1    
   158   80   82 1    
   159   80  201 1    
   160   81  202 1    
   161   81  203 1    
   162   81  204 1    
   163   82   83 2    
   164   82   84 am   BACKBONE|DICT|INTERRES
   165   84   85 1    
   166   84  205 1    
   167   85   86 1    
   168   85   87 1    
   169   85  206 1    
   170   86  207 1    
   171   86  208 1    
   172   86  209 1    
   173   87   88 2    
   174   87   89 am   BACKBONE|DICT|INTERRES
   175   89   90 1    
   176   89  210 1    
   177   90   91 1    
   178   90   92 1    
   179   90  211 1    
   180   91  212 1    
   181   91  213 1    
   182   91  214 1    
   183   92   93 2    
   184   92   94 am   BACKBONE|DICT|INTERRES
   185   94   95 1    
   186   94  215 1    
   187   95   96 1    
   188   95   97 1    
   189   95  216 1    
   190   96  217 1    
   191   96  218 1    
   192   96  219 1    
   193   97   98 2    
   194   97   99 am   BACKBONE|DICT|INTERRES
   195   99  100 1    
   196   99  220 1    
   197  100  101 1    
   198  100  102 1    
   199  100  221 1    
   200  101  222 1    
   201  101  223 1    
   202  101  224 1    
   203  102  103 2    
   204  102  104 am   BACKBONE|DICT|INTERRES
   205  104  105 1    
   206  104  225 1    
   207  105  106 1    
   208  105  107 1    
   209  105  226 1    
   210  106  227 1    
   211  106  228 1    
   212  106  229 1    
   213  107  108 2    
   214  107  109 am   BACKBONE|DICT|INTERRES
   215  109  110 1    
   216  109  230 1    
   217  110  111 1    
   218  110  112 1    
   219  110  231 1    
   220  111  232 1    
   221  111  233 1    
   222  111  234 1    
   223  112  113 2    
   224  112  114 am   BACKBONE|DICT|INTERRES
   225  114  115 1    
   226  114  235 1    
   227  115  116 1    
   228  115  117 1    
   229  115  236 1    
   230  116  237 1    
   231  116  238 1    
   232  116  239 1    
   233  117  118 2    
   234  117  119 am   BACKBONE|DICT|INTERRES
   235  119  120 1    
   236  119  240 1    
   237  120  121 1    
   238  120  124 1    
   239  120  241 1    
   240  121  122 am   BACKBONE|DICT|INTERRES
   241  121  123 2    
   242  122  242 1    
   243  122  243 1    
   244  124  125 1    
   245  124  244 1    
   246  124  245 1    
   247  125  126 1    
   248  126  246 1    
   249  126  247 1    
@<TRIPOS>SUBSTRUCTURE
     1 UNK         1 GROUP             0       ****    0 ROOT    
