@<TRIPOS>MOLECULE
3R540
247   249    1
SMALL
USER_CHARGES


@<TRIPOS>ATOM
      1 CA         -0.6122  -11.9807  -47.9291 C.3       0 UNK        -0.1800 
      2 C           0.8169  -11.4796  -48.0967 C.2       0 UNK         0.5000 
      3 O           1.0300  -10.3765  -48.6025 O.2       0 UNK        -0.5000 
      4 N           1.7968  -12.2807  -47.6593 N.am      1 UNK        -0.5000 
      5 CA          3.2454  -12.0454  -47.7606 C.3       1 UNK         0.1400 
      6 C6          4.0440  -13.3757  -47.6656 C.3       23 UNK        -0.0398 
      7 S7          3.5165  -14.6334  -48.8780 S.3       23 UNK        -0.2404 
      8 C8          2.6237  -15.7967  -47.7971 C.3       23 UNK        -0.0205 
      9 C9          2.0372  -16.9504  -48.5939 C.ar      23 UNK        -0.0193 
     10 C10         0.9075  -16.7456  -49.3912 C.ar      23 UNK        -0.1150 
     11 C11         0.3614  -17.7955  -50.1344 C.ar      23 UNK        -0.0193 
     12 C12         0.9594  -19.0574  -50.0809 C.ar      23 UNK        -0.1150 
     13 C13         2.0801  -19.2796  -49.2746 C.ar      23 UNK        -0.0193 
     14 C14         2.6162  -18.2215  -48.5344 C.ar      23 UNK        -0.1150 
     15 C15         2.7147  -20.6614  -49.2086 C.3       23 UNK        -0.0205 
     16 S16         2.1063  -21.6242  -47.7882 S.3       23 UNK        -0.2404 
     17 C17         0.3486  -21.8167  -48.2298 C.3       23 UNK        -0.0398 
     18 CA         -0.3702  -22.8732  -47.3627 C.3       11 UNK         0.1400 
     19 N          -0.4771  -22.4672  -45.9534 N.am      11 UNK        -0.5000 
     20 C          -1.0160  -23.1937  -44.9610 C.2       10 UNK         0.5000 
     21 O          -1.5320  -24.2999  -45.1216 O.2       10 UNK        -0.5000 
     22 CA         -1.0407  -22.5513  -43.5655 C.3       10 UNK         0.1400 
     23 CB          0.3666  -22.4678  -42.9531 C.3       10 UNK        -0.1800 
     24 N          -1.6496  -21.2247  -43.6251 N.am      10 UNK        -0.5000 
     25 C          -2.9709  -21.0129  -43.7112 C.2       9 UNK         0.5000 
     26 O          -3.8113  -21.9084  -43.6254 O.2       9 UNK        -0.5000 
     27 CA         -3.4405  -19.5655  -43.9530 C.3       9 UNK         0.1400 
     28 CB         -3.8080  -18.8852  -42.6259 C.3       9 UNK        -0.1800 
     29 N          -2.4494  -18.7483  -44.6525 N.am      9 UNK        -0.5000 
     30 C          -2.0880  -18.9147  -45.9333 C.2       8 UNK         0.5000 
     31 O          -2.5658  -19.7722  -46.6741 O.2       8 UNK        -0.5000 
     32 CA         -0.9536  -18.0080  -46.4431 C.3       8 UNK         0.1400 
     33 CB         -1.5152  -16.6497  -46.8915 C.3       8 UNK        -0.1800 
     34 N           0.0901  -17.8057  -45.4328 N.am      8 UNK        -0.5000 
     35 C           0.8452  -18.7956  -44.9293 C.2       7 UNK         0.5000 
     36 O           0.7294  -19.9705  -45.2713 O.2       7 UNK        -0.5000 
     37 CA          1.8559  -18.4467  -43.8219 C.3       7 UNK         0.1400 
     38 CB          3.2640  -18.2820  -44.4101 C.3       7 UNK        -0.1800 
     39 N           1.4890  -17.2493  -43.0645 N.am      7 UNK        -0.5000 
     40 C           0.4429  -17.1836  -42.2244 C.2       6 UNK         0.5000 
     41 O          -0.2872  -18.1445  -41.9789 O.2       6 UNK        -0.5000 
     42 CA          0.1290  -15.8170  -41.5773 C.3       6 UNK         0.1400 
     43 CB          0.7379  -15.7393  -40.1691 C.3       6 UNK        -0.1800 
     44 N           0.5936  -14.6694  -42.3609 N.am      6 UNK        -0.5000 
     45 C           0.2011  -14.3791  -43.6096 C.2       5 UNK         0.5000 
     46 O          -0.6612  -15.0145  -44.2144 O.2       5 UNK        -0.5000 
     47 CA          0.9375  -13.2376  -44.3371 C.3       5 UNK         0.1400 
     48 CB          0.0965  -11.9540  -44.3178 C.3       5 UNK        -0.1800 
     49 N           2.2892  -12.9531  -43.8365 N.am      5 UNK        -0.5000 
     50 C           3.2993  -13.8386  -43.7901 C.2       4 UNK         0.5000 
     51 O           3.1767  -15.0053  -44.1642 O.2       4 UNK        -0.5000 
     52 CA          4.6564  -13.3663  -43.2312 C.3       4 UNK         0.1400 
     53 CB          5.8336  -13.9078  -44.0612 C.3       4 UNK        -0.1800 
     54 N           4.7535  -11.9081  -43.1691 N.am      4 UNK        -0.5000 
     55 C           4.5717  -11.1650  -42.0690 C.2       3 UNK         0.5000 
     56 O           4.2992  -11.6385  -40.9653 O.2       3 UNK        -0.5000 
     57 CA          4.7016   -9.6343  -42.2203 C.3       3 UNK         0.1400 
     58 CB          6.0821   -9.1638  -41.7368 C.3       3 UNK        -0.1800 
     59 N           4.4921   -9.1554  -43.5892 N.am      3 UNK        -0.5000 
     60 C           3.3257   -9.2003  -44.2465 C.2       2 UNK         0.5000 
     61 O           2.2847   -9.6254  -43.7443 O.2       2 UNK        -0.5000 
     62 CA          3.3176   -8.7367  -45.7195 C.3       2 UNK         0.1400 
     63 CB          4.5915   -7.9727  -46.1486 C.3       2 UNK        -0.1800 
     64 N           3.0640   -9.8549  -46.6343 N.am      2 UNK        -0.5000 
     65 C           3.7514  -11.0025  -46.7311 C.2       1 UNK         0.5000 
     66 O           4.7365  -11.2563  -46.0339 O.2       1 UNK        -0.5000 
     67 C          -1.7287  -23.2261  -47.9980 C.2       11 UNK         0.5000 
     68 O          -1.7810  -24.1305  -48.8338 O.2       11 UNK        -0.5000 
     69 N          -2.8031  -22.5518  -47.5627 N.am      12 UNK        -0.5000 
     70 CA         -4.1922  -22.8224  -47.9351 C.3       12 UNK         0.1400 
     71 CB         -5.1225  -21.9041  -47.1290 C.3       12 UNK        -0.1800 
     72 C          -4.6073  -24.2967  -47.7672 C.2       12 UNK         0.5000 
     73 O          -5.3324  -24.8124  -48.6181 O.2       12 UNK        -0.5000 
     74 N          -4.0992  -24.9455  -46.7110 N.am      13 UNK        -0.5000 
     75 CA         -4.2916  -26.3650  -46.4343 C.3       13 UNK         0.1400 
     76 CB         -4.5967  -26.5467  -44.9388 C.3       13 UNK        -0.1800 
     77 C          -3.0561  -27.1880  -46.8367 C.2       13 UNK         0.5000 
     78 O          -3.2052  -28.2071  -47.5102 O.2       13 UNK        -0.5000 
     79 N          -1.8618  -26.7440  -46.4178 N.am      14 UNK        -0.5000 
     80 CA         -0.6053  -27.4931  -46.5193 C.3       14 UNK         0.1400 
     81 CB          0.4659  -26.8104  -45.6545 C.3       14 UNK        -0.1800 
     82 C          -0.0936  -27.6772  -47.9579 C.2       14 UNK         0.5000 
     83 O           0.4504  -28.7363  -48.2732 O.2       14 UNK        -0.5000 
     84 N          -0.2869  -26.6563  -48.8008 N.am      15 UNK        -0.5000 
     85 CA          0.0419  -26.6765  -50.2282 C.3       15 UNK         0.1400 
     86 CB          0.8436  -25.4068  -50.5679 C.3       15 UNK        -0.1800 
     87 C          -1.2297  -26.7759  -51.0937 C.2       15 UNK         0.5000 
     88 O          -1.1252  -26.7553  -52.3205 O.2       15 UNK        -0.5000 
     89 N          -2.4021  -26.8556  -50.4422 N.am      16 UNK        -0.5000 
     90 CA         -3.7535  -26.8326  -51.0096 C.3       16 UNK         0.1400 
     91 CB         -4.0221  -28.1053  -51.8385 C.3       16 UNK        -0.1800 
     92 C          -4.0587  -25.5346  -51.7887 C.2       16 UNK         0.5000 
     93 O          -4.8616  -25.5535  -52.7241 O.2       16 UNK        -0.5000 
     94 N          -3.4221  -24.4203  -51.3898 N.am      17 UNK        -0.5000 
     95 CA         -3.4767  -23.1321  -52.0877 C.3       17 UNK         0.1400 
     96 CB         -2.4322  -22.1739  -51.4937 C.3       17 UNK        -0.1800 
     97 C          -4.8737  -22.4833  -52.1136 C.2       17 UNK         0.5000 
     98 O          -5.1139  -21.6188  -52.9567 O.2       17 UNK        -0.5000 
     99 N          -5.7880  -22.9377  -51.2418 N.am      18 UNK        -0.5000 
    100 CA        -7.1982  -22.5435  -51.2108 C.3       18 UNK         0.1400 
    101 CB        -7.8937  -23.2302  -50.0273 C.3       18 UNK        -0.1800 
    102 C         -7.9525  -22.8538  -52.5178 C.2       18 UNK         0.5000 
    103 O         -8.8734  -22.1156  -52.8664 O.2       18 UNK        -0.5000 
    104 N         -7.5167  -23.8913  -53.2496 N.am      19 UNK        -0.5000 
    105 CA        -8.0398  -24.2590  -54.5690 C.3       19 UNK         0.1400 
    106 CB        -7.4540  -25.6186  -54.9777 C.3       19 UNK        -0.1800 
    107 C         -7.7581  -23.2015  -55.6574 C.2       19 UNK         0.5000 
    108 O         -8.4959  -23.1348  -56.6410 O.2       19 UNK        -0.5000 
    109 N         -6.7146  -22.3881  -55.4507 N.am      20 UNK        -0.5000 
    110 CA        -6.3281  -21.2604  -56.2974 C.3       20 UNK         0.1400 
    111 CB        -4.8264  -21.3904  -56.6075 C.3       20 UNK        -0.1800 
    112 C         -6.6281  -19.9086  -55.6174 C.2       20 UNK         0.5000 
    113 O         -6.1958  -18.8740  -56.1276 O.2       20 UNK        -0.5000 
    114 N         -7.3073  -19.9314  -54.4577 N.am      21 UNK        -0.5000 
    115 CA        -7.5900  -18.7983  -53.5647 C.3       21 UNK         0.1400 
    116 CB        -8.6367  -17.8626  -54.2030 C.3       21 UNK        -0.1800 
    117 C         -6.3175  -18.0478  -53.1035 C.2       21 UNK         0.5000 
    118 O         -6.3559  -16.8349  -52.8902 O.2       21 UNK        -0.5000 
    119 N         -5.2053  -18.7858  -52.9855 N.am      22 UNK        -0.5000 
    120 CA        -3.8393  -18.2880  -52.7616 C.3       22 UNK         0.1400 
    121 C         -3.2563  -17.4385  -53.9381 C.2       22 UNK         0.5000 
    122 N         -3.8290  -17.4669  -55.1363 N.am      22 UNK        -0.7600 
    123 O         -2.2494  -16.7551  -53.7801 O.2       22 UNK        -0.5000 
    124 C124       -3.6553  -17.6272  -51.3594 C.3       23 UNK        -0.0398 
    125 S125       -2.3364  -18.4019  -50.3601 S.3       23 UNK        -0.2404 
    126 C126       -0.8590  -17.5613  -51.0104 C.3       23 UNK        -0.0205 
    127 H127       -1.1833  -11.2843  -47.3151 H         1 UNK         0.0600 
    128 H128       -0.6473  -12.9622  -47.4530 H         1 UNK         0.0600 
    129 H129       -1.0996  -12.0574  -48.9016 H         1 UNK         0.0600 
    130 H130        1.5447  -13.1740  -47.2666 H         1 UNK         0.3000 
    131 H131        3.4437  -11.6181  -48.7466 H         1 UNK         0.0600 
    132 H132        3.9702  -13.7980  -46.6628 H         1 UNK         0.0800 
    133 H133        5.1070  -13.1897  -47.8356 H         1 UNK         0.0800 
    134 H134        3.3103  -16.1679  -47.0348 H         1 UNK         0.0800 
    135 H135        1.8229  -15.2792  -47.2668 H         1 UNK         0.0800 
    136 H136        0.4586  -15.7633  -49.4362 H         1 UNK         0.1150 
    137 H137        0.5408  -19.8692  -50.6591 H         1 UNK         0.1150 
    138 H138        3.4841  -18.3904  -47.9124 H         1 UNK         0.1150 
    139 H139        2.5279  -21.2133  -50.1312 H         1 UNK         0.0800 
    140 H140        3.7983  -20.5630  -49.1288 H         1 UNK         0.0800 
    141 H141        0.3036  -22.0896  -49.2862 H         1 UNK         0.0800 
    142 H142       -0.1489  -20.8496  -48.1360 H         1 UNK         0.0800 
    143 H143        0.2251  -23.7880  -47.3836 H         1 UNK         0.0600 
    144 H144       -0.0633  -21.5645  -45.7251 H         1 UNK         0.3000 
    145 H145       -1.6449  -23.1864  -42.9138 H         1 UNK         0.0600 
    146 H146        0.3373  -22.0164  -41.9611 H         1 UNK         0.0600 
    147 H147        0.7985  -23.4635  -42.8446 H         1 UNK         0.0600 
    148 H148        1.0524  -21.8834  -43.5653 H         1 UNK         0.0600 
    149 H149       -1.0242  -20.4392  -43.7364 H         1 UNK         0.3000 
    150 H150       -4.3380  -19.6111  -44.5735 H         1 UNK         0.0600 
    151 H151       -4.5807  -19.4479  -42.1005 H         1 UNK         0.0600 
    152 H152       -4.1946  -17.8793  -42.7908 H         1 UNK         0.0600 
    153 H153       -2.9478  -18.8102  -41.9598 H         1 UNK         0.0600 
    154 H154       -1.9760  -18.0425  -44.1066 H         1 UNK         0.3000 
    155 H155       -0.4924  -18.4932  -47.3056 H         1 UNK         0.0600 
    156 H156       -2.1034  -16.1751  -46.1056 H         1 UNK         0.0600 
    157 H157       -2.1674  -16.7684  -47.7573 H         1 UNK         0.0600 
    158 H158       -0.7204  -15.9599  -47.1732 H         1 UNK         0.0600 
    159 H159        0.1851  -16.8703  -45.0580 H         1 UNK         0.3000 
    160 H160        1.8809  -19.2892  -43.1270 H         1 UNK         0.0600 
    161 H161        3.3041  -17.4691  -45.1333 H         1 UNK         0.0600 
    162 H162        3.5798  -19.1911  -44.9243 H         1 UNK         0.0600 
    163 H163        3.9976  -18.0746  -43.6309 H         1 UNK         0.0600 
    164 H164        2.0346  -16.4140  -43.2522 H         1 UNK         0.3000 
    165 H165       -0.9570  -15.7404  -41.4876 H         1 UNK         0.0600 
    166 H166        0.4524  -14.8151  -39.6657 H         1 UNK         0.0600 
    167 H167        0.3918  -16.5664  -39.5470 H         1 UNK         0.0600 
    168 H168        1.8277  -15.7845  -40.1993 H         1 UNK         0.0600 
    169 H169        1.3111  -14.0960  -41.9425 H         1 UNK         0.3000 
    170 H170        1.0398  -13.5600  -45.3732 H         1 UNK         0.0600 
    171 H171       -0.9221  -12.1434  -44.6606 H         1 UNK         0.0600 
    172 H172        0.0334  -11.5304  -43.3147 H         1 UNK         0.0600 
    173 H173        0.5202  -11.1964  -44.9772 H         1 UNK         0.0600 
    174 H174        2.4613  -12.0071  -43.5213 H         1 UNK         0.3000 
    175 H175        4.7417  -13.7897  -42.2287 H         1 UNK         0.0600 
    176 H176        5.8073  -13.5460  -45.0886 H         1 UNK         0.0600 
    177 H177        6.7877  -13.6074  -43.6283 H         1 UNK         0.0600 
    178 H178        5.8260  -14.9980  -44.0961 H         1 UNK         0.0600 
    179 H179        4.9246  -11.4433  -44.0566 H         1 UNK         0.3000 
    180 H180        3.9417   -9.1779  -41.5824 H         1 UNK         0.0600 
    181 H181        6.8848   -9.5756  -42.3501 H         1 UNK         0.0600 
    182 H182        6.2631   -9.4752  -40.7068 H         1 UNK         0.0600 
    183 H183        6.1611   -8.0768  -41.7646 H         1 UNK         0.0600 
    184 H184        5.3077   -8.8199  -44.0815 H         1 UNK         0.3000 
    185 H185        2.4722   -8.0539  -45.8198 H         1 UNK         0.0600 
    186 H186        4.7695   -7.1096  -45.5055 H         1 UNK         0.0600 
    187 H187        5.4829   -8.6012  -46.1211 H         1 UNK         0.0600 
    188 H188        4.4904   -7.5949  -47.1664 H         1 UNK         0.0600 
    189 H189        2.2563   -9.7572  -47.2438 H         1 UNK         0.3000 
    190 H190       -2.6548  -21.7589  -46.9460 H         1 UNK         0.3000 
    191 H191       -4.3006  -22.5685  -48.9880 H         1 UNK         0.0600 
    192 H192       -4.9381  -20.8550  -47.3606 H         1 UNK         0.0600 
    193 H193       -6.1704  -22.1027  -47.3516 H         1 UNK         0.0600 
    194 H194       -4.9879  -22.0407  -46.0562 H         1 UNK         0.0600 
    195 H195       -3.4636  -24.4483  -46.0985 H         1 UNK         0.3000 
    196 H196       -5.1457  -26.7479  -46.9973 H         1 UNK         0.0600 
    197 H197       -4.7338  -27.6005  -44.6924 H         1 UNK         0.0600 
    198 H198       -5.5130  -26.0258  -44.6603 H         1 UNK         0.0600 
    199 H199       -3.7916  -26.1628  -44.3106 H         1 UNK         0.0600 
    200 H200       -1.8156  -25.8749  -45.8881 H         1 UNK         0.3000 
    201 H201       -0.7833  -28.4887  -46.1071 H         1 UNK         0.0600 
    202 H202        0.1434  -26.7310  -44.6160 H         1 UNK         0.0600 
    203 H203        0.6930  -25.8055  -46.0117 H         1 UNK         0.0600 
    204 H204        1.3965  -27.3793  -45.6634 H         1 UNK         0.0600 
    205 H205       -0.7705  -25.8259  -48.4760 H         1 UNK         0.3000 
    206 H206        0.6628  -27.5416  -50.4691 H         1 UNK         0.0600 
    207 H207        1.7254  -25.3150  -49.9336 H         1 UNK         0.0600 
    208 H208        1.1899  -25.4293  -51.6019 H         1 UNK         0.0600 
    209 H209        0.2478  -24.5025  -50.4455 H         1 UNK         0.0600 
    210 H210       -2.3612  -26.8964  -49.4339 H         1 UNK         0.3000 
    211 H211       -4.4384  -26.8454  -50.1611 H         1 UNK         0.0600 
    212 H212       -3.4204  -28.1322  -52.7474 H         1 UNK         0.0600 
    213 H213       -5.0690  -28.1629  -52.1387 H         1 UNK         0.0600 
    214 H214       -3.8018  -29.0040  -51.2622 H         1 UNK         0.0600 
    215 H215       -2.7997  -24.4772  -50.5904 H         1 UNK         0.3000 
    216 H216       -3.1985  -23.3214  -53.1266 H         1 UNK         0.0600 
    217 H217       -2.3324  -21.2807  -52.1101 H         1 UNK         0.0600 
    218 H218       -1.4480  -22.6399  -51.4434 H         1 UNK         0.0600 
    219 H219       -2.6998  -21.8435  -50.4911 H         1 UNK         0.0600 
    220 H220       -5.5160  -23.6740  -50.6029 H         1 UNK         0.3000 
    221 H221       -7.2375  -21.4633  -51.0559 H         1 UNK         0.0600 
    222 H222       -7.8376  -24.3169  -50.1034 H         1 UNK         0.0600 
    223 H223       -7.4430  -22.9387  -49.0806 H         1 UNK         0.0600 
    224 H224       -8.9487  -22.9570  -49.9791 H         1 UNK         0.0600 
    225 H225       -6.7302  -24.4346  -52.9111 H         1 UNK         0.3000 
    226 H226       -9.1233  -24.3638  -54.4842 H         1 UNK         0.0600 
    227 H227       -7.6864  -26.3873  -54.2405 H         1 UNK         0.0600 
    228 H228       -7.8629  -25.9496  -55.9332 H         1 UNK         0.0600 
    229 H229       -6.3693  -25.5729  -55.0829 H         1 UNK         0.0600 
    230 H230       -6.1752  -22.4969  -54.6001 H         1 UNK         0.3000 
    231 H231       -6.8782  -21.2780  -57.2401 H         1 UNK         0.0600 
    232 H232       -4.6050  -22.3435  -57.0879 H         1 UNK         0.0600 
    233 H233       -4.2219  -21.3231  -55.7018 H         1 UNK         0.0600 
    234 H234       -4.4929  -20.6032  -57.2847 H         1 UNK         0.0600 
    235 H235       -7.6399  -20.8282  -54.1272 H         1 UNK         0.3000 
    236 H236       -8.0323  -19.2242  -52.6631 H         1 UNK         0.0600 
    237 H237       -8.9565  -17.0931  -53.4995 H         1 UNK         0.0600 
    238 H238       -8.2422  -17.3569  -55.0847 H         1 UNK         0.0600 
    239 H239       -9.5270  -18.4151  -54.5033 H         1 UNK         0.0600 
    240 H240       -5.2735  -19.7884  -53.1451 H         1 UNK         0.3000 
    241 H241       -3.2365  -19.1949  -52.7873 H         1 UNK         0.0600 
    242 H242       -3.4291  -16.9167  -55.8793 H         1 UNK         0.3800 
    243 H243       -4.6713  -18.0044  -55.3170 H         1 UNK         0.3800 
    244 H244       -4.5686  -17.7228  -50.7712 H         1 UNK         0.0800 
    245 H245       -3.4841  -16.5518  -51.4290 H         1 UNK         0.0800 
    246 H246       -1.0595  -16.4931  -51.1057 H         1 UNK         0.0800 
    247 H247       -0.6491  -17.9293  -52.0152 H         1 UNK         0.0800 
@<TRIPOS>BOND
     1    1    2 1    
     2    1  127 1    
     3    1  128 1    
     4    1  129 1    
     5    2    3 2    
     6    2    4 am   BACKBONE|DICT|INTERRES
     7    4    5 1    
     8    4  130 1    
     9    5    6 1    
    10    5   65 1    
    11    5  131 1    
    12    6    7 1    
    13    6  132 1    
    14    6  133 1    
    15    7    8 1    
    16    8    9 1    
    17    8  134 1    
    18    8  135 1    
    19    9   10 ar   
    20    9   14 ar   
    21   10   11 ar   
    22   10  136 1    
    23   11   12 ar   
    24   11  126 1    
    25   12   13 ar   
    26   12  137 1    
    27   13   14 ar   
    28   13   15 1    
    29   14  138 1    
    30   15   16 1    
    31   15  139 1    
    32   15  140 1    
    33   16   17 1    
    34   17   18 1    
    35   17  141 1    
    36   17  142 1    
    37   18   19 1    
    38   18   67 1    
    39   18  143 1    
    40   19   20 am   BACKBONE|DICT|INTERRES
    41   19  144 1    
    42   20   21 2    
    43   20   22 1    
    44   22   23 1    
    45   22   24 1    
    46   22  145 1    
    47   23  146 1    
    48   23  147 1    
    49   23  148 1    
    50   24   25 am   BACKBONE|DICT|INTERRES
    51   24  149 1    
    52   25   26 2    
    53   25   27 1    
    54   27   28 1    
    55   27   29 1    
    56   27  150 1    
    57   28  151 1    
    58   28  152 1    
    59   28  153 1    
    60   29   30 am   BACKBONE|DICT|INTERRES
    61   29  154 1    
    62   30   31 2    
    63   30   32 1    
    64   32   33 1    
    65   32   34 1    
    66   32  155 1    
    67   33  156 1    
    68   33  157 1    
    69   33  158 1    
    70   34   35 am   BACKBONE|DICT|INTERRES
    71   34  159 1    
    72   35   36 2    
    73   35   37 1    
    74   37   38 1    
    75   37   39 1    
    76   37  160 1    
    77   38  161 1    
    78   38  162 1    
    79   38  163 1    
    80   39   40 am   BACKBONE|DICT|INTERRES
    81   39  164 1    
    82   40   41 2    
    83   40   42 1    
    84   42   43 1    
    85   42   44 1    
    86   42  165 1    
    87   43  166 1    
    88   43  167 1    
    89   43  168 1    
    90   44   45 am   BACKBONE|DICT|INTERRES
    91   44  169 1    
    92   45   46 2    
    93   45   47 1    
    94   47   48 1    
    95   47   49 1    
    96   47  170 1    
    97   48  171 1    
    98   48  172 1    
    99   48  173 1    
   100   49   50 am   BACKBONE|DICT|INTERRES
   101   49  174 1    
   102   50   51 2    
   103   50   52 1    
   104   52   53 1    
   105   52   54 1    
   106   52  175 1    
   107   53  176 1    
   108   53  177 1    
   109   53  178 1    
   110   54   55 am   BACKBONE|DICT|INTERRES
   111   54  179 1    
   112   55   56 2    
   113   55   57 1    
   114   57   58 1    
   115   57   59 1    
   116   57  180 1    
   117   58  181 1    
   118   58  182 1    
   119   58  183 1    
   120   59   60 am   BACKBONE|DICT|INTERRES
   121   59  184 1    
   122   60   61 2    
   123   60   62 1    
   124   62   63 1    
   125   62   64 1    
   126   62  185 1    
   127   63  186 1    
   128   63  187 1    
   129   63  188 1    
   130   64   65 am   BACKBONE|DICT|INTERRES
   131   64  189 1    
   132   65   66 2    
   133   67   68 2    
   134   67   69 am   BACKBONE|DICT|INTERRES
   135   69   70 1    
   136   69  190 1    
   137   70   71 1    
   138   70   72 1    
   139   70  191 1    
   140   71  192 1    
   141   71  193 1    
   142   71  194 1    
   143   72   73 2    
   144   72   74 am   BACKBONE|DICT|INTERRES
   145   74   75 1    
   146   74  195 1    
   147   75   76 1    
   148   75   77 1    
   149   75  196 1    
   150   76  197 1    
   151   76  198 1    
   152   76  199 1    
   153   77   78 2    
   154   77   79 am   BACKBONE|DICT|INTERRES
   155   79   80 1    
   156   79  200 1    
   157   80   81 1    
   158   80   82 1    
   159   80  201 1    
   160   81  202 1    
   161   81  203 1    
   162   81  204 1    
   163   82   83 2    
   164   82   84 am   BACKBONE|DICT|INTERRES
   165   84   85 1    
   166   84  205 1    
   167   85   86 1    
   168   85   87 1    
   169   85  206 1    
   170   86  207 1    
   171   86  208 1    
   172   86  209 1    
   173   87   88 2    
   174   87   89 am   BACKBONE|DICT|INTERRES
   175   89   90 1    
   176   89  210 1    
   177   90   91 1    
   178   90   92 1    
   179   90  211 1    
   180   91  212 1    
   181   91  213 1    
   182   91  214 1    
   183   92   93 2    
   184   92   94 am   BACKBONE|DICT|INTERRES
   185   94   95 1    
   186   94  215 1    
   187   95   96 1    
   188   95   97 1    
   189   95  216 1    
   190   96  217 1    
   191   96  218 1    
   192   96  219 1    
   193   97   98 2    
   194   97   99 am   BACKBONE|DICT|INTERRES
   195   99  100 1    
   196   99  220 1    
   197  100  101 1    
   198  100  102 1    
   199  100  221 1    
   200  101  222 1    
   201  101  223 1    
   202  101  224 1    
   203  102  103 2    
   204  102  104 am   BACKBONE|DICT|INTERRES
   205  104  105 1    
   206  104  225 1    
   207  105  106 1    
   208  105  107 1    
   209  105  226 1    
   210  106  227 1    
   211  106  228 1    
   212  106  229 1    
   213  107  108 2    
   214  107  109 am   BACKBONE|DICT|INTERRES
   215  109  110 1    
   216  109  230 1    
   217  110  111 1    
   218  110  112 1    
   219  110  231 1    
   220  111  232 1    
   221  111  233 1    
   222  111  234 1    
   223  112  113 2    
   224  112  114 am   BACKBONE|DICT|INTERRES
   225  114  115 1    
   226  114  235 1    
   227  115  116 1    
   228  115  117 1    
   229  115  236 1    
   230  116  237 1    
   231  116  238 1    
   232  116  239 1    
   233  117  118 2    
   234  117  119 am   BACKBONE|DICT|INTERRES
   235  119  120 1    
   236  119  240 1    
   237  120  121 1    
   238  120  124 1    
   239  120  241 1    
   240  121  122 am   BACKBONE|DICT|INTERRES
   241  121  123 2    
   242  122  242 1    
   243  122  243 1    
   244  124  125 1    
   245  124  244 1    
   246  124  245 1    
   247  125  126 1    
   248  126  246 1    
   249  126  247 1    
@<TRIPOS>SUBSTRUCTURE
     1 UNK         1 GROUP             0       ****    0 ROOT    
