@<TRIPOS>MOLECULE
3R540
247   249    1
SMALL
USER_CHARGES


@<TRIPOS>ATOM
      1 CA         -0.1403   -7.5172  -45.2775 C.3       0 UNK        -0.1800 
      2 C           0.2983   -8.9612  -45.4743 C.2       0 UNK         0.5000 
      3 O           1.4860   -9.2210  -45.6731 O.2       0 UNK        -0.5000 
      4 N          -0.6510   -9.9033  -45.4165 N.am      1 UNK        -0.5000 
      5 CA         -0.4273  -11.3448  -45.5712 C.3       1 UNK         0.1400 
      6 C6         -1.7002  -12.0834  -46.0525 C.3       23 UNK        -0.0398 
      7 S7         -2.2497  -11.5213  -47.6988 S.3       23 UNK        -0.2404 
      8 C8         -3.9866  -12.0657  -47.6946 C.3       23 UNK        -0.0205 
      9 C9         -4.1039  -13.5776  -47.8168 C.ar      23 UNK        -0.0193 
     10 C10        -4.1990  -14.1762  -49.0774 C.ar      23 UNK        -0.1150 
     11 C11        -4.3144  -15.5644  -49.1965 C.ar      23 UNK        -0.0193 
     12 C12        -4.3145  -16.3537  -48.0444 C.ar      23 UNK        -0.1150 
     13 C13        -4.2247  -15.7673  -46.7785 C.ar      23 UNK        -0.0193 
     14 C14        -4.1277  -14.3780  -46.6703 C.ar      23 UNK        -0.1150 
     15 C15        -4.2181  -16.6429  -45.5366 C.3       23 UNK        -0.0205 
     16 S16        -5.7848  -17.5527  -45.3637 S.3       23 UNK        -0.2404 
     17 C17        -5.2836  -18.9773  -44.3431 C.3       23 UNK        -0.0398 
     18 CA         -4.8462  -20.1770  -45.2187 C.3       11 UNK         0.1400 
     19 N          -3.5434  -19.9603  -45.8555 N.am      11 UNK        -0.5000 
     20 C          -3.1236  -20.6105  -46.9492 C.2       10 UNK         0.5000 
     21 O          -3.8073  -21.4374  -47.5477 O.2       10 UNK        -0.5000 
     22 CA         -1.6907  -20.3343  -47.4405 C.3       10 UNK         0.1400 
     23 CB         -1.6937  -19.2514  -48.5282 C.3       10 UNK        -0.1800 
     24 N          -0.7787  -19.9535  -46.3615 N.am      10 UNK        -0.5000 
     25 C          -0.4322  -20.7641  -45.3498 C.2       9 UNK         0.5000 
     26 O          -0.8176  -21.9292  -45.2572 O.2       9 UNK        -0.5000 
     27 CA          0.4345  -20.1722  -44.2221 C.3       9 UNK         0.1400 
     28 CB          1.9082  -20.5582  -44.4141 C.3       9 UNK        -0.1800 
     29 N           0.3299  -18.7175  -44.0967 N.am      9 UNK        -0.5000 
     30 C          -0.7873  -18.0401  -43.7932 C.2       8 UNK         0.5000 
     31 O          -1.8775  -18.5761  -43.5909 O.2       8 UNK        -0.5000 
     32 CA         -0.6683  -16.5036  -43.7621 C.3       8 UNK         0.1400 
     33 CB         -0.3366  -16.0336  -42.3391 C.3       8 UNK        -0.1800 
     34 N           0.3323  -15.9921  -44.7077 N.am      8 UNK        -0.5000 
     35 C           0.2271  -16.1116  -46.0411 C.2       7 UNK         0.5000 
     36 O          -0.7328  -16.6382  -46.6000 O.2       7 UNK        -0.5000 
     37 CA          1.4149  -15.6278  -46.8857 C.3       7 UNK         0.1400 
     38 CB          1.3239  -14.1258  -47.1782 C.3       7 UNK        -0.1800 
     39 N           2.6871  -15.9092  -46.2277 N.am      7 UNK        -0.5000 
     40 C           3.3399  -17.0760  -46.3064 C.2       6 UNK         0.5000 
     41 O           2.9088  -18.0487  -46.9262 O.2       6 UNK        -0.5000 
     42 CA          4.6836  -17.1805  -45.5523 C.3       6 UNK         0.1400 
     43 CB          5.6944  -18.1063  -46.2594 C.3       6 UNK        -0.1800 
     44 N           5.2841  -15.8773  -45.2420 N.am      6 UNK        -0.5000 
     45 C           5.7268  -14.9436  -46.1011 C.2       5 UNK         0.5000 
     46 O           5.7632  -15.0987  -47.3219 O.2       5 UNK        -0.5000 
     47 CA          6.1635  -13.5879  -45.5066 C.3       5 UNK         0.1400 
     48 CB          5.2280  -12.4657  -45.9891 C.3       5 UNK        -0.1800 
     49 N           6.1631  -13.5892  -44.0431 N.am      5 UNK        -0.5000 
     50 C           7.1754  -14.0050  -43.2700 C.2       4 UNK         0.5000 
     51 O           8.2716  -14.3572  -43.7055 O.2       4 UNK        -0.5000 
     52 CA          6.8987  -14.0678  -41.7539 C.3       4 UNK         0.1400 
     53 CB          7.3561  -12.7700  -41.0710 C.3       4 UNK        -0.1800 
     54 N           5.4859  -14.3019  -41.4357 N.am      4 UNK        -0.5000 
     55 C           4.8095  -15.4257  -41.7178 C.2       3 UNK         0.5000 
     56 O           5.3166  -16.4106  -42.2521 O.2       3 UNK        -0.5000 
     57 CA          3.2996  -15.4218  -41.4214 C.3       3 UNK         0.1400 
     58 CB          3.0205  -15.9218  -39.9968 C.3       3 UNK        -0.1800 
     59 N           2.7053  -14.0948  -41.5995 N.am      3 UNK        -0.5000 
     60 C           2.5134  -13.5073  -42.7869 C.2       2 UNK         0.5000 
     61 O           2.7246  -14.0670  -43.8678 O.2       2 UNK        -0.5000 
     62 CA          2.0895  -12.0286  -42.7386 C.3       2 UNK         0.1400 
     63 CB          3.3269  -11.1334  -42.5651 C.3       2 UNK        -0.1800 
     64 N           1.3781  -11.6018  -43.9400 N.am      2 UNK        -0.5000 
     65 C           0.1255  -11.9435  -44.2594 C.2       1 UNK         0.5000 
     66 O          -0.5876  -12.6564  -43.5525 O.2       1 UNK        -0.5000 
     67 C          -4.8543  -21.4924  -44.4160 C.2       11 UNK         0.5000 
     68 O          -5.8709  -22.1865  -44.4105 O.2       11 UNK        -0.5000 
     69 N          -3.7184  -21.8381  -43.7919 N.am      12 UNK        -0.5000 
     70 CA         -3.5228  -23.1034  -43.0805 C.3       12 UNK         0.1400 
     71 CB         -2.2699  -23.0069  -42.1962 C.3       12 UNK        -0.1800 
     72 C          -3.4271  -24.3007  -44.0452 C.2       12 UNK         0.5000 
     73 O          -3.9968  -25.3563  -43.7683 O.2       12 UNK        -0.5000 
     74 N          -2.7324  -24.1013  -45.1733 N.am      13 UNK        -0.5000 
     75 CA         -2.5609  -25.0862  -46.2430 C.3       13 UNK         0.1400 
     76 CB         -1.3193  -24.6989  -47.0626 C.3       13 UNK        -0.1800 
     77 C          -3.7860  -25.2199  -47.1708 C.2       13 UNK         0.5000 
     78 O          -3.8000  -26.1209  -48.0109 O.2       13 UNK        -0.5000 
     79 N          -4.7588  -24.3034  -47.0504 N.am      14 UNK        -0.5000 
     80 CA         -5.9521  -24.1573  -47.8939 C.3       14 UNK         0.1400 
     81 CB         -6.9246  -25.3334  -47.6688 C.3       14 UNK        -0.1800 
     82 C          -5.5841  -23.9545  -49.3789 C.2       14 UNK         0.5000 
     83 O          -6.1046  -24.6483  -50.2533 O.2       14 UNK        -0.5000 
     84 N          -4.6310  -23.0426  -49.6198 N.am      15 UNK        -0.5000 
     85 CA         -3.9900  -22.7358  -50.9024 C.3       15 UNK         0.1400 
     86 CB         -4.9869  -22.0414  -51.8498 C.3       15 UNK        -0.1800 
     87 C          -3.2940  -23.9644  -51.5285 C.2       15 UNK         0.5000 
     88 O          -3.3508  -24.1582  -52.7451 O.2       15 UNK        -0.5000 
     89 N          -2.6745  -24.7795  -50.6600 N.am      16 UNK        -0.5000 
     90 CA         -2.0664  -26.0878  -50.9264 C.3       16 UNK         0.1400 
     91 CB         -0.8313  -25.9479  -51.8387 C.3       16 UNK        -0.1800 
     92 C          -3.1070  -27.0876  -51.4651 C.2       16 UNK         0.5000 
     93 O          -2.9074  -27.6768  -52.5266 O.2       16 UNK        -0.5000 
     94 N          -4.2366  -27.2019  -50.7506 N.am      17 UNK        -0.5000 
     95 CA         -5.4515  -27.9304  -51.1430 C.3       17 UNK         0.1400 
     96 CB         -5.2165  -29.4531  -51.0715 C.3       17 UNK        -0.1800 
     97 C          -5.9936  -27.4628  -52.5143 C.2       17 UNK         0.5000 
     98 O          -6.3426  -28.2823  -53.3656 O.2       17 UNK        -0.5000 
     99 N          -5.9971  -26.1359  -52.7008 N.am      18 UNK        -0.5000 
    100 CA        -6.3398  -25.3735  -53.9046 C.3       18 UNK         0.1400 
    101 CB        -7.8166  -25.5946  -54.2901 C.3       18 UNK        -0.1800 
    102 C         -5.3900  -25.5648  -55.1095 C.2       18 UNK         0.5000 
    103 O         -5.6771  -25.0176  -56.1753 O.2       18 UNK        -0.5000 
    104 N         -4.2788  -26.3004  -54.9515 N.am      19 UNK        -0.5000 
    105 CA        -3.3297  -26.5777  -56.0326 C.3       19 UNK         0.1400 
    106 CB        -2.4915  -27.8178  -55.6888 C.3       19 UNK        -0.1800 
    107 C         -2.4109  -25.3859  -56.3551 C.2       19 UNK         0.5000 
    108 O         -2.0370  -25.2185  -57.5169 O.2       19 UNK        -0.5000 
    109 N         -2.0581  -24.5844  -55.3398 N.am      20 UNK        -0.5000 
    110 CA        -1.2132  -23.3974  -55.4985 C.3       20 UNK         0.1400 
    111 CB        -0.3749  -23.1826  -54.2285 C.3       20 UNK        -0.1800 
    112 C         -2.0384  -22.1391  -55.8117 C.2       20 UNK         0.5000 
    113 O         -1.4942  -21.1872  -56.3732 O.2       20 UNK        -0.5000 
    114 N         -3.3226  -22.1419  -55.4184 N.am      21 UNK        -0.5000 
    115 CA        -4.3210  -21.0829  -55.6306 C.3       21 UNK         0.1400 
    116 CB        -4.6937  -20.9995  -57.1248 C.3       21 UNK        -0.1800 
    117 C         -3.9178  -19.7089  -55.0429 C.2       21 UNK         0.5000 
    118 O         -4.3729  -18.6732  -55.5307 O.2       21 UNK        -0.5000 
    119 N         -3.0623  -19.7293  -54.0102 N.am      22 UNK        -0.5000 
    120 CA        -2.4177  -18.5608  -53.3873 C.3       22 UNK         0.1400 
    121 C         -1.3379  -17.8702  -54.2819 C.2       22 UNK         0.5000 
    122 N         -0.8585  -18.4955  -55.3520 N.am      22 UNK        -0.7600 
    123 O         -0.9011  -16.7593  -53.9950 O.2       22 UNK        -0.5000 
    124 C124       -3.4471  -17.5649  -52.7758 C.3       23 UNK        -0.0398 
    125 S125       -2.8844  -16.8238  -51.2059 S.3       23 UNK        -0.2404 
    126 C126       -4.4708  -16.2140  -50.5620 C.3       23 UNK        -0.0205 
    127 H127       -1.2155   -7.4384  -45.1151 H         1 UNK         0.0600 
    128 H128        0.1153   -6.9249  -46.1560 H         1 UNK         0.0600 
    129 H129        0.3669   -7.0858  -44.4145 H         1 UNK         0.0600 
    130 H130       -1.6066   -9.6290  -45.2390 H         1 UNK         0.3000 
    131 H131        0.3371  -11.4877  -46.3374 H         1 UNK         0.0600 
    132 H132       -1.5196  -13.1584  -46.1111 H         1 UNK         0.0800 
    133 H133       -2.5121  -11.9449  -45.3364 H         1 UNK         0.0800 
    134 H134       -4.4845  -11.7154  -46.7892 H         1 UNK         0.0800 
    135 H135       -4.5049  -11.5878  -48.5272 H         1 UNK         0.0800 
    136 H136       -4.1895  -13.5604  -49.9659 H         1 UNK         0.1150 
    137 H137       -4.3969  -17.4282  -48.1307 H         1 UNK         0.1150 
    138 H138       -4.0604  -13.9194  -45.6940 H         1 UNK         0.1150 
    139 H139       -3.3774  -17.3300  -45.6146 H         1 UNK         0.0800 
    140 H140       -4.0515  -16.0505  -44.6360 H         1 UNK         0.0800 
    141 H141       -6.1502  -19.2433  -43.7347 H         1 UNK         0.0800 
    142 H142       -4.5023  -18.6840  -43.6410 H         1 UNK         0.0800 
    143 H143       -5.5917  -20.2984  -46.0084 H         1 UNK         0.0600 
    144 H144       -2.9082  -19.3301  -45.3827 H         1 UNK         0.3000 
    145 H145       -1.3130  -21.2569  -47.8855 H         1 UNK         0.0600 
    146 H146       -0.6906  -19.0759  -48.9168 H         1 UNK         0.0600 
    147 H147       -2.3226  -19.5436  -49.3703 H         1 UNK         0.0600 
    148 H148       -2.0760  -18.3029  -48.1515 H         1 UNK         0.0600 
    149 H149       -0.4483  -18.9974  -46.3624 H         1 UNK         0.3000 
    150 H150        0.0869  -20.6092  -43.2838 H         1 UNK         0.0600 
    151 H151        2.0247  -21.6422  -44.4500 H         1 UNK         0.0600 
    152 H152        2.5246  -20.1935  -43.5922 H         1 UNK         0.0600 
    153 H153        2.3123  -20.1561  -45.3433 H         1 UNK         0.0600 
    154 H154        1.1692  -18.1887  -44.2774 H         1 UNK         0.3000 
    155 H155       -1.6356  -16.0831  -44.0423 H         1 UNK         0.0600 
    156 H156       -1.1376  -16.3009  -41.6488 H         1 UNK         0.0600 
    157 H157       -0.2173  -14.9523  -42.2897 H         1 UNK         0.0600 
    158 H158        0.5767  -16.4937  -41.9654 H         1 UNK         0.0600 
    159 H159        1.1411  -15.5193  -44.3240 H         1 UNK         0.3000 
    160 H160        1.3766  -16.1551  -47.8416 H         1 UNK         0.0600 
    161 H161        1.4680  -13.5398  -46.2728 H         1 UNK         0.0600 
    162 H162        0.3554  -13.8635  -47.6061 H         1 UNK         0.0600 
    163 H163        2.0888  -13.8207  -47.8925 H         1 UNK         0.0600 
    164 H164        3.0663  -15.1761  -45.6398 H         1 UNK         0.3000 
    165 H165        4.4456  -17.6361  -44.5903 H         1 UNK         0.0600 
    166 H166        5.9205  -17.7655  -47.2700 H         1 UNK         0.0600 
    167 H167        6.6314  -18.1622  -45.7054 H         1 UNK         0.0600 
    168 H168        5.3052  -19.1220  -46.3385 H         1 UNK         0.0600 
    169 H169        5.3303  -15.6648  -44.2535 H         1 UNK         0.3000 
    170 H170        7.1708  -13.3756  -45.8708 H         1 UNK         0.0600 
    171 H171        5.2363  -12.3892  -47.0771 H         1 UNK         0.0600 
    172 H172        4.1957  -12.6384  -45.6828 H         1 UNK         0.0600 
    173 H173        5.5375  -11.4972  -45.5959 H         1 UNK         0.0600 
    174 H174        5.2953  -13.3321  -43.5978 H         1 UNK         0.3000 
    175 H175        7.4807  -14.8965  -41.3452 H         1 UNK         0.0600 
    176 H176        6.7925  -11.9066  -41.4271 H         1 UNK         0.0600 
    177 H177        7.2339  -12.8289  -39.9893 H         1 UNK         0.0600 
    178 H178        8.4116  -12.5766  -41.2670 H         1 UNK         0.0600 
    179 H179        4.9939  -13.5450  -40.9853 H         1 UNK         0.3000 
    180 H180        2.8326  -16.1120  -42.1261 H         1 UNK         0.0600 
    181 H181        3.4639  -15.2680  -39.2448 H         1 UNK         0.0600 
    182 H182        3.4313  -16.9211  -39.8467 H         1 UNK         0.0600 
    183 H183        1.9495  -15.9794  -39.8018 H         1 UNK         0.0600 
    184 H184        2.4983  -13.5786  -40.7562 H         1 UNK         0.3000 
    185 H185        1.4292  -11.8845  -41.8808 H         1 UNK         0.0600 
    186 H186        3.8764  -11.3853  -41.6574 H         1 UNK         0.0600 
    187 H187        4.0160  -11.2292  -43.4049 H         1 UNK         0.0600 
    188 H188        3.0433  -10.0835  -42.4871 H         1 UNK         0.0600 
    189 H189        1.8665  -10.9664  -44.5604 H         1 UNK         0.3000 
    190 H190       -2.9188  -21.2254  -43.8604 H         1 UNK         0.3000 
    191 H191       -4.3838  -23.2670  -42.4287 H         1 UNK         0.0600 
    192 H192       -1.3660  -22.8518  -42.7856 H         1 UNK         0.0600 
    193 H193       -2.3515  -22.1847  -41.4850 H         1 UNK         0.0600 
    194 H194       -2.1303  -23.9223  -41.6199 H         1 UNK         0.0600 
    195 H195       -2.2264  -23.2261  -45.2816 H         1 UNK         0.3000 
    196 H196       -2.3826  -26.0650  -45.7931 H         1 UNK         0.0600 
    197 H197       -0.4371  -24.6198  -46.4268 H         1 UNK         0.0600 
    198 H198       -1.4532  -23.7410  -47.5663 H         1 UNK         0.0600 
    199 H199       -1.0996  -25.4470  -47.8245 H         1 UNK         0.0600 
    200 H200       -4.6279  -23.5807  -46.3567 H         1 UNK         0.3000 
    201 H201       -6.4520  -23.2431  -47.5706 H         1 UNK         0.0600 
    202 H202       -7.8560  -25.1786  -48.2144 H         1 UNK         0.0600 
    203 H203       -7.1792  -25.4357  -46.6139 H         1 UNK         0.0600 
    204 H204       -6.5034  -26.2813  -48.0051 H         1 UNK         0.0600 
    205 H205       -4.2904  -22.5034  -48.8223 H         1 UNK         0.3000 
    206 H206       -3.1936  -22.0223  -50.6863 H         1 UNK         0.0600 
    207 H207       -5.3487  -21.1081  -51.4183 H         1 UNK         0.0600 
    208 H208       -5.8532  -22.6659  -52.0622 H         1 UNK         0.0600 
    209 H209       -4.5182  -21.7962  -52.7993 H         1 UNK         0.0600 
    210 H210       -2.7422  -24.5356  -49.6832 H         1 UNK         0.3000 
    211 H211       -1.7268  -26.4797  -49.9671 H         1 UNK         0.0600 
    212 H212       -0.1355  -25.2026  -51.4538 H         1 UNK         0.0600 
    213 H213       -0.2926  -26.8934  -51.9079 H         1 UNK         0.0600 
    214 H214       -1.1076  -25.6605  -52.8520 H         1 UNK         0.0600 
    215 H215       -4.2940  -26.6874  -49.8764 H         1 UNK         0.3000 
    216 H216       -6.2155  -27.6756  -50.4070 H         1 UNK         0.0600 
    217 H217       -6.1423  -29.9999  -51.2535 H         1 UNK         0.0600 
    218 H218       -4.4885  -29.7864  -51.8117 H         1 UNK         0.0600 
    219 H219       -4.8534  -29.7489  -50.0873 H         1 UNK         0.0600 
    220 H220       -5.7434  -25.5661  -51.8974 H         1 UNK         0.3000 
    221 H221       -6.2348  -24.3266  -53.6227 H         1 UNK         0.0600 
    222 H222       -7.9940  -26.6069  -54.6536 H         1 UNK         0.0600 
    223 H223       -8.4758  -25.4219  -53.4393 H         1 UNK         0.0600 
    224 H224       -8.1236  -24.9077  -55.0795 H         1 UNK         0.0600 
    225 H225       -4.0720  -26.7068  -54.0461 H         1 UNK         0.3000 
    226 H226       -3.9013  -26.8089  -56.9341 H         1 UNK         0.0600 
    227 H227       -3.1233  -28.6593  -55.4038 H         1 UNK         0.0600 
    228 H228       -1.8961  -28.1319  -56.5469 H         1 UNK         0.0600 
    229 H229       -1.7986  -27.6224  -54.8700 H         1 UNK         0.0600 
    230 H230       -2.4457  -24.7507  -54.4156 H         1 UNK         0.3000 
    231 H231       -0.5195  -23.5481  -56.3284 H         1 UNK         0.0600 
    232 H232        0.2707  -22.3093  -54.3309 H         1 UNK         0.0600 
    233 H233        0.2721  -24.0382  -54.0361 H         1 UNK         0.0600 
    234 H234       -0.9976  -23.0250  -53.3484 H         1 UNK         0.0600 
    235 H235       -3.6524  -22.9681  -54.9381 H         1 UNK         0.3000 
    236 H236       -5.2160  -21.3923  -55.0894 H         1 UNK         0.0600 
    237 H237       -4.9894  -21.9754  -57.5104 H         1 UNK         0.0600 
    238 H238       -5.5333  -20.3220  -57.2845 H         1 UNK         0.0600 
    239 H239       -3.8611  -20.6381  -57.7292 H         1 UNK         0.0600 
    240 H240       -2.7287  -20.6285  -53.6982 H         1 UNK         0.3000 
    241 H241       -1.8476  -18.9912  -52.5633 H         1 UNK         0.0600 
    242 H242       -0.1567  -18.0379  -55.9115 H         1 UNK         0.3800 
    243 H243       -1.1887  -19.4159  -55.6265 H         1 UNK         0.3800 
    244 H244       -3.7041  -16.7741  -53.4828 H         1 UNK         0.0800 
    245 H245       -4.3817  -18.0863  -52.5642 H         1 UNK         0.0800 
    246 H246       -5.1774  -17.0424  -50.4908 H         1 UNK         0.0800 
    247 H247       -4.8989  -15.5037  -51.2711 H         1 UNK         0.0800 
@<TRIPOS>BOND
     1    1    2 1    
     2    1  127 1    
     3    1  128 1    
     4    1  129 1    
     5    2    3 2    
     6    2    4 am   BACKBONE|DICT|INTERRES
     7    4    5 1    
     8    4  130 1    
     9    5    6 1    
    10    5   65 1    
    11    5  131 1    
    12    6    7 1    
    13    6  132 1    
    14    6  133 1    
    15    7    8 1    
    16    8    9 1    
    17    8  134 1    
    18    8  135 1    
    19    9   10 ar   
    20    9   14 ar   
    21   10   11 ar   
    22   10  136 1    
    23   11   12 ar   
    24   11  126 1    
    25   12   13 ar   
    26   12  137 1    
    27   13   14 ar   
    28   13   15 1    
    29   14  138 1    
    30   15   16 1    
    31   15  139 1    
    32   15  140 1    
    33   16   17 1    
    34   17   18 1    
    35   17  141 1    
    36   17  142 1    
    37   18   19 1    
    38   18   67 1    
    39   18  143 1    
    40   19   20 am   BACKBONE|DICT|INTERRES
    41   19  144 1    
    42   20   21 2    
    43   20   22 1    
    44   22   23 1    
    45   22   24 1    
    46   22  145 1    
    47   23  146 1    
    48   23  147 1    
    49   23  148 1    
    50   24   25 am   BACKBONE|DICT|INTERRES
    51   24  149 1    
    52   25   26 2    
    53   25   27 1    
    54   27   28 1    
    55   27   29 1    
    56   27  150 1    
    57   28  151 1    
    58   28  152 1    
    59   28  153 1    
    60   29   30 am   BACKBONE|DICT|INTERRES
    61   29  154 1    
    62   30   31 2    
    63   30   32 1    
    64   32   33 1    
    65   32   34 1    
    66   32  155 1    
    67   33  156 1    
    68   33  157 1    
    69   33  158 1    
    70   34   35 am   BACKBONE|DICT|INTERRES
    71   34  159 1    
    72   35   36 2    
    73   35   37 1    
    74   37   38 1    
    75   37   39 1    
    76   37  160 1    
    77   38  161 1    
    78   38  162 1    
    79   38  163 1    
    80   39   40 am   BACKBONE|DICT|INTERRES
    81   39  164 1    
    82   40   41 2    
    83   40   42 1    
    84   42   43 1    
    85   42   44 1    
    86   42  165 1    
    87   43  166 1    
    88   43  167 1    
    89   43  168 1    
    90   44   45 am   BACKBONE|DICT|INTERRES
    91   44  169 1    
    92   45   46 2    
    93   45   47 1    
    94   47   48 1    
    95   47   49 1    
    96   47  170 1    
    97   48  171 1    
    98   48  172 1    
    99   48  173 1    
   100   49   50 am   BACKBONE|DICT|INTERRES
   101   49  174 1    
   102   50   51 2    
   103   50   52 1    
   104   52   53 1    
   105   52   54 1    
   106   52  175 1    
   107   53  176 1    
   108   53  177 1    
   109   53  178 1    
   110   54   55 am   BACKBONE|DICT|INTERRES
   111   54  179 1    
   112   55   56 2    
   113   55   57 1    
   114   57   58 1    
   115   57   59 1    
   116   57  180 1    
   117   58  181 1    
   118   58  182 1    
   119   58  183 1    
   120   59   60 am   BACKBONE|DICT|INTERRES
   121   59  184 1    
   122   60   61 2    
   123   60   62 1    
   124   62   63 1    
   125   62   64 1    
   126   62  185 1    
   127   63  186 1    
   128   63  187 1    
   129   63  188 1    
   130   64   65 am   BACKBONE|DICT|INTERRES
   131   64  189 1    
   132   65   66 2    
   133   67   68 2    
   134   67   69 am   BACKBONE|DICT|INTERRES
   135   69   70 1    
   136   69  190 1    
   137   70   71 1    
   138   70   72 1    
   139   70  191 1    
   140   71  192 1    
   141   71  193 1    
   142   71  194 1    
   143   72   73 2    
   144   72   74 am   BACKBONE|DICT|INTERRES
   145   74   75 1    
   146   74  195 1    
   147   75   76 1    
   148   75   77 1    
   149   75  196 1    
   150   76  197 1    
   151   76  198 1    
   152   76  199 1    
   153   77   78 2    
   154   77   79 am   BACKBONE|DICT|INTERRES
   155   79   80 1    
   156   79  200 1    
   157   80   81 1    
   158   80   82 1    
   159   80  201 1    
   160   81  202 1    
   161   81  203 1    
   162   81  204 1    
   163   82   83 2    
   164   82   84 am   BACKBONE|DICT|INTERRES
   165   84   85 1    
   166   84  205 1    
   167   85   86 1    
   168   85   87 1    
   169   85  206 1    
   170   86  207 1    
   171   86  208 1    
   172   86  209 1    
   173   87   88 2    
   174   87   89 am   BACKBONE|DICT|INTERRES
   175   89   90 1    
   176   89  210 1    
   177   90   91 1    
   178   90   92 1    
   179   90  211 1    
   180   91  212 1    
   181   91  213 1    
   182   91  214 1    
   183   92   93 2    
   184   92   94 am   BACKBONE|DICT|INTERRES
   185   94   95 1    
   186   94  215 1    
   187   95   96 1    
   188   95   97 1    
   189   95  216 1    
   190   96  217 1    
   191   96  218 1    
   192   96  219 1    
   193   97   98 2    
   194   97   99 am   BACKBONE|DICT|INTERRES
   195   99  100 1    
   196   99  220 1    
   197  100  101 1    
   198  100  102 1    
   199  100  221 1    
   200  101  222 1    
   201  101  223 1    
   202  101  224 1    
   203  102  103 2    
   204  102  104 am   BACKBONE|DICT|INTERRES
   205  104  105 1    
   206  104  225 1    
   207  105  106 1    
   208  105  107 1    
   209  105  226 1    
   210  106  227 1    
   211  106  228 1    
   212  106  229 1    
   213  107  108 2    
   214  107  109 am   BACKBONE|DICT|INTERRES
   215  109  110 1    
   216  109  230 1    
   217  110  111 1    
   218  110  112 1    
   219  110  231 1    
   220  111  232 1    
   221  111  233 1    
   222  111  234 1    
   223  112  113 2    
   224  112  114 am   BACKBONE|DICT|INTERRES
   225  114  115 1    
   226  114  235 1    
   227  115  116 1    
   228  115  117 1    
   229  115  236 1    
   230  116  237 1    
   231  116  238 1    
   232  116  239 1    
   233  117  118 2    
   234  117  119 am   BACKBONE|DICT|INTERRES
   235  119  120 1    
   236  119  240 1    
   237  120  121 1    
   238  120  124 1    
   239  120  241 1    
   240  121  122 am   BACKBONE|DICT|INTERRES
   241  121  123 2    
   242  122  242 1    
   243  122  243 1    
   244  124  125 1    
   245  124  244 1    
   246  124  245 1    
   247  125  126 1    
   248  126  246 1    
   249  126  247 1    
@<TRIPOS>SUBSTRUCTURE
     1 UNK         1 GROUP             0       ****    0 ROOT    
