@<TRIPOS>MOLECULE
3R540
247   249    1
SMALL
USER_CHARGES


@<TRIPOS>ATOM
      1 CA          3.2038  -11.0280  -48.9793 C.3       0 UNK        -0.1800 
      2 C           2.2270  -12.1703  -48.7049 C.2       0 UNK         0.5000 
      3 O           1.0491  -12.0407  -49.0294 O.2       0 UNK        -0.5000 
      4 N           2.6582  -13.2975  -48.1183 N.am      1 UNK        -0.5000 
      5 CA          4.0275  -13.5791  -47.6505 C.3       1 UNK         0.1400 
      6 C6          4.3077  -15.0954  -47.4909 C.3       23 UNK        -0.0398 
      7 S7          4.0253  -16.0292  -49.0357 S.3       23 UNK        -0.2404 
      8 C8          2.9462  -17.3692  -48.4467 C.3       23 UNK        -0.0205 
      9 C9          2.2004  -18.0327  -49.5917 C.ar      23 UNK        -0.0193 
     10 C10         1.0596  -17.4210  -50.1174 C.ar      23 UNK        -0.1150 
     11 C11         0.3477  -18.0176  -51.1595 C.ar      23 UNK        -0.0193 
     12 C12         0.7902  -19.2338  -51.6823 C.ar      23 UNK        -0.1150 
     13 C13         1.9336  -19.8548  -51.1718 C.ar      23 UNK        -0.0193 
     14 C14         2.6350  -19.2509  -50.1229 C.ar      23 UNK        -0.1150 
     15 C15         2.4256  -21.1599  -51.7804 C.3       23 UNK        -0.0205 
     16 S16         2.0465  -22.6075  -50.7442 S.3       23 UNK        -0.2404 
     17 C17         0.2205  -22.6387  -50.7618 C.3       23 UNK        -0.0398 
     18 CA         -0.3671  -22.7174  -49.3355 C.3       11 UNK         0.1400 
     19 N           0.0832  -21.6273  -48.4630 N.am      11 UNK        -0.5000 
     20 C           0.0462  -21.6985  -47.1267 C.2       10 UNK         0.5000 
     21 O          -0.4179  -22.6564  -46.5103 O.2       10 UNK        -0.5000 
     22 CA          0.5864  -20.4914  -46.3431 C.3       10 UNK         0.1400 
     23 CB          2.1227  -20.5285  -46.3353 C.3       10 UNK        -0.1800 
     24 N           0.1193  -19.1791  -46.8064 N.am      10 UNK        -0.5000 
     25 C          -1.1543  -18.8329  -47.0584 C.2       9 UNK         0.5000 
     26 O          -2.0901  -19.6328  -47.0639 O.2       9 UNK        -0.5000 
     27 CA         -1.4233  -17.3366  -47.2976 C.3       9 UNK         0.1400 
     28 CB         -2.9216  -16.9836  -47.2924 C.3       9 UNK        -0.1800 
     29 N          -0.7513  -16.5668  -46.2567 N.am      9 UNK        -0.5000 
     30 C           0.0649  -15.5250  -46.4553 C.2       8 UNK         0.5000 
     31 O           0.3209  -15.0489  -47.5598 O.2       8 UNK        -0.5000 
     32 CA          0.7642  -14.9337  -45.2159 C.3       8 UNK         0.1400 
     33 CB          0.0149  -13.6890  -44.7195 C.3       8 UNK        -0.1800 
     34 N           0.9188  -15.8878  -44.1180 N.am      8 UNK        -0.5000 
     35 C           1.6286  -17.0219  -44.1893 C.2       7 UNK         0.5000 
     36 O           2.3497  -17.3008  -45.1452 O.2       7 UNK        -0.5000 
     37 CA          1.4787  -18.0377  -43.0412 C.3       7 UNK         0.1400 
     38 CB          2.7386  -18.0683  -42.1667 C.3       7 UNK        -0.1800 
     39 N           0.2978  -17.8305  -42.1966 N.am      7 UNK        -0.5000 
     40 C          -0.9708  -18.0026  -42.5988 C.2       6 UNK         0.5000 
     41 O          -1.2891  -18.2518  -43.7611 O.2       6 UNK        -0.5000 
     42 CA         -2.0600  -17.8566  -41.5232 C.3       6 UNK         0.1400 
     43 CB         -2.1393  -19.1257  -40.6605 C.3       6 UNK        -0.1800 
     44 N          -1.8145  -16.6965  -40.6649 N.am      6 UNK        -0.5000 
     45 C          -2.2241  -15.4536  -40.9530 C.2       5 UNK         0.5000 
     46 O          -2.9115  -15.1668  -41.9336 O.2       5 UNK        -0.5000 
     47 CA         -1.7585  -14.3343  -39.9990 C.3       5 UNK         0.1400 
     48 CB         -2.6617  -14.2685  -38.7578 C.3       5 UNK        -0.1800 
     49 N          -0.3569  -14.4514  -39.5766 N.am      5 UNK        -0.5000 
     50 C           0.6874  -14.4814  -40.4146 C.2       4 UNK         0.5000 
     51 O           0.5713  -14.4688  -41.6424 O.2       4 UNK        -0.5000 
     52 CA          2.0908  -14.5627  -39.7938 C.3       4 UNK         0.1400 
     53 CB          2.2726  -15.8787  -39.0079 C.3       4 UNK        -0.1800 
     54 N           3.0491  -14.4574  -40.8921 N.am      4 UNK        -0.5000 
     55 C           4.3773  -14.3302  -40.8191 C.2       3 UNK         0.5000 
     56 O           5.0102  -14.3086  -39.7630 O.2       3 UNK        -0.5000 
     57 CA          5.1271  -14.1862  -42.1590 C.3       3 UNK         0.1400 
     58 CB          5.5403  -15.5582  -42.7133 C.3       3 UNK        -0.1800 
     59 N           4.3611  -13.4740  -43.1858 N.am      3 UNK        -0.5000 
     60 C           4.1461  -12.1513  -43.1891 C.2       2 UNK         0.5000 
     61 O           4.5260  -11.4077  -42.2830 O.2       2 UNK        -0.5000 
     62 CA          3.3786  -11.5539  -44.3927 C.3       2 UNK         0.1400 
     63 CB          3.8707  -10.1364  -44.7519 C.3       2 UNK        -0.1800 
     64 N           3.3385  -12.3932  -45.6007 N.am      2 UNK        -0.5000 
     65 C           4.3713  -12.8270  -46.3433 C.2       1 UNK         0.5000 
     66 O           5.5521  -12.6448  -46.0495 O.2       1 UNK        -0.5000 
     67 C          -1.9031  -22.8473  -49.3735 C.2       11 UNK         0.5000 
     68 O          -2.4006  -23.9360  -49.6619 O.2       11 UNK        -0.5000 
     69 N          -2.6345  -21.7695  -49.0608 N.am      12 UNK        -0.5000 
     70 CA         -4.0855  -21.8039  -48.8931 C.3       12 UNK         0.1400 
     71 CB         -4.6777  -20.4110  -49.1332 C.3       12 UNK        -0.1800 
     72 C          -4.4633  -22.3390  -47.5041 C.2       12 UNK         0.5000 
     73 O          -5.3675  -23.1666  -47.4033 O.2       12 UNK        -0.5000 
     74 N          -3.7285  -21.9075  -46.4686 N.am      13 UNK        -0.5000 
     75 CA         -3.8664  -22.3710  -45.0854 C.3       13 UNK         0.1400 
     76 CB         -2.9624  -21.5274  -44.1723 C.3       13 UNK        -0.1800 
     77 C          -3.5676  -23.8754  -44.9254 C.2       13 UNK         0.5000 
     78 O          -4.2717  -24.5622  -44.1849 O.2       13 UNK        -0.5000 
     79 N          -2.5601  -24.3661  -45.6599 N.am      14 UNK        -0.5000 
     80 CA         -2.1974  -25.7815  -45.7617 C.3       14 UNK         0.1400 
     81 CB         -0.7552  -25.8807  -46.2849 C.3       14 UNK        -0.1800 
     82 C          -3.1427  -26.6019  -46.6652 C.2       14 UNK         0.5000 
     83 O          -3.0354  -27.8287  -46.6777 O.2       14 UNK        -0.5000 
     84 N          -4.0225  -25.9227  -47.4184 N.am      15 UNK        -0.5000 
     85 CA         -4.9569  -26.4650  -48.4123 C.3       15 UNK         0.1400 
     86 CB         -6.0248  -27.3538  -47.7424 C.3       15 UNK        -0.1800 
     87 C          -4.2546  -27.1513  -49.6048 C.2       15 UNK         0.5000 
     88 O          -4.8065  -28.0779  -50.2005 O.2       15 UNK        -0.5000 
     89 N          -3.0506  -26.6722  -49.9384 N.am      16 UNK        -0.5000 
     90 CA         -2.2305  -27.1456  -51.0503 C.3       16 UNK         0.1400 
     91 CB         -0.7487  -26.9625  -50.6850 C.3       16 UNK        -0.1800 
     92 C          -2.5576  -26.4016  -52.3565 C.2       16 UNK         0.5000 
     93 O          -2.4908  -27.0058  -53.4274 O.2       16 UNK        -0.5000 
     94 N          -2.9061  -25.1124  -52.2474 N.am      17 UNK        -0.5000 
     95 CA         -3.2182  -24.2293  -53.3723 C.3       17 UNK         0.1400 
     96 CB         -1.9402  -23.5148  -53.8464 C.3       17 UNK        -0.1800 
     97 C          -4.3499  -23.2482  -53.0189 C.2       17 UNK         0.5000 
     98 O          -4.3800  -22.1290  -53.5404 O.2       17 UNK        -0.5000 
     99 N          -5.2708  -23.6866  -52.1489 N.am      18 UNK        -0.5000 
    100 CA        -6.4705  -22.9485  -51.7546 C.3       18 UNK         0.1400 
    101 CB        -7.2131  -23.7217  -50.6545 C.3       18 UNK        -0.1800 
    102 C         -7.3896  -22.6864  -52.9599 C.2       18 UNK         0.5000 
    103 O         -7.8124  -23.6365  -53.6212 O.2       18 UNK        -0.5000 
    104 N         -7.6334  -21.3993  -53.2319 N.am      19 UNK        -0.5000 
    105 CA        -8.3697  -20.8308  -54.3655 C.3       19 UNK         0.1400 
    106 CB        -9.8230  -21.3471  -54.4134 C.3       19 UNK        -0.1800 
    107 C         -7.6473  -20.9728  -55.7234 C.2       19 UNK         0.5000 
    108 O         -8.2290  -20.6131  -56.7483 O.2       19 UNK        -0.5000 
    109 N         -6.3980  -21.4577  -55.7176 N.am      20 UNK        -0.5000 
    110 CA        -5.5377  -21.5666  -56.8933 C.3       20 UNK         0.1400 
    111 CB        -4.9110  -22.9695  -56.9531 C.3       20 UNK        -0.1800 
    112 C         -4.4607  -20.4739  -56.8510 C.2       20 UNK         0.5000 
    113 O         -4.3356  -19.7122  -57.8108 O.2       20 UNK        -0.5000 
    114 N         -3.7223  -20.4002  -55.7352 N.am      21 UNK        -0.5000 
    115 CA        -2.6977  -19.3841  -55.4962 C.3       21 UNK         0.1400 
    116 CB        -1.5049  -20.0215  -54.7684 C.3       21 UNK        -0.1800 
    117 C         -3.2563  -18.2102  -54.6782 C.2       21 UNK         0.5000 
    118 O         -2.9440  -17.0577  -54.9794 O.2       21 UNK        -0.5000 
    119 N         -4.0686  -18.5206  -53.6630 N.am      22 UNK        -0.5000 
    120 CA        -4.6712  -17.5660  -52.7250 C.3       22 UNK         0.1400 
    121 C         -5.8397  -18.2136  -51.9346 C.2       22 UNK         0.5000 
    122 N         -6.5751  -17.4436  -51.1449 N.am      22 UNK        -0.7600 
    123 O         -6.1069  -19.4081  -52.0411 O.2       22 UNK        -0.5000 
    124 C124       -3.6311  -16.8455  -51.8140 C.3       23 UNK        -0.0398 
    125 S125       -2.4164  -17.9401  -50.9897 S.3       23 UNK        -0.2404 
    126 C126       -0.8760  -17.3316  -51.7418 C.3       23 UNK        -0.0205 
    127 H127        4.0316  -11.3618  -49.6045 H         1 UNK         0.0600 
    128 H128        3.6021  -10.6182  -48.0519 H         1 UNK         0.0600 
    129 H129        2.7013  -10.2173  -49.5074 H         1 UNK         0.0600 
    130 H130        1.9835  -14.0470  -47.9987 H         1 UNK         0.3000 
    131 H131        4.7227  -13.2139  -48.4082 H         1 UNK         0.0600 
    132 H132        3.7025  -15.5153  -46.6871 H         1 UNK         0.0800 
    133 H133        5.3466  -15.2601  -47.1986 H         1 UNK         0.0800 
    134 H134        2.2179  -16.9692  -47.7448 H         1 UNK         0.0800 
    135 H135        3.5415  -18.0966  -47.8930 H         1 UNK         0.0800 
    136 H136        0.7331  -16.4702  -49.7209 H         1 UNK         0.1150 
    137 H137        0.2482  -19.6925  -52.4955 H         1 UNK         0.1150 
    138 H138        3.5215  -19.7267  -49.7272 H         1 UNK         0.1150 
    139 H139        1.9987  -21.3086  -52.7737 H         1 UNK         0.0800 
    140 H140        3.5059  -21.1039  -51.9218 H         1 UNK         0.0800 
    141 H141       -0.0809  -23.5122  -51.3424 H         1 UNK         0.0800 
    142 H142       -0.1738  -21.7724  -51.2919 H         1 UNK         0.0800 
    143 H143       -0.0005  -23.6505  -48.9013 H         1 UNK         0.0600 
    144 H144        0.4809  -20.8128  -48.9088 H         1 UNK         0.3000 
    145 H145        0.2415  -20.5981  -45.3129 H         1 UNK         0.0600 
    146 H146        2.5352  -20.3346  -47.3254 H         1 UNK         0.0600 
    147 H147        2.5411  -19.7973  -45.6469 H         1 UNK         0.0600 
    148 H148        2.4884  -21.5057  -46.0169 H         1 UNK         0.0600 
    149 H149        0.8104  -18.4431  -46.7969 H         1 UNK         0.3000 
    150 H150       -1.0210  -17.0933  -48.2805 H         1 UNK         0.0600 
    151 H151       -3.4497  -17.5041  -48.0913 H         1 UNK         0.0600 
    152 H152       -3.0739  -15.9157  -47.4489 H         1 UNK         0.0600 
    153 H153       -3.3947  -17.2564  -46.3483 H         1 UNK         0.0600 
    154 H154       -0.8691  -16.9286  -45.3150 H         1 UNK         0.3000 
    155 H155        1.7636  -14.6326  -45.5262 H         1 UNK         0.0600 
    156 H156       -0.1442  -12.9746  -45.5285 H         1 UNK         0.0600 
    157 H157        0.5760  -13.1742  -43.9407 H         1 UNK         0.0600 
    158 H158       -0.9629  -13.9477  -44.3108 H         1 UNK         0.0600 
    159 H159        0.4183  -15.6753  -43.2615 H         1 UNK         0.3000 
    160 H160        1.3744  -19.0208  -43.5044 H         1 UNK         0.0600 
    161 H161        2.9383  -17.0977  -41.7174 H         1 UNK         0.0600 
    162 H162        3.6138  -18.3416  -42.7574 H         1 UNK         0.0600 
    163 H163        2.6499  -18.8017  -41.3652 H         1 UNK         0.0600 
    164 H164        0.4698  -17.6051  -41.2298 H         1 UNK         0.3000 
    165 H165       -3.0195  -17.7402  -42.0322 H         1 UNK         0.0600 
    166 H166       -2.9526  -19.0584  -39.9378 H         1 UNK         0.0600 
    167 H167       -2.3266  -20.0052  -41.2781 H         1 UNK         0.0600 
    168 H168       -1.2151  -19.3024  -40.1091 H         1 UNK         0.0600 
    169 H169       -1.2670  -16.8428  -39.8300 H         1 UNK         0.3000 
    170 H170       -1.8566  -13.3894  -40.5378 H         1 UNK         0.0600 
    171 H171       -3.7097  -14.1644  -39.0422 H         1 UNK         0.0600 
    172 H172       -2.5749  -15.1681  -38.1472 H         1 UNK         0.0600 
    173 H173       -2.4104  -13.4120  -38.1319 H         1 UNK         0.0600 
    174 H174       -0.1879  -14.4704  -38.5812 H         1 UNK         0.3000 
    175 H175        2.2276  -13.7089  -39.1279 H         1 UNK         0.0600 
    176 H176        2.0516  -16.7533  -39.6179 H         1 UNK         0.0600 
    177 H177        3.2869  -15.9874  -38.6255 H         1 UNK         0.0600 
    178 H178        1.6080  -15.9123  -38.1442 H         1 UNK         0.0600 
    179 H179        2.5978  -14.4162  -41.7981 H         1 UNK         0.3000 
    180 H180        6.0395  -13.6204  -41.9577 H         1 UNK         0.0600 
    181 H181        4.6810  -16.1250  -43.0693 H         1 UNK         0.0600 
    182 H182        6.0430  -16.1576  -41.9531 H         1 UNK         0.0600 
    183 H183        6.2318  -15.4484  -43.5490 H         1 UNK         0.0600 
    184 H184        4.0302  -14.0161  -43.9684 H         1 UNK         0.3000 
    185 H185        2.3445  -11.4600  -44.0590 H         1 UNK         0.0600 
    186 H186        3.2919   -9.7146  -45.5735 H         1 UNK         0.0600 
    187 H187        3.7683   -9.4556  -43.9060 H         1 UNK         0.0600 
    188 H188        4.9206  -10.1361  -45.0464 H         1 UNK         0.0600 
    189 H189        2.4137  -12.5766  -45.9623 H         1 UNK         0.3000 
    190 H190       -2.1671  -20.9235  -48.7587 H         1 UNK         0.3000 
    191 H191       -4.5074  -22.4774  -49.6395 H         1 UNK         0.0600 
    192 H192       -4.3643  -20.0239  -50.1009 H         1 UNK         0.0600 
    193 H193       -5.7677  -20.4449  -49.1322 H         1 UNK         0.0600 
    194 H194       -4.3712  -19.6963  -48.3707 H         1 UNK         0.0600 
    195 H195       -3.0280  -21.1899  -46.6414 H         1 UNK         0.3000 
    196 H196       -4.9028  -22.2058  -44.7843 H         1 UNK         0.0600 
    197 H197       -3.0782  -21.8210  -43.1285 H         1 UNK         0.0600 
    198 H198       -3.2083  -20.4673  -44.2424 H         1 UNK         0.0600 
    199 H199       -1.9094  -21.6403  -44.4303 H         1 UNK         0.0600 
    200 H200       -1.9678  -23.7122  -46.1655 H         1 UNK         0.3000 
    201 H201       -2.2315  -26.2227  -44.7636 H         1 UNK         0.0600 
    202 H202       -0.0617  -25.3465  -45.6350 H         1 UNK         0.0600 
    203 H203       -0.6638  -25.4632  -47.2883 H         1 UNK         0.0600 
    204 H204       -0.4225  -26.9184  -46.3298 H         1 UNK         0.0600 
    205 H205       -4.0565  -24.9174  -47.3078 H         1 UNK         0.3000 
    206 H206       -5.4727  -25.6028  -48.8328 H         1 UNK         0.0600 
    207 H207       -5.5989  -28.2801  -47.3562 H         1 UNK         0.0600 
    208 H208       -6.5055  -26.8335  -46.9140 H         1 UNK         0.0600 
    209 H209       -6.8080  -27.6254  -48.4509 H         1 UNK         0.0600 
    210 H210       -2.7106  -25.8502  -49.4505 H         1 UNK         0.3000 
    211 H211       -2.4124  -28.2104  -51.2112 H         1 UNK         0.0600 
    212 H212       -0.1015  -27.3208  -51.4865 H         1 UNK         0.0600 
    213 H213       -0.4941  -27.5234  -49.7855 H         1 UNK         0.0600 
    214 H214       -0.5016  -25.9156  -50.5061 H         1 UNK         0.0600 
    215 H215       -2.9044  -24.6853  -51.3244 H         1 UNK         0.3000 
    216 H216       -3.5984  -24.8275  -54.2027 H         1 UNK         0.0600 
    217 H217       -2.1204  -22.9729  -54.7747 H         1 UNK         0.0600 
    218 H218       -1.1347  -24.2231  -54.0402 H         1 UNK         0.0600 
    219 H219       -1.5877  -22.7961  -53.1078 H         1 UNK         0.0600 
    220 H220       -5.1969  -24.6371  -51.8197 H         1 UNK         0.3000 
    221 H221       -6.1525  -21.9911  -51.3383 H         1 UNK         0.0600 
    222 H222       -7.4782  -24.7297  -50.9759 H         1 UNK         0.0600 
    223 H223       -6.6090  -23.8016  -49.7528 H         1 UNK         0.0600 
    224 H224       -8.1363  -23.2120  -50.3758 H         1 UNK         0.0600 
    225 H225       -7.1558  -20.7016  -52.6594 H         1 UNK         0.3000 
    226 H226       -8.4141  -19.7586  -54.1693 H         1 UNK         0.0600 
    227 H227      -10.3130  -21.2385  -53.4459 H         1 UNK         0.0600 
    228 H228      -10.4125  -20.7850  -55.1385 H         1 UNK         0.0600 
    229 H229       -9.8737  -22.3972  -54.7014 H         1 UNK         0.0600 
    230 H230       -5.9795  -21.6994  -54.8275 H         1 UNK         0.3000 
    231 H231       -6.1181  -21.4277  -57.8078 H         1 UNK         0.0600 
    232 H232       -4.2865  -23.1794  -56.0863 H         1 UNK         0.0600 
    233 H233       -4.2849  -23.0769  -57.8397 H         1 UNK         0.0600 
    234 H234       -5.6806  -23.7399  -57.0030 H         1 UNK         0.0600 
    235 H235       -3.9021  -21.0532  -54.9772 H         1 UNK         0.3000 
    236 H236       -2.3316  -18.9884  -56.4460 H         1 UNK         0.0600 
    237 H237       -1.0812  -20.8410  -55.3484 H         1 UNK         0.0600 
    238 H238       -0.7107  -19.2896  -54.6192 H         1 UNK         0.0600 
    239 H239       -1.7888  -20.4089  -53.7891 H         1 UNK         0.0600 
    240 H240       -4.3035  -19.4870  -53.4767 H         1 UNK         0.3000 
    241 H241       -5.1519  -16.8034  -53.3404 H         1 UNK         0.0600 
    242 H242       -7.3373  -17.8619  -50.6357 H         1 UNK         0.3800 
    243 H243       -6.4041  -16.4552  -51.0499 H         1 UNK         0.3800 
    244 H244       -3.0928  -16.1130  -52.4161 H         1 UNK         0.0800 
    245 H245       -4.1258  -16.2533  -51.0433 H         1 UNK         0.0800 
    246 H246       -0.9106  -17.4881  -52.8205 H         1 UNK         0.0800 
    247 H247       -0.8019  -16.2535  -51.5902 H         1 UNK         0.0800 
@<TRIPOS>BOND
     1    1    2 1    
     2    1  127 1    
     3    1  128 1    
     4    1  129 1    
     5    2    3 2    
     6    2    4 am   BACKBONE|DICT|INTERRES
     7    4    5 1    
     8    4  130 1    
     9    5    6 1    
    10    5   65 1    
    11    5  131 1    
    12    6    7 1    
    13    6  132 1    
    14    6  133 1    
    15    7    8 1    
    16    8    9 1    
    17    8  134 1    
    18    8  135 1    
    19    9   10 ar   
    20    9   14 ar   
    21   10   11 ar   
    22   10  136 1    
    23   11   12 ar   
    24   11  126 1    
    25   12   13 ar   
    26   12  137 1    
    27   13   14 ar   
    28   13   15 1    
    29   14  138 1    
    30   15   16 1    
    31   15  139 1    
    32   15  140 1    
    33   16   17 1    
    34   17   18 1    
    35   17  141 1    
    36   17  142 1    
    37   18   19 1    
    38   18   67 1    
    39   18  143 1    
    40   19   20 am   BACKBONE|DICT|INTERRES
    41   19  144 1    
    42   20   21 2    
    43   20   22 1    
    44   22   23 1    
    45   22   24 1    
    46   22  145 1    
    47   23  146 1    
    48   23  147 1    
    49   23  148 1    
    50   24   25 am   BACKBONE|DICT|INTERRES
    51   24  149 1    
    52   25   26 2    
    53   25   27 1    
    54   27   28 1    
    55   27   29 1    
    56   27  150 1    
    57   28  151 1    
    58   28  152 1    
    59   28  153 1    
    60   29   30 am   BACKBONE|DICT|INTERRES
    61   29  154 1    
    62   30   31 2    
    63   30   32 1    
    64   32   33 1    
    65   32   34 1    
    66   32  155 1    
    67   33  156 1    
    68   33  157 1    
    69   33  158 1    
    70   34   35 am   BACKBONE|DICT|INTERRES
    71   34  159 1    
    72   35   36 2    
    73   35   37 1    
    74   37   38 1    
    75   37   39 1    
    76   37  160 1    
    77   38  161 1    
    78   38  162 1    
    79   38  163 1    
    80   39   40 am   BACKBONE|DICT|INTERRES
    81   39  164 1    
    82   40   41 2    
    83   40   42 1    
    84   42   43 1    
    85   42   44 1    
    86   42  165 1    
    87   43  166 1    
    88   43  167 1    
    89   43  168 1    
    90   44   45 am   BACKBONE|DICT|INTERRES
    91   44  169 1    
    92   45   46 2    
    93   45   47 1    
    94   47   48 1    
    95   47   49 1    
    96   47  170 1    
    97   48  171 1    
    98   48  172 1    
    99   48  173 1    
   100   49   50 am   BACKBONE|DICT|INTERRES
   101   49  174 1    
   102   50   51 2    
   103   50   52 1    
   104   52   53 1    
   105   52   54 1    
   106   52  175 1    
   107   53  176 1    
   108   53  177 1    
   109   53  178 1    
   110   54   55 am   BACKBONE|DICT|INTERRES
   111   54  179 1    
   112   55   56 2    
   113   55   57 1    
   114   57   58 1    
   115   57   59 1    
   116   57  180 1    
   117   58  181 1    
   118   58  182 1    
   119   58  183 1    
   120   59   60 am   BACKBONE|DICT|INTERRES
   121   59  184 1    
   122   60   61 2    
   123   60   62 1    
   124   62   63 1    
   125   62   64 1    
   126   62  185 1    
   127   63  186 1    
   128   63  187 1    
   129   63  188 1    
   130   64   65 am   BACKBONE|DICT|INTERRES
   131   64  189 1    
   132   65   66 2    
   133   67   68 2    
   134   67   69 am   BACKBONE|DICT|INTERRES
   135   69   70 1    
   136   69  190 1    
   137   70   71 1    
   138   70   72 1    
   139   70  191 1    
   140   71  192 1    
   141   71  193 1    
   142   71  194 1    
   143   72   73 2    
   144   72   74 am   BACKBONE|DICT|INTERRES
   145   74   75 1    
   146   74  195 1    
   147   75   76 1    
   148   75   77 1    
   149   75  196 1    
   150   76  197 1    
   151   76  198 1    
   152   76  199 1    
   153   77   78 2    
   154   77   79 am   BACKBONE|DICT|INTERRES
   155   79   80 1    
   156   79  200 1    
   157   80   81 1    
   158   80   82 1    
   159   80  201 1    
   160   81  202 1    
   161   81  203 1    
   162   81  204 1    
   163   82   83 2    
   164   82   84 am   BACKBONE|DICT|INTERRES
   165   84   85 1    
   166   84  205 1    
   167   85   86 1    
   168   85   87 1    
   169   85  206 1    
   170   86  207 1    
   171   86  208 1    
   172   86  209 1    
   173   87   88 2    
   174   87   89 am   BACKBONE|DICT|INTERRES
   175   89   90 1    
   176   89  210 1    
   177   90   91 1    
   178   90   92 1    
   179   90  211 1    
   180   91  212 1    
   181   91  213 1    
   182   91  214 1    
   183   92   93 2    
   184   92   94 am   BACKBONE|DICT|INTERRES
   185   94   95 1    
   186   94  215 1    
   187   95   96 1    
   188   95   97 1    
   189   95  216 1    
   190   96  217 1    
   191   96  218 1    
   192   96  219 1    
   193   97   98 2    
   194   97   99 am   BACKBONE|DICT|INTERRES
   195   99  100 1    
   196   99  220 1    
   197  100  101 1    
   198  100  102 1    
   199  100  221 1    
   200  101  222 1    
   201  101  223 1    
   202  101  224 1    
   203  102  103 2    
   204  102  104 am   BACKBONE|DICT|INTERRES
   205  104  105 1    
   206  104  225 1    
   207  105  106 1    
   208  105  107 1    
   209  105  226 1    
   210  106  227 1    
   211  106  228 1    
   212  106  229 1    
   213  107  108 2    
   214  107  109 am   BACKBONE|DICT|INTERRES
   215  109  110 1    
   216  109  230 1    
   217  110  111 1    
   218  110  112 1    
   219  110  231 1    
   220  111  232 1    
   221  111  233 1    
   222  111  234 1    
   223  112  113 2    
   224  112  114 am   BACKBONE|DICT|INTERRES
   225  114  115 1    
   226  114  235 1    
   227  115  116 1    
   228  115  117 1    
   229  115  236 1    
   230  116  237 1    
   231  116  238 1    
   232  116  239 1    
   233  117  118 2    
   234  117  119 am   BACKBONE|DICT|INTERRES
   235  119  120 1    
   236  119  240 1    
   237  120  121 1    
   238  120  124 1    
   239  120  241 1    
   240  121  122 am   BACKBONE|DICT|INTERRES
   241  121  123 2    
   242  122  242 1    
   243  122  243 1    
   244  124  125 1    
   245  124  244 1    
   246  124  245 1    
   247  125  126 1    
   248  126  246 1    
   249  126  247 1    
@<TRIPOS>SUBSTRUCTURE
     1 UNK         1 GROUP             0       ****    0 ROOT    
