@<TRIPOS>MOLECULE
3R540
247   249    1
SMALL
USER_CHARGES


@<TRIPOS>ATOM
      1 CA          6.4362  -18.8683  -46.2656 C.3       0 UNK        -0.1800 
      2 C           5.6593  -17.5635  -46.1661 C.2       0 UNK         0.5000 
      3 O           5.0608  -17.2853  -45.1284 O.2       0 UNK        -0.5000 
      4 N           5.6656  -16.7639  -47.2393 N.am      1 UNK        -0.5000 
      5 CA          4.9883  -15.4674  -47.3497 C.3       1 UNK         0.1400 
      6 C6          4.7452  -15.0805  -48.8305 C.3       23 UNK        -0.0398 
      7 S7          3.4588  -16.1154  -49.6112 S.3       23 UNK        -0.2404 
      8 C8          2.6594  -14.8737  -50.6743 C.3       23 UNK        -0.0205 
      9 C9          1.3577  -15.3800  -51.2734 C.ar      23 UNK        -0.0193 
     10 C10         1.3355  -15.9643  -52.5442 C.ar      23 UNK        -0.1150 
     11 C11         0.1291  -16.3683  -53.1282 C.ar      23 UNK        -0.0193 
     12 C12        -1.0628  -16.1601  -52.4212 C.ar      23 UNK        -0.1150 
     13 C13        -1.0496  -15.6174  -51.1349 C.ar      23 UNK        -0.0193 
     14 C14         0.1632  -15.2245  -50.5664 C.ar      23 UNK        -0.1150 
     15 C15        -2.3527  -15.4510  -50.3708 C.3       23 UNK        -0.0205 
     16 S16        -3.0118  -17.0516  -49.8065 S.3       23 UNK        -0.2404 
     17 C17        -1.8692  -17.4836  -48.4467 C.3       23 UNK        -0.0398 
     18 CA         -1.2554  -18.9047  -48.5426 C.3       11 UNK         0.1400 
     19 N          -0.2837  -19.1389  -47.4716 N.am      11 UNK        -0.5000 
     20 C           0.4532  -20.2470  -47.3044 C.2       10 UNK         0.5000 
     21 O           0.4635  -21.1948  -48.0886 O.2       10 UNK        -0.5000 
     22 CA          1.2748  -20.3402  -46.0071 C.3       10 UNK         0.1400 
     23 CB          2.5829  -19.5465  -46.1334 C.3       10 UNK        -0.1800 
     24 N           0.5260  -19.8926  -44.8302 N.am      10 UNK        -0.5000 
     25 C          -0.5977  -20.4704  -44.3783 C.2       9 UNK         0.5000 
     26 O          -1.1022  -21.4710  -44.8860 O.2       9 UNK        -0.5000 
     27 CA         -1.3077  -19.7942  -43.1914 C.3       9 UNK         0.1400 
     28 CB         -0.6123  -20.1328  -41.8648 C.3       9 UNK        -0.1800 
     29 N          -1.4020  -18.3430  -43.3492 N.am      9 UNK        -0.5000 
     30 C          -2.0949  -17.7316  -44.3209 C.2       8 UNK         0.5000 
     31 O          -2.7807  -18.3296  -45.1510 O.2       8 UNK        -0.5000 
     32 CA         -1.9503  -16.2007  -44.4170 C.3       8 UNK         0.1400 
     33 CB         -2.8594  -15.4914  -43.4029 C.3       8 UNK        -0.1800 
     34 N          -0.5661  -15.7623  -44.2330 N.am      8 UNK        -0.5000 
     35 C           0.4429  -16.0812  -45.0563 C.2       7 UNK         0.5000 
     36 O           0.2995  -16.7160  -46.0995 O.2       7 UNK        -0.5000 
     37 CA          1.8535  -15.6627  -44.6164 C.3       7 UNK         0.1400 
     38 CB          2.1373  -14.2075  -45.0238 C.3       7 UNK        -0.1800 
     39 N           2.0436  -15.8424  -43.1762 N.am      7 UNK        -0.5000 
     40 C           2.1246  -17.0391  -42.5741 C.2       6 UNK         0.5000 
     41 O           2.0829  -18.1083  -43.1809 O.2       6 UNK        -0.5000 
     42 CA          2.1827  -17.0590  -41.0342 C.3       6 UNK         0.1400 
     43 CB          3.6257  -17.0064  -40.5187 C.3       6 UNK        -0.1800 
     44 N           1.4021  -15.9797  -40.4310 N.am      6 UNK        -0.5000 
     45 C           0.0625  -15.9354  -40.4535 C.2       5 UNK         0.5000 
     46 O          -0.6385  -16.8305  -40.9256 O.2       5 UNK        -0.5000 
     47 CA         -0.6075  -14.6600  -39.9088 C.3       5 UNK         0.1400 
     48 CB         -0.9137  -14.8089  -38.4115 C.3       5 UNK        -0.1800 
     49 N           0.1891  -13.4500  -40.1202 N.am      5 UNK        -0.5000 
     50 C           0.5648  -12.9722  -41.3145 C.2       4 UNK         0.5000 
     51 O           0.2451  -13.4957  -42.3813 O.2       4 UNK        -0.5000 
     52 CA          1.4522  -11.7107  -41.3231 C.3       4 UNK         0.1400 
     53 CB          1.1569  -10.7642  -40.1395 C.3       4 UNK        -0.1800 
     54 N           2.8946  -11.9872  -41.3913 N.am      4 UNK        -0.5000 
     55 C           3.6266  -12.7683  -40.5813 C.2       3 UNK         0.5000 
     56 O           3.1482  -13.5388  -39.7460 O.2       3 UNK        -0.5000 
     57 CA          5.1594  -12.6144  -40.7097 C.3       3 UNK         0.1400 
     58 CB          5.9526  -13.5950  -39.8194 C.3       3 UNK        -0.1800 
     59 N           5.6565  -12.6475  -42.0915 N.am      3 UNK        -0.5000 
     60 C           5.5638  -13.6711  -42.9504 C.2       2 UNK         0.5000 
     61 O           4.9652  -14.7200  -42.7111 O.2       2 UNK        -0.5000 
     62 CA          6.2864  -13.5033  -44.2955 C.3       2 UNK         0.1400 
     63 CB          7.8019  -13.7244  -44.1409 C.3       2 UNK        -0.1800 
     64 N           5.7409  -14.4692  -45.2419 N.am      2 UNK        -0.5000 
     65 C           5.7509  -14.3682  -46.5732 C.2       1 UNK         0.5000 
     66 O           6.3258  -13.4621  -47.1796 O.2       1 UNK        -0.5000 
     67 C          -2.3312  -20.0108  -48.5600 C.2       11 UNK         0.5000 
     68 O          -2.4962  -20.6720  -49.5838 O.2       11 UNK        -0.5000 
     69 N          -2.9980  -20.2296  -47.4161 N.am      12 UNK        -0.5000 
     70 CA         -4.0374  -21.2467  -47.2429 C.3       12 UNK         0.1400 
     71 CB         -4.6585  -21.1123  -45.8453 C.3       12 UNK        -0.1800 
     72 C          -3.5409  -22.6848  -47.4820 C.2       12 UNK         0.5000 
     73 O          -4.2558  -23.4733  -48.1038 O.2       12 UNK        -0.5000 
     74 N          -2.3242  -22.9903  -47.0103 N.am      13 UNK        -0.5000 
     75 CA         -1.6491  -24.2711  -47.2118 C.3       13 UNK         0.1400 
     76 CB         -0.3940  -24.3443  -46.3291 C.3       13 UNK        -0.1800 
     77 C          -1.3000  -24.5231  -48.6882 C.2       13 UNK         0.5000 
     78 O          -1.6263  -25.5897  -49.2098 O.2       13 UNK        -0.5000 
     79 N          -0.6875  -23.5281  -49.3477 N.am      14 UNK        -0.5000 
     80 CA         -0.3398  -23.5620  -50.7718 C.3       14 UNK         0.1400 
     81 CB          0.4950  -22.3224  -51.1264 C.3       14 UNK        -0.1800 
     82 C          -1.5757  -23.6558  -51.6840 C.2       14 UNK         0.5000 
     83 O          -1.5376  -24.3458  -52.7022 O.2       14 UNK        -0.5000 
     84 N          -2.6603  -22.9854  -51.2780 N.am      15 UNK        -0.5000 
     85 CA         -3.9609  -23.0098  -51.9381 C.3       15 UNK         0.1400 
     86 CB         -4.7742  -21.8010  -51.4604 C.3       15 UNK        -0.1800 
     87 C          -4.7626  -24.2966  -51.6868 C.2       15 UNK         0.5000 
     88 O          -5.8213  -24.4447  -52.2949 O.2       15 UNK        -0.5000 
     89 N          -4.2959  -25.1712  -50.7838 N.am      16 UNK        -0.5000 
     90 CA         -4.9499  -26.4076  -50.3451 C.3       16 UNK         0.1400 
     91 CB         -4.9348  -27.4548  -51.4783 C.3       16 UNK        -0.1800 
     92 C          -6.3609  -26.1459  -49.7753 C.2       16 UNK         0.5000 
     93 O          -7.3247  -26.7988  -50.1782 O.2       16 UNK        -0.5000 
     94 N          -6.4450  -25.1583  -48.8709 N.am      17 UNK        -0.5000 
     95 CA         -7.6620  -24.6270  -48.2495 C.3       17 UNK         0.1400 
     96 CB         -8.3803  -25.6993  -47.4025 C.3       17 UNK        -0.1800 
     97 C          -8.5813  -23.9293  -49.2744 C.2       17 UNK         0.5000 
     98 O          -9.7801  -24.2085  -49.3320 O.2       17 UNK        -0.5000 
     99 N          -7.9815  -23.0165  -50.0541 N.am      18 UNK        -0.5000 
    100 CA        -8.6145  -22.1331  -51.0444 C.3       18 UNK         0.1400 
    101 CB        -9.6266  -21.1835  -50.3686 C.3       18 UNK        -0.1800 
    102 C         -9.2040  -22.8650  -52.2706 C.2       18 UNK         0.5000 
    103 O        -10.1270  -22.3504  -52.9042 O.2       18 UNK        -0.5000 
    104 N         -8.6500  -24.0363  -52.6041 N.am      19 UNK        -0.5000 
    105 CA        -9.0388  -24.8423  -53.7607 C.3       19 UNK         0.1400 
    106 CB        -8.8487  -26.3271  -53.4149 C.3       19 UNK        -0.1800 
    107 C         -8.2256  -24.4788  -55.0166 C.2       19 UNK         0.5000 
    108 O         -8.7798  -24.4661  -56.1162 O.2       19 UNK        -0.5000 
    109 N         -6.9293  -24.2000  -54.8299 N.am      20 UNK        -0.5000 
    110 CA        -5.9395  -23.9792  -55.8877 C.3       20 UNK         0.1400 
    111 CB        -4.7780  -24.9665  -55.6725 C.3       20 UNK        -0.1800 
    112 C         -5.4265  -22.5264  -55.9319 C.2       20 UNK         0.5000 
    113 O         -4.4197  -22.2656  -56.5958 O.2       20 UNK        -0.5000 
    114 N         -6.0945  -21.6133  -55.2091 N.am      21 UNK        -0.5000 
    115 CA        -5.8335  -20.1700  -55.0555 C.3       21 UNK         0.1400 
    116 CB        -5.9244  -19.4325  -56.4050 C.3       21 UNK        -0.1800 
    117 C         -4.5200  -19.8311  -54.3196 C.2       21 UNK         0.5000 
    118 O         -4.5507  -19.0554  -53.3660 O.2       21 UNK        -0.5000 
    119 N         -3.4239  -20.4540  -54.7571 N.am      22 UNK        -0.5000 
    120 CA        -2.0816  -20.5272  -54.1588 C.3       22 UNK         0.1400 
    121 C         -1.0965  -21.3991  -54.9962 C.2       22 UNK         0.5000 
    122 N         -1.5323  -22.1292  -56.0200 N.am      22 UNK        -0.7600 
    123 O          0.0948  -21.4385  -54.7033 O.2       22 UNK        -0.5000 
    124 C124       -1.4719  -19.1680  -53.7163 C.3       23 UNK        -0.0398 
    125 S125       -1.3419  -17.9106  -55.0363 S.3       23 UNK        -0.2404 
    126 C126        0.1653  -17.0073  -54.5213 C.3       23 UNK        -0.0205 
    127 H127        7.2269  -18.8909  -45.5159 H         1 UNK         0.0600 
    128 H128        6.8930  -18.9950  -47.2474 H         1 UNK         0.0600 
    129 H129        5.7724  -19.7142  -46.0877 H         1 UNK         0.0600 
    130 H130        6.1872  -17.0474  -48.0563 H         1 UNK         0.3000 
    131 H131        4.0100  -15.5553  -46.8753 H         1 UNK         0.0600 
    132 H132        4.4304  -14.0377  -48.8983 H         1 UNK         0.0800 
    133 H133        5.6662  -15.1547  -49.4112 H         1 UNK         0.0800 
    134 H134        3.3505  -14.5804  -51.4662 H         1 UNK         0.0800 
    135 H135        2.4552  -13.9707  -50.0968 H         1 UNK         0.0800 
    136 H136        2.2622  -16.0946  -53.0856 H         1 UNK         0.1150 
    137 H137       -2.0144  -16.4340  -52.8520 H         1 UNK         0.1150 
    138 H138        0.1791  -14.7863  -49.5782 H         1 UNK         0.1150 
    139 H139       -2.2264  -14.7844  -49.5161 H         1 UNK         0.0800 
    140 H140       -3.0896  -14.9771  -51.0209 H         1 UNK         0.0800 
    141 H141       -2.4111  -17.3597  -47.5102 H         1 UNK         0.0800 
    142 H142       -1.0636  -16.7499  -48.4169 H         1 UNK         0.0800 
    143 H143       -0.7073  -18.9673  -49.4852 H         1 UNK         0.0600 
    144 H144       -0.1740  -18.3840  -46.7988 H         1 UNK         0.3000 
    145 H145        1.5318  -21.3900  -45.8527 H         1 UNK         0.0600 
    146 H146        3.2033  -19.6643  -45.2448 H         1 UNK         0.0600 
    147 H147        3.1682  -19.8903  -46.9871 H         1 UNK         0.0600 
    148 H148        2.3990  -18.4812  -46.2717 H         1 UNK         0.0600 
    149 H149        0.9147  -19.1042  -44.3196 H         1 UNK         0.3000 
    150 H150       -2.3252  -20.1881  -43.1470 H         1 UNK         0.0600 
    151 H151       -0.5766  -21.2116  -41.7088 H         1 UNK         0.0600 
    152 H152       -1.1447  -19.6985  -41.0184 H         1 UNK         0.0600 
    153 H153        0.4128  -19.7645  -41.8394 H         1 UNK         0.0600 
    154 H154       -0.9096  -17.7756  -42.6668 H         1 UNK         0.3000 
    155 H155       -2.2630  -15.8988  -45.4187 H         1 UNK         0.0600 
    156 H156       -2.6155  -15.7660  -42.3771 H         1 UNK         0.0600 
    157 H157       -3.9049  -15.7525  -43.5707 H         1 UNK         0.0600 
    158 H158       -2.7760  -14.4077  -43.4882 H         1 UNK         0.0600 
    159 H159       -0.3610  -15.1919  -43.4198 H         1 UNK         0.3000 
    160 H160        2.5696  -16.3059  -45.1290 H         1 UNK         0.0600 
    161 H161        3.0990  -13.8659  -44.6477 H         1 UNK         0.0600 
    162 H162        1.3769  -13.5204  -44.6555 H         1 UNK         0.0600 
    163 H163        2.1553  -14.1086  -46.1096 H         1 UNK         0.0600 
    164 H164        2.0444  -15.0075  -42.6086 H         1 UNK         0.3000 
    165 H165        1.7549  -18.0091  -40.7076 H         1 UNK         0.0600 
    166 H166        3.6665  -17.1852  -39.4443 H         1 UNK         0.0600 
    167 H167        4.2450  -17.7630  -41.0021 H         1 UNK         0.0600 
    168 H168        4.0791  -16.0369  -40.7105 H         1 UNK         0.0600 
    169 H169        1.9172  -15.1889  -40.0567 H         1 UNK         0.3000 
    170 H170       -1.5522  -14.5317  -40.4407 H         1 UNK         0.0600 
    171 H171       -1.5257  -15.6923  -38.2243 H         1 UNK         0.0600 
    172 H172       -0.0011  -14.9102  -37.8227 H         1 UNK         0.0600 
    173 H173       -1.4644  -13.9473  -38.0335 H         1 UNK         0.0600 
    174 H174        0.5355  -12.9866  -39.2928 H         1 UNK         0.3000 
    175 H175        1.1994  -11.1733  -42.2385 H         1 UNK         0.0600 
    176 H176        1.4819  -11.1799  -39.1851 H         1 UNK         0.0600 
    177 H177        1.6667   -9.8096  -40.2703 H         1 UNK         0.0600 
    178 H178        0.0901  -10.5495  -40.0630 H         1 UNK         0.0600 
    179 H179        3.3985  -11.4411  -42.0756 H         1 UNK         0.3000 
    180 H180        5.3770  -11.6114  -40.3396 H         1 UNK         0.0600 
    181 H181        5.8124  -14.6314  -40.1233 H         1 UNK         0.0600 
    182 H182        5.6451  -13.5157  -38.7759 H         1 UNK         0.0600 
    183 H183        7.0205  -13.3807  -39.8569 H         1 UNK         0.0600 
    184 H184        6.1610  -11.8228  -42.3866 H         1 UNK         0.3000 
    185 H185        6.0961  -12.4928  -44.6630 H         1 UNK         0.0600 
    186 H186        8.2329  -13.0201  -43.4286 H         1 UNK         0.0600 
    187 H187        8.0235  -14.7311  -43.7839 H         1 UNK         0.0600 
    188 H188        8.3223  -13.5840  -45.0884 H         1 UNK         0.0600 
    189 H189        5.2809  -15.2677  -44.8087 H         1 UNK         0.3000 
    190 H190       -2.7996  -19.6437  -46.6097 H         1 UNK         0.3000 
    191 H191       -4.8169  -21.0442  -47.9799 H         1 UNK         0.0600 
    192 H192       -3.9173  -21.2649  -45.0600 H         1 UNK         0.0600 
    193 H193       -5.4525  -21.8453  -45.6970 H         1 UNK         0.0600 
    194 H194       -5.0962  -20.1241  -45.7024 H         1 UNK         0.0600 
    195 H195       -1.8278  -22.2982  -46.4550 H         1 UNK         0.3000 
    196 H196       -2.3318  -25.0612  -46.8923 H         1 UNK         0.0600 
    197 H197        0.1213  -25.2966  -46.4596 H         1 UNK         0.0600 
    198 H198       -0.6507  -24.2553  -45.2734 H         1 UNK         0.0600 
    199 H199        0.3146  -23.5508  -46.5675 H         1 UNK         0.0600 
    200 H200       -0.4402  -22.6784  -48.8449 H         1 UNK         0.3000 
    201 H201        0.2717  -24.4495  -50.9464 H         1 UNK         0.0600 
    202 H202        1.4071  -22.2777  -50.5314 H         1 UNK         0.0600 
    203 H203       -0.0616  -21.3998  -50.9554 H         1 UNK         0.0600 
    204 H204        0.7923  -22.3383  -52.1754 H         1 UNK         0.0600 
    205 H205       -2.5810  -22.3785  -50.4653 H         1 UNK         0.3000 
    206 H206       -3.8076  -22.9222  -53.0151 H         1 UNK         0.0600 
    207 H207       -4.2004  -20.8798  -51.5442 H         1 UNK         0.0600 
    208 H208       -5.6694  -21.6764  -52.0672 H         1 UNK         0.0600 
    209 H209       -5.0782  -21.9015  -50.4183 H         1 UNK         0.0600 
    210 H210       -3.4249  -24.9533  -50.3155 H         1 UNK         0.3000 
    211 H211       -4.3514  -26.7999  -49.5217 H         1 UNK         0.0600 
    212 H212       -5.3345  -28.4091  -51.1337 H         1 UNK         0.0600 
    213 H213       -3.9194  -27.6363  -51.8304 H         1 UNK         0.0600 
    214 H214       -5.5328  -27.1391  -52.3335 H         1 UNK         0.0600 
    215 H215       -5.5881  -24.6627  -48.6291 H         1 UNK         0.3000 
    216 H216       -7.3301  -23.8468  -47.5627 H         1 UNK         0.0600 
    217 H217       -9.2010  -25.2588  -46.8353 H         1 UNK         0.0600 
    218 H218       -7.6988  -26.1559  -46.6848 H         1 UNK         0.0600 
    219 H219       -8.8025  -26.4941  -48.0176 H         1 UNK         0.0600 
    220 H220       -6.9859  -22.8983  -49.9405 H         1 UNK         0.3000 
    221 H221       -7.8186  -21.5035  -51.4390 H         1 UNK         0.0600 
    222 H222      -10.5097  -21.7156  -50.0142 H         1 UNK         0.0600 
    223 H223       -9.1790  -20.6704  -49.5174 H         1 UNK         0.0600 
    224 H224       -9.9677  -20.4152  -51.0635 H         1 UNK         0.0600 
    225 H225       -7.8507  -24.3661  -52.0744 H         1 UNK         0.3000 
    226 H226      -10.0959  -24.6822  -53.9836 H         1 UNK         0.0600 
    227 H227       -9.4562  -26.6112  -52.5553 H         1 UNK         0.0600 
    228 H228       -9.1433  -26.9653  -54.2489 H         1 UNK         0.0600 
    229 H229       -7.8093  -26.5551  -53.1755 H         1 UNK         0.0600 
    230 H230       -6.5596  -24.2575  -53.8815 H         1 UNK         0.3000 
    231 H231       -6.3781  -24.1849  -56.8659 H         1 UNK         0.0600 
    232 H232       -5.1375  -25.9951  -55.6382 H         1 UNK         0.0600 
    233 H233       -4.2456  -24.7688  -54.7416 H         1 UNK         0.0600 
    234 H234       -4.0521  -24.9068  -56.4842 H         1 UNK         0.0600 
    235 H235       -6.8933  -21.9579  -54.6962 H         1 UNK         0.3000 
    236 H236       -6.6441  -19.7941  -54.4289 H         1 UNK         0.0600 
    237 H237       -5.1396  -19.7406  -57.0962 H         1 UNK         0.0600 
    238 H238       -6.8852  -19.6120  -56.8875 H         1 UNK         0.0600 
    239 H239       -5.8270  -18.3553  -56.2647 H         1 UNK         0.0600 
    240 H240       -3.5630  -21.0540  -55.5636 H         1 UNK         0.3000 
    241 H241       -2.2128  -21.0983  -53.2420 H         1 UNK         0.0600 
    242 H242       -2.5052  -22.1760  -56.2979 H         1 UNK         0.3800 
    243 H243       -0.8590  -22.6817  -56.5266 H         1 UNK         0.3800 
    244 H244       -0.4870  -19.3256  -53.2735 H         1 UNK         0.0800 
    245 H245       -2.0695  -18.7537  -52.9052 H         1 UNK         0.0800 
    246 H246        1.0089  -17.6971  -54.5792 H         1 UNK         0.0800 
    247 H247        0.3594  -16.2224  -55.2532 H         1 UNK         0.0800 
@<TRIPOS>BOND
     1    1    2 1    
     2    1  127 1    
     3    1  128 1    
     4    1  129 1    
     5    2    3 2    
     6    2    4 am   BACKBONE|DICT|INTERRES
     7    4    5 1    
     8    4  130 1    
     9    5    6 1    
    10    5   65 1    
    11    5  131 1    
    12    6    7 1    
    13    6  132 1    
    14    6  133 1    
    15    7    8 1    
    16    8    9 1    
    17    8  134 1    
    18    8  135 1    
    19    9   10 ar   
    20    9   14 ar   
    21   10   11 ar   
    22   10  136 1    
    23   11   12 ar   
    24   11  126 1    
    25   12   13 ar   
    26   12  137 1    
    27   13   14 ar   
    28   13   15 1    
    29   14  138 1    
    30   15   16 1    
    31   15  139 1    
    32   15  140 1    
    33   16   17 1    
    34   17   18 1    
    35   17  141 1    
    36   17  142 1    
    37   18   19 1    
    38   18   67 1    
    39   18  143 1    
    40   19   20 am   BACKBONE|DICT|INTERRES
    41   19  144 1    
    42   20   21 2    
    43   20   22 1    
    44   22   23 1    
    45   22   24 1    
    46   22  145 1    
    47   23  146 1    
    48   23  147 1    
    49   23  148 1    
    50   24   25 am   BACKBONE|DICT|INTERRES
    51   24  149 1    
    52   25   26 2    
    53   25   27 1    
    54   27   28 1    
    55   27   29 1    
    56   27  150 1    
    57   28  151 1    
    58   28  152 1    
    59   28  153 1    
    60   29   30 am   BACKBONE|DICT|INTERRES
    61   29  154 1    
    62   30   31 2    
    63   30   32 1    
    64   32   33 1    
    65   32   34 1    
    66   32  155 1    
    67   33  156 1    
    68   33  157 1    
    69   33  158 1    
    70   34   35 am   BACKBONE|DICT|INTERRES
    71   34  159 1    
    72   35   36 2    
    73   35   37 1    
    74   37   38 1    
    75   37   39 1    
    76   37  160 1    
    77   38  161 1    
    78   38  162 1    
    79   38  163 1    
    80   39   40 am   BACKBONE|DICT|INTERRES
    81   39  164 1    
    82   40   41 2    
    83   40   42 1    
    84   42   43 1    
    85   42   44 1    
    86   42  165 1    
    87   43  166 1    
    88   43  167 1    
    89   43  168 1    
    90   44   45 am   BACKBONE|DICT|INTERRES
    91   44  169 1    
    92   45   46 2    
    93   45   47 1    
    94   47   48 1    
    95   47   49 1    
    96   47  170 1    
    97   48  171 1    
    98   48  172 1    
    99   48  173 1    
   100   49   50 am   BACKBONE|DICT|INTERRES
   101   49  174 1    
   102   50   51 2    
   103   50   52 1    
   104   52   53 1    
   105   52   54 1    
   106   52  175 1    
   107   53  176 1    
   108   53  177 1    
   109   53  178 1    
   110   54   55 am   BACKBONE|DICT|INTERRES
   111   54  179 1    
   112   55   56 2    
   113   55   57 1    
   114   57   58 1    
   115   57   59 1    
   116   57  180 1    
   117   58  181 1    
   118   58  182 1    
   119   58  183 1    
   120   59   60 am   BACKBONE|DICT|INTERRES
   121   59  184 1    
   122   60   61 2    
   123   60   62 1    
   124   62   63 1    
   125   62   64 1    
   126   62  185 1    
   127   63  186 1    
   128   63  187 1    
   129   63  188 1    
   130   64   65 am   BACKBONE|DICT|INTERRES
   131   64  189 1    
   132   65   66 2    
   133   67   68 2    
   134   67   69 am   BACKBONE|DICT|INTERRES
   135   69   70 1    
   136   69  190 1    
   137   70   71 1    
   138   70   72 1    
   139   70  191 1    
   140   71  192 1    
   141   71  193 1    
   142   71  194 1    
   143   72   73 2    
   144   72   74 am   BACKBONE|DICT|INTERRES
   145   74   75 1    
   146   74  195 1    
   147   75   76 1    
   148   75   77 1    
   149   75  196 1    
   150   76  197 1    
   151   76  198 1    
   152   76  199 1    
   153   77   78 2    
   154   77   79 am   BACKBONE|DICT|INTERRES
   155   79   80 1    
   156   79  200 1    
   157   80   81 1    
   158   80   82 1    
   159   80  201 1    
   160   81  202 1    
   161   81  203 1    
   162   81  204 1    
   163   82   83 2    
   164   82   84 am   BACKBONE|DICT|INTERRES
   165   84   85 1    
   166   84  205 1    
   167   85   86 1    
   168   85   87 1    
   169   85  206 1    
   170   86  207 1    
   171   86  208 1    
   172   86  209 1    
   173   87   88 2    
   174   87   89 am   BACKBONE|DICT|INTERRES
   175   89   90 1    
   176   89  210 1    
   177   90   91 1    
   178   90   92 1    
   179   90  211 1    
   180   91  212 1    
   181   91  213 1    
   182   91  214 1    
   183   92   93 2    
   184   92   94 am   BACKBONE|DICT|INTERRES
   185   94   95 1    
   186   94  215 1    
   187   95   96 1    
   188   95   97 1    
   189   95  216 1    
   190   96  217 1    
   191   96  218 1    
   192   96  219 1    
   193   97   98 2    
   194   97   99 am   BACKBONE|DICT|INTERRES
   195   99  100 1    
   196   99  220 1    
   197  100  101 1    
   198  100  102 1    
   199  100  221 1    
   200  101  222 1    
   201  101  223 1    
   202  101  224 1    
   203  102  103 2    
   204  102  104 am   BACKBONE|DICT|INTERRES
   205  104  105 1    
   206  104  225 1    
   207  105  106 1    
   208  105  107 1    
   209  105  226 1    
   210  106  227 1    
   211  106  228 1    
   212  106  229 1    
   213  107  108 2    
   214  107  109 am   BACKBONE|DICT|INTERRES
   215  109  110 1    
   216  109  230 1    
   217  110  111 1    
   218  110  112 1    
   219  110  231 1    
   220  111  232 1    
   221  111  233 1    
   222  111  234 1    
   223  112  113 2    
   224  112  114 am   BACKBONE|DICT|INTERRES
   225  114  115 1    
   226  114  235 1    
   227  115  116 1    
   228  115  117 1    
   229  115  236 1    
   230  116  237 1    
   231  116  238 1    
   232  116  239 1    
   233  117  118 2    
   234  117  119 am   BACKBONE|DICT|INTERRES
   235  119  120 1    
   236  119  240 1    
   237  120  121 1    
   238  120  124 1    
   239  120  241 1    
   240  121  122 am   BACKBONE|DICT|INTERRES
   241  121  123 2    
   242  122  242 1    
   243  122  243 1    
   244  124  125 1    
   245  124  244 1    
   246  124  245 1    
   247  125  126 1    
   248  126  246 1    
   249  126  247 1    
@<TRIPOS>SUBSTRUCTURE
     1 UNK         1 GROUP             0       ****    0 ROOT    
