@<TRIPOS>MOLECULE
3R540
247   249    1
SMALL
USER_CHARGES


@<TRIPOS>ATOM
      1 CA         -2.3349  -12.2821  -51.9760 C.3       0 UNK        -0.1800 
      2 C          -1.4790  -12.1430  -50.7247 C.2       0 UNK         0.5000 
      3 O          -1.9266  -12.5277  -49.6454 O.2       0 UNK        -0.5000 
      4 N          -0.2617  -11.6010  -50.8868 N.am      1 UNK        -0.5000 
      5 CA          0.7795  -11.3604  -49.8751 C.3       1 UNK         0.1400 
      6 C6          1.7732  -12.5499  -49.7023 C.3       23 UNK        -0.0398 
      7 S7          1.0946  -14.0926  -48.9993 S.3       23 UNK        -0.2404 
      8 C8          0.7873  -15.0797  -50.4936 C.3       23 UNK        -0.0205 
      9 C9         -0.0905  -16.2717  -50.1600 C.ar      23 UNK        -0.0193 
     10 C10        -1.4645  -16.0915  -49.9835 C.ar      23 UNK        -0.1150 
     11 C11        -2.2849  -17.1652  -49.6331 C.ar      23 UNK        -0.0193 
     12 C12        -1.7200  -18.4338  -49.4781 C.ar      23 UNK        -0.1150 
     13 C13        -0.3505  -18.6318  -49.6739 C.ar      23 UNK        -0.0193 
     14 C14         0.4634  -17.5450  -50.0047 C.ar      23 UNK        -0.1150 
     15 C15         0.2443  -20.0214  -49.5373 C.3       23 UNK        -0.0205 
     16 S16         0.9644  -20.2630  -47.8861 S.3       23 UNK        -0.2404 
     17 C17         1.1363  -22.0809  -47.8522 C.3       23 UNK        -0.0398 
     18 CA          0.0750  -22.7940  -46.9789 C.3       11 UNK         0.1400 
     19 N           0.0733  -22.3052  -45.5978 N.am      11 UNK        -0.5000 
     20 C          -0.5873  -22.8544  -44.5688 C.2       10 UNK         0.5000 
     21 O          -1.3468  -23.8175  -44.6885 O.2       10 UNK        -0.5000 
     22 CA         -0.3838  -22.1976  -43.1881 C.3       10 UNK         0.1400 
     23 CB         -0.5368  -23.1970  -42.0241 C.3       10 UNK        -0.1800 
     24 N           0.8756  -21.4515  -43.0870 N.am      10 UNK        -0.5000 
     25 C           2.1287  -21.9268  -43.1637 C.2       9 UNK         0.5000 
     26 O           2.4132  -23.1185  -43.2833 O.2       9 UNK        -0.5000 
     27 CA          3.2582  -20.8802  -43.1321 C.3       9 UNK         0.1400 
     28 CB          3.7060  -20.5480  -44.5643 C.3       9 UNK        -0.1800 
     29 N           2.8534  -19.6452  -42.4570 N.am      9 UNK        -0.5000 
     30 C           2.7468  -19.5170  -41.1265 C.2       8 UNK         0.5000 
     31 O           3.0743  -20.3932  -40.3254 O.2       8 UNK        -0.5000 
     32 CA          2.1341  -18.2043  -40.6067 C.3       8 UNK         0.1400 
     33 CB          3.1554  -17.0621  -40.6705 C.3       8 UNK        -0.1800 
     34 N           0.9288  -17.8242  -41.3441 N.am      8 UNK        -0.5000 
     35 C          -0.2283  -18.5015  -41.3175 C.2       7 UNK         0.5000 
     36 O          -0.4202  -19.5029  -40.6288 O.2       7 UNK        -0.5000 
     37 CA         -1.3537  -17.9972  -42.2345 C.3       7 UNK         0.1400 
     38 CB         -2.3038  -17.0591  -41.4736 C.3       7 UNK        -0.1800 
     39 N          -0.8226  -17.3121  -43.4129 N.am      7 UNK        -0.5000 
     40 C          -0.4724  -17.9366  -44.5445 C.2       6 UNK         0.5000 
     41 O          -0.5527  -19.1558  -44.7057 O.2       6 UNK        -0.5000 
     42 CA          0.0558  -17.0493  -45.6848 C.3       6 UNK         0.1400 
     43 CB         -1.1076  -16.3114  -46.3621 C.3       6 UNK        -0.1800 
     44 N           1.0740  -16.0746  -45.2849 N.am      6 UNK        -0.5000 
     45 C           2.2696  -16.3762  -44.7574 C.2       5 UNK         0.5000 
     46 O           2.5818  -17.4987  -44.3619 O.2       5 UNK        -0.5000 
     47 CA          3.2836  -15.2272  -44.6372 C.3       5 UNK         0.1400 
     48 CB          3.6751  -14.6767  -46.0185 C.3       5 UNK        -0.1800 
     49 N           2.7137  -14.1560  -43.8302 N.am      5 UNK        -0.5000 
     50 C           3.1095  -13.8319  -42.5925 C.2       4 UNK         0.5000 
     51 O           4.1337  -14.2677  -42.0667 O.2       4 UNK        -0.5000 
     52 CA          2.2112  -12.8676  -41.7867 C.3       4 UNK         0.1400 
     53 CB          2.8691  -11.4829  -41.6809 C.3       4 UNK        -0.1800 
     54 N           0.8602  -12.7007  -42.3280 N.am      4 UNK        -0.5000 
     55 C          -0.0549  -13.6676  -42.4876 C.2       3 UNK         0.5000 
     56 O           0.1132  -14.8374  -42.1445 O.2       3 UNK        -0.5000 
     57 CA         -1.3371  -13.2757  -43.2478 C.3       3 UNK         0.1400 
     58 CB         -2.4372  -12.8517  -42.2648 C.3       3 UNK        -0.1800 
     59 N          -1.1238  -12.2099  -44.2358 N.am      3 UNK        -0.5000 
     60 C          -0.2859  -12.2892  -45.2792 C.2       2 UNK         0.5000 
     61 O           0.3946  -13.2878  -45.5350 O.2       2 UNK        -0.5000 
     62 CA         -0.1275  -11.0215  -46.1273 C.3       2 UNK         0.1400 
     63 CB          0.8391  -10.0332  -45.4502 C.3       2 UNK        -0.1800 
     64 N           0.3913  -11.4033  -47.4331 N.am      2 UNK        -0.5000 
     65 C           0.2371  -10.7217  -48.5713 C.2       1 UNK         0.5000 
     66 O          -0.3067   -9.6160  -48.6308 O.2       1 UNK        -0.5000 
     67 C          -1.3255  -22.7657  -47.6223 C.2       11 UNK         0.5000 
     68 O          -1.6387  -23.6433  -48.4265 O.2       11 UNK        -0.5000 
     69 N          -2.1526  -21.7914  -47.2142 N.am      12 UNK        -0.5000 
     70 CA         -3.5542  -21.6485  -47.6044 C.3       12 UNK         0.1400 
     71 CB         -4.1313  -20.3864  -46.9443 C.3       12 UNK        -0.1800 
     72 C          -4.3997  -22.8842  -47.2450 C.2       12 UNK         0.5000 
     73 O          -5.1893  -23.3469  -48.0682 O.2       12 UNK        -0.5000 
     74 N          -4.1860  -23.4073  -46.0309 N.am      13 UNK        -0.5000 
     75 CA         -4.8457  -24.6034  -45.5188 C.3       13 UNK         0.1400 
     76 CB         -4.8497  -24.5618  -43.9826 C.3       13 UNK        -0.1800 
     77 C          -4.1697  -25.8861  -46.0268 C.2       13 UNK         0.5000 
     78 O          -4.8687  -26.8142  -46.4326 O.2       13 UNK        -0.5000 
     79 N          -2.8290  -25.9159  -45.9972 N.am      14 UNK        -0.5000 
     80 CA         -2.0175  -27.0884  -46.3289 C.3       14 UNK         0.1400 
     81 CB         -0.5553  -26.8343  -45.9348 C.3       14 UNK        -0.1800 
     82 C          -2.1177  -27.5146  -47.8039 C.2       14 UNK         0.5000 
     83 O          -2.2179  -28.7114  -48.0773 O.2       14 UNK        -0.5000 
     84 N          -2.1066  -26.5404  -48.7252 N.am      15 UNK        -0.5000 
     85 CA         -2.2595  -26.7871  -50.1614 C.3       15 UNK         0.1400 
     86 CB         -1.5379  -25.6811  -50.9471 C.3       15 UNK        -0.1800 
     87 C          -3.7353  -26.8765  -50.5930 C.2       15 UNK         0.5000 
     88 O          -4.0032  -27.3287  -51.7065 O.2       15 UNK        -0.5000 
     89 N          -4.6574  -26.4118  -49.7341 N.am      16 UNK        -0.5000 
     90 CA         -6.1207  -26.3297  -49.8749 C.3       16 UNK         0.1400 
     91 CB         -6.7469  -27.7234  -50.0666 C.3       16 UNK        -0.1800 
     92 C          -6.6004  -25.3441  -50.9606 C.2       16 UNK         0.5000 
     93 O          -7.4958  -24.5399  -50.7033 O.2       16 UNK        -0.5000 
     94 N          -5.9668  -25.3933  -52.1367 N.am      17 UNK        -0.5000 
     95 CA         -6.1090  -24.4438  -53.2415 C.3       17 UNK         0.1400 
     96 CB         -5.8958  -25.2031  -54.5618 C.3       17 UNK        -0.1800 
     97 C          -5.1212  -23.2630  -53.1205 C.2       17 UNK         0.5000 
     98 O          -5.0087  -22.4679  -54.0553 O.2       17 UNK        -0.5000 
     99 N          -4.3839  -23.1939  -51.9987 N.am      18 UNK        -0.5000 
    100 CA        -3.3995  -22.1678  -51.6312 C.3       18 UNK         0.1400 
    101 CB        -4.1074  -20.8153  -51.4187 C.3       18 UNK        -0.1800 
    102 C         -2.2142  -22.0470  -52.6112 C.2       18 UNK         0.5000 
    103 O         -1.5799  -20.9947  -52.6721 O.2       18 UNK        -0.5000 
    104 N         -1.9717  -23.1029  -53.4046 N.am      19 UNK        -0.5000 
    105 CA        -1.0258  -23.1662  -54.5272 C.3       19 UNK         0.1400 
    106 CB         0.4263  -23.1287  -54.0071 C.3       19 UNK        -0.1800 
    107 C         -1.2962  -22.0992  -55.6166 C.2       19 UNK         0.5000 
    108 O         -0.3776  -21.7243  -56.3466 O.2       19 UNK        -0.5000 
    109 N         -2.5478  -21.6133  -55.6825 N.am      20 UNK        -0.5000 
    110 CA        -3.0372  -20.4949  -56.4946 C.3       20 UNK         0.1400 
    111 CB        -2.9675  -20.8347  -57.9981 C.3       20 UNK        -0.1800 
    112 C         -2.3815  -19.1341  -56.1573 C.2       20 UNK         0.5000 
    113 O         -2.4304  -18.2191  -56.9814 O.2       20 UNK        -0.5000 
    114 N         -1.7946  -19.0022  -54.9569 N.am      21 UNK        -0.5000 
    115 CA        -1.1476  -17.7749  -54.4812 C.3       21 UNK         0.1400 
    116 CB        -0.1559  -18.1326  -53.3673 C.3       21 UNK        -0.1800 
    117 C         -2.1487  -16.7069  -53.9959 C.2       21 UNK         0.5000 
    118 O         -1.7749  -15.5399  -53.8718 O.2       21 UNK        -0.5000 
    119 N         -3.3982  -17.1127  -53.7545 N.am      22 UNK        -0.5000 
    120 CA        -4.5319  -16.2537  -53.4050 C.3       22 UNK         0.1400 
    121 C         -5.8620  -16.8327  -53.9625 C.2       22 UNK         0.5000 
    122 N         -6.9455  -16.0687  -53.9202 N.am      22 UNK        -0.7600 
    123 O         -5.9262  -17.9646  -54.4404 O.2       22 UNK        -0.5000 
    124 C124       -4.5860  -15.9208  -51.8889 C.3       23 UNK        -0.0398 
    125 S125       -4.8019  -17.3766  -50.8037 S.3       23 UNK        -0.2404 
    126 C126       -3.7673  -16.9443  -49.3712 C.3       23 UNK        -0.0205 
    127 H127       -2.4736  -13.3357  -52.2171 H         1 UNK         0.0600 
    128 H128       -3.3158  -11.8356  -51.8141 H         1 UNK         0.0600 
    129 H129       -1.8783  -11.7951  -52.8379 H         1 UNK         0.0600 
    130 H130       -0.0096  -11.2924  -51.8149 H         1 UNK         0.3000 
    131 H131        1.3783  -10.5601  -50.3129 H         1 UNK         0.0600 
    132 H132        2.6064  -12.2402  -49.0693 H         1 UNK         0.0800 
    133 H133        2.2266  -12.7812  -50.6669 H         1 UNK         0.0800 
    134 H134        1.7383  -15.4038  -50.9187 H         1 UNK         0.0800 
    135 H135        0.2965  -14.4715  -51.2541 H         1 UNK         0.0800 
    136 H136       -1.8881  -15.1038  -50.0865 H         1 UNK         0.1150 
    137 H137       -2.3457  -19.2685  -49.2014 H         1 UNK         0.1150 
    138 H138        1.5254  -17.6922  -50.1402 H         1 UNK         0.1150 
    139 H139       -0.5260  -20.7708  -49.7255 H         1 UNK         0.0800 
    140 H140        1.0121  -20.1748  -50.2972 H         1 UNK         0.0800 
    141 H141        2.1291  -22.3051  -47.4600 H         1 UNK         0.0800 
    142 H142        1.1319  -22.4782  -48.8690 H         1 UNK         0.0800 
    143 H143        0.3653  -23.8438  -46.9318 H         1 UNK         0.0600 
    144 H144        0.6142  -21.4703  -45.4216 H         1 UNK         0.3000 
    145 H145       -1.1788  -21.4573  -43.0899 H         1 UNK         0.0600 
    146 H146       -0.3880  -22.7051  -41.0626 H         1 UNK         0.0600 
    147 H147       -1.5360  -23.6340  -42.0130 H         1 UNK         0.0600 
    148 H148        0.1764  -24.0183  -42.0969 H         1 UNK         0.0600 
    149 H149        0.7710  -20.4488  -43.0228 H         1 UNK         0.3000 
    150 H150        4.1065  -21.3142  -42.5986 H         1 UNK         0.0600 
    151 H151        4.0579  -21.4413  -45.0818 H         1 UNK         0.0600 
    152 H152        4.5239  -19.8273  -44.5650 H         1 UNK         0.0600 
    153 H153        2.8903  -20.1277  -45.1546 H         1 UNK         0.0600 
    154 H154        2.6173  -18.8579  -43.0575 H         1 UNK         0.3000 
    155 H155        1.8562  -18.3531  -39.5611 H         1 UNK         0.0600 
    156 H156        3.4814  -16.8740  -41.6937 H         1 UNK         0.0600 
    157 H157        4.0431  -17.2981  -40.0825 H         1 UNK         0.0600 
    158 H158        2.7385  -16.1361  -40.2742 H         1 UNK         0.0600 
    159 H159        0.9815  -16.9902  -41.9138 H         1 UNK         0.3000 
    160 H160       -1.9350  -18.8644  -42.5559 H         1 UNK         0.0600 
    161 H161       -3.0857  -16.6721  -42.1273 H         1 UNK         0.0600 
    162 H162       -1.7793  -16.2098  -41.0369 H         1 UNK         0.0600 
    163 H163       -2.7956  -17.5887  -40.6569 H         1 UNK         0.0600 
    164 H164       -0.6432  -16.3202  -43.3145 H         1 UNK         0.3000 
    165 H165        0.5132  -17.7055  -46.4270 H         1 UNK         0.0600 
    166 H166       -0.7628  -15.7488  -47.2285 H         1 UNK         0.0600 
    167 H167       -1.8655  -17.0140  -46.7099 H         1 UNK         0.0600 
    168 H168       -1.5943  -15.6094  -45.6857 H         1 UNK         0.0600 
    169 H169        0.8864  -15.1100  -45.5447 H         1 UNK         0.3000 
    170 H170        4.1839  -15.6313  -44.1697 H         1 UNK         0.0600 
    171 H171        4.0415  -15.4723  -46.6684 H         1 UNK         0.0600 
    172 H172        2.8333  -14.2015  -46.5219 H         1 UNK         0.0600 
    173 H173        4.4688  -13.9349  -45.9315 H         1 UNK         0.0600 
    174 H174        1.8598  -13.7438  -44.1874 H         1 UNK         0.3000 
    175 H175        2.1152  -13.2831  -40.7816 H         1 UNK         0.0600 
    176 H176        2.2887  -10.8170  -41.0420 H         1 UNK         0.0600 
    177 H177        3.8680  -11.5551  -41.2485 H         1 UNK         0.0600 
    178 H178        2.9681  -11.0101  -42.6590 H         1 UNK         0.0600 
    179 H179        0.6253  -11.7759  -42.6557 H         1 UNK         0.3000 
    180 H180       -1.6835  -14.1613  -43.7829 H         1 UNK         0.0600 
    181 H181       -2.1616  -11.9511  -41.7148 H         1 UNK         0.0600 
    182 H182       -2.6310  -13.6374  -41.5332 H         1 UNK         0.0600 
    183 H183       -3.3756  -12.6553  -42.7837 H         1 UNK         0.0600 
    184 H184       -1.6398  -11.3542  -44.0880 H         1 UNK         0.3000 
    185 H185       -1.1100  -10.5602  -46.2474 H         1 UNK         0.0600 
    186 H186        1.8282  -10.4719  -45.3115 H         1 UNK         0.0600 
    187 H187        0.9569   -9.1256  -46.0422 H         1 UNK         0.0600 
    188 H188        0.4718   -9.7315  -44.4687 H         1 UNK         0.0600 
    189 H189        0.7704  -12.3439  -47.4682 H         1 UNK         0.3000 
    190 H190       -1.7923  -21.1162  -46.5540 H         1 UNK         0.3000 
    191 H191       -3.5876  -21.5152  -48.6844 H         1 UNK         0.0600 
    192 H192       -4.1628  -20.4768  -45.8577 H         1 UNK         0.0600 
    193 H193       -5.1488  -20.1979  -47.2889 H         1 UNK         0.0600 
    194 H194       -3.5378  -19.5045  -47.1820 H         1 UNK         0.0600 
    195 H195       -3.4664  -23.0039  -45.4481 H         1 UNK         0.3000 
    196 H196       -5.8839  -24.6111  -45.8584 H         1 UNK         0.0600 
    197 H197       -5.3483  -25.4399  -43.5702 H         1 UNK         0.0600 
    198 H198       -5.3812  -23.6841  -43.6145 H         1 UNK         0.0600 
    199 H199       -3.8386  -24.5364  -43.5739 H         1 UNK         0.0600 
    200 H200       -2.3306  -25.1150  -45.6164 H         1 UNK         0.3000 
    201 H201       -2.3850  -27.9192  -45.7228 H         1 UNK         0.0600 
    202 H202       -0.4688  -26.5705  -44.8805 H         1 UNK         0.0600 
    203 H203       -0.1166  -26.0278  -46.5200 H         1 UNK         0.0600 
    204 H204        0.0526  -27.7248  -46.0986 H         1 UNK         0.0600 
    205 H205       -2.0003  -25.5710  -48.4382 H         1 UNK         0.3000 
    206 H206       -1.7855  -27.7370  -50.4177 H         1 UNK         0.0600 
    207 H207       -0.4923  -25.6015  -50.6494 H         1 UNK         0.0600 
    208 H208       -1.5553  -25.8865  -52.0181 H         1 UNK         0.0600 
    209 H209       -2.0036  -24.7094  -50.7922 H         1 UNK         0.0600 
    210 H210       -4.3088  -26.0626  -48.8522 H         1 UNK         0.3000 
    211 H211       -6.4808  -25.9399  -48.9211 H         1 UNK         0.0600 
    212 H212       -6.4485  -28.1814  -51.0099 H         1 UNK         0.0600 
    213 H213       -7.8358  -27.6627  -50.0651 H         1 UNK         0.0600 
    214 H214       -6.4577  -28.3970  -49.2598 H         1 UNK         0.0600 
    215 H215       -5.2503  -26.1095  -52.2402 H         1 UNK         0.3000 
    216 H216       -7.1185  -24.0282  -53.2414 H         1 UNK         0.0600 
    217 H217       -6.0426  -24.5489  -55.4222 H         1 UNK         0.0600 
    218 H218       -6.6031  -26.0269  -54.6598 H         1 UNK         0.0600 
    219 H219       -4.8888  -25.6167  -54.6299 H         1 UNK         0.0600 
    220 H220       -4.5584  -23.8992  -51.2977 H         1 UNK         0.3000 
    221 H221       -2.9672  -22.4781  -50.6803 H         1 UNK         0.0600 
    222 H222       -4.5322  -20.4269  -52.3449 H         1 UNK         0.0600 
    223 H223       -4.9141  -20.8975  -50.6904 H         1 UNK         0.0600 
    224 H224       -3.4125  -20.0635  -51.0499 H         1 UNK         0.0600 
    225 H225       -2.5660  -23.9108  -53.2919 H         1 UNK         0.3000 
    226 H226       -1.1820  -24.1336  -55.0062 H         1 UNK         0.0600 
    227 H227        0.5888  -23.8842  -53.2383 H         1 UNK         0.0600 
    228 H228        1.1362  -23.3272  -54.8107 H         1 UNK         0.0600 
    229 H229        0.6787  -22.1572  -53.5810 H         1 UNK         0.0600 
    230 H230       -3.2351  -21.9945  -55.0398 H         1 UNK         0.3000 
    231 H231       -4.0910  -20.3842  -56.2345 H         1 UNK         0.0600 
    232 H232       -3.4427  -21.7929  -58.2082 H         1 UNK         0.0600 
    233 H233       -1.9390  -20.8835  -58.3562 H         1 UNK         0.0600 
    234 H234       -3.4841  -20.0817  -58.5942 H         1 UNK         0.0600 
    235 H235       -1.7807  -19.7900  -54.3167 H         1 UNK         0.3000 
    236 H236       -0.5801  -17.3400  -55.3065 H         1 UNK         0.0600 
    237 H237        0.4081  -17.2550  -53.0494 H         1 UNK         0.0600 
    238 H238       -0.6735  -18.5243  -52.4923 H         1 UNK         0.0600 
    239 H239        0.5624  -18.8831  -53.6972 H         1 UNK         0.0600 
    240 H240       -3.6394  -18.0811  -53.9119 H         1 UNK         0.3000 
    241 H241       -4.3928  -15.3133  -53.9420 H         1 UNK         0.0600 
    242 H242       -7.8130  -16.4358  -54.2800 H         1 UNK         0.3800 
    243 H243       -6.9252  -15.1334  -53.5448 H         1 UNK         0.3800 
    244 H244       -3.6715  -15.3993  -51.6112 H         1 UNK         0.0800 
    245 H245       -5.3932  -15.2178  -51.6800 H         1 UNK         0.0800 
    246 H246       -3.9564  -15.9095  -49.0812 H         1 UNK         0.0800 
    247 H247       -4.0780  -17.5540  -48.5225 H         1 UNK         0.0800 
@<TRIPOS>BOND
     1    1    2 1    
     2    1  127 1    
     3    1  128 1    
     4    1  129 1    
     5    2    3 2    
     6    2    4 am   BACKBONE|DICT|INTERRES
     7    4    5 1    
     8    4  130 1    
     9    5    6 1    
    10    5   65 1    
    11    5  131 1    
    12    6    7 1    
    13    6  132 1    
    14    6  133 1    
    15    7    8 1    
    16    8    9 1    
    17    8  134 1    
    18    8  135 1    
    19    9   10 ar   
    20    9   14 ar   
    21   10   11 ar   
    22   10  136 1    
    23   11   12 ar   
    24   11  126 1    
    25   12   13 ar   
    26   12  137 1    
    27   13   14 ar   
    28   13   15 1    
    29   14  138 1    
    30   15   16 1    
    31   15  139 1    
    32   15  140 1    
    33   16   17 1    
    34   17   18 1    
    35   17  141 1    
    36   17  142 1    
    37   18   19 1    
    38   18   67 1    
    39   18  143 1    
    40   19   20 am   BACKBONE|DICT|INTERRES
    41   19  144 1    
    42   20   21 2    
    43   20   22 1    
    44   22   23 1    
    45   22   24 1    
    46   22  145 1    
    47   23  146 1    
    48   23  147 1    
    49   23  148 1    
    50   24   25 am   BACKBONE|DICT|INTERRES
    51   24  149 1    
    52   25   26 2    
    53   25   27 1    
    54   27   28 1    
    55   27   29 1    
    56   27  150 1    
    57   28  151 1    
    58   28  152 1    
    59   28  153 1    
    60   29   30 am   BACKBONE|DICT|INTERRES
    61   29  154 1    
    62   30   31 2    
    63   30   32 1    
    64   32   33 1    
    65   32   34 1    
    66   32  155 1    
    67   33  156 1    
    68   33  157 1    
    69   33  158 1    
    70   34   35 am   BACKBONE|DICT|INTERRES
    71   34  159 1    
    72   35   36 2    
    73   35   37 1    
    74   37   38 1    
    75   37   39 1    
    76   37  160 1    
    77   38  161 1    
    78   38  162 1    
    79   38  163 1    
    80   39   40 am   BACKBONE|DICT|INTERRES
    81   39  164 1    
    82   40   41 2    
    83   40   42 1    
    84   42   43 1    
    85   42   44 1    
    86   42  165 1    
    87   43  166 1    
    88   43  167 1    
    89   43  168 1    
    90   44   45 am   BACKBONE|DICT|INTERRES
    91   44  169 1    
    92   45   46 2    
    93   45   47 1    
    94   47   48 1    
    95   47   49 1    
    96   47  170 1    
    97   48  171 1    
    98   48  172 1    
    99   48  173 1    
   100   49   50 am   BACKBONE|DICT|INTERRES
   101   49  174 1    
   102   50   51 2    
   103   50   52 1    
   104   52   53 1    
   105   52   54 1    
   106   52  175 1    
   107   53  176 1    
   108   53  177 1    
   109   53  178 1    
   110   54   55 am   BACKBONE|DICT|INTERRES
   111   54  179 1    
   112   55   56 2    
   113   55   57 1    
   114   57   58 1    
   115   57   59 1    
   116   57  180 1    
   117   58  181 1    
   118   58  182 1    
   119   58  183 1    
   120   59   60 am   BACKBONE|DICT|INTERRES
   121   59  184 1    
   122   60   61 2    
   123   60   62 1    
   124   62   63 1    
   125   62   64 1    
   126   62  185 1    
   127   63  186 1    
   128   63  187 1    
   129   63  188 1    
   130   64   65 am   BACKBONE|DICT|INTERRES
   131   64  189 1    
   132   65   66 2    
   133   67   68 2    
   134   67   69 am   BACKBONE|DICT|INTERRES
   135   69   70 1    
   136   69  190 1    
   137   70   71 1    
   138   70   72 1    
   139   70  191 1    
   140   71  192 1    
   141   71  193 1    
   142   71  194 1    
   143   72   73 2    
   144   72   74 am   BACKBONE|DICT|INTERRES
   145   74   75 1    
   146   74  195 1    
   147   75   76 1    
   148   75   77 1    
   149   75  196 1    
   150   76  197 1    
   151   76  198 1    
   152   76  199 1    
   153   77   78 2    
   154   77   79 am   BACKBONE|DICT|INTERRES
   155   79   80 1    
   156   79  200 1    
   157   80   81 1    
   158   80   82 1    
   159   80  201 1    
   160   81  202 1    
   161   81  203 1    
   162   81  204 1    
   163   82   83 2    
   164   82   84 am   BACKBONE|DICT|INTERRES
   165   84   85 1    
   166   84  205 1    
   167   85   86 1    
   168   85   87 1    
   169   85  206 1    
   170   86  207 1    
   171   86  208 1    
   172   86  209 1    
   173   87   88 2    
   174   87   89 am   BACKBONE|DICT|INTERRES
   175   89   90 1    
   176   89  210 1    
   177   90   91 1    
   178   90   92 1    
   179   90  211 1    
   180   91  212 1    
   181   91  213 1    
   182   91  214 1    
   183   92   93 2    
   184   92   94 am   BACKBONE|DICT|INTERRES
   185   94   95 1    
   186   94  215 1    
   187   95   96 1    
   188   95   97 1    
   189   95  216 1    
   190   96  217 1    
   191   96  218 1    
   192   96  219 1    
   193   97   98 2    
   194   97   99 am   BACKBONE|DICT|INTERRES
   195   99  100 1    
   196   99  220 1    
   197  100  101 1    
   198  100  102 1    
   199  100  221 1    
   200  101  222 1    
   201  101  223 1    
   202  101  224 1    
   203  102  103 2    
   204  102  104 am   BACKBONE|DICT|INTERRES
   205  104  105 1    
   206  104  225 1    
   207  105  106 1    
   208  105  107 1    
   209  105  226 1    
   210  106  227 1    
   211  106  228 1    
   212  106  229 1    
   213  107  108 2    
   214  107  109 am   BACKBONE|DICT|INTERRES
   215  109  110 1    
   216  109  230 1    
   217  110  111 1    
   218  110  112 1    
   219  110  231 1    
   220  111  232 1    
   221  111  233 1    
   222  111  234 1    
   223  112  113 2    
   224  112  114 am   BACKBONE|DICT|INTERRES
   225  114  115 1    
   226  114  235 1    
   227  115  116 1    
   228  115  117 1    
   229  115  236 1    
   230  116  237 1    
   231  116  238 1    
   232  116  239 1    
   233  117  118 2    
   234  117  119 am   BACKBONE|DICT|INTERRES
   235  119  120 1    
   236  119  240 1    
   237  120  121 1    
   238  120  124 1    
   239  120  241 1    
   240  121  122 am   BACKBONE|DICT|INTERRES
   241  121  123 2    
   242  122  242 1    
   243  122  243 1    
   244  124  125 1    
   245  124  244 1    
   246  124  245 1    
   247  125  126 1    
   248  126  246 1    
   249  126  247 1    
@<TRIPOS>SUBSTRUCTURE
     1 UNK         1 GROUP             0       ****    0 ROOT    
