@<TRIPOS>MOLECULE
3R540
247   249    1
SMALL
USER_CHARGES


@<TRIPOS>ATOM
      1 CA         -3.4420  -13.4720  -44.3101 C.3       0 UNK        -0.1800 
      2 C          -3.7128  -13.2649  -45.7935 C.2       0 UNK         0.5000 
      3 O          -4.3664  -12.2889  -46.1637 O.2       0 UNK        -0.5000 
      4 N          -3.2253  -14.1803  -46.6395 N.am      1 UNK        -0.5000 
      5 CA         -3.3169  -14.0979  -48.0996 C.3       1 UNK         0.1400 
      6 C6         -3.2822  -15.5040  -48.7487 C.3       23 UNK        -0.0398 
      7 S7         -1.6987  -16.3990  -48.5909 S.3       23 UNK        -0.2404 
      8 C8         -2.2935  -18.1124  -48.6877 C.3       23 UNK        -0.0205 
      9 C9         -1.2932  -19.0289  -49.3730 C.ar      23 UNK        -0.0193 
     10 C10        -1.1597  -19.0001  -50.7625 C.ar      23 UNK        -0.1150 
     11 C11        -0.2595  -19.8537  -51.4053 C.ar      23 UNK        -0.0193 
     12 C12         0.5021  -20.7494  -50.6492 C.ar      23 UNK        -0.1150 
     13 C13         0.3887  -20.7809  -49.2569 C.ar      23 UNK        -0.0193 
     14 C14        -0.5157  -19.9183  -48.6281 C.ar      23 UNK        -0.1150 
     15 C15         1.2885  -21.7047  -48.4433 C.3       23 UNK        -0.0205 
     16 S16         0.5553  -23.3408  -48.1338 S.3       23 UNK        -0.2404 
     17 C17        -0.7260  -23.0069  -46.8771 C.3       23 UNK        -0.0398 
     18 CA         -0.4097  -23.6689  -45.5092 C.3       11 UNK         0.1400 
     19 N           0.5344  -22.8867  -44.7058 N.am      11 UNK        -0.5000 
     20 C           1.3141  -23.3752  -43.7324 C.2       10 UNK         0.5000 
     21 O           1.3513  -24.5691  -43.4276 O.2       10 UNK        -0.5000 
     22 CA          2.1788  -22.3678  -42.9533 C.3       10 UNK         0.1400 
     23 CB          3.4245  -21.9798  -43.7646 C.3       10 UNK        -0.1800 
     24 N           1.4466  -21.1608  -42.5636 N.am      10 UNK        -0.5000 
     25 C           0.4877  -21.1162  -41.6271 C.2       9 UNK         0.5000 
     26 O           0.1169  -22.0986  -40.9837 O.2       9 UNK        -0.5000 
     27 CA         -0.1637  -19.7450  -41.3515 C.3       9 UNK         0.1400 
     28 CB          0.6988  -18.9119  -40.3910 C.3       9 UNK        -0.1800 
     29 N          -0.4073  -18.9780  -42.5721 N.am      9 UNK        -0.5000 
     30 C          -1.3399  -19.2872  -43.4832 C.2       8 UNK         0.5000 
     31 O          -2.1640  -20.1895  -43.3386 O.2       8 UNK        -0.5000 
     32 CA         -1.3254  -18.4803  -44.7975 C.3       8 UNK         0.1400 
     33 CB         -2.1998  -17.2255  -44.6819 C.3       8 UNK        -0.1800 
     34 N           0.0195  -18.1025  -45.2436 N.am      8 UNK        -0.5000 
     35 C           0.9941  -18.9834  -45.5094 C.2       7 UNK         0.5000 
     36 O           0.8467  -20.1995  -45.4199 O.2       7 UNK        -0.5000 
     37 CA          2.3769  -18.4230  -45.8698 C.3       7 UNK         0.1400 
     38 CB          2.4251  -17.9355  -47.3269 C.3       7 UNK        -0.1800 
     39 N           2.7664  -17.3569  -44.9484 N.am      7 UNK        -0.5000 
     40 C           3.0562  -17.5596  -43.6535 C.2       6 UNK         0.5000 
     41 O           3.0949  -18.6725  -43.1302 O.2       6 UNK        -0.5000 
     42 CA          3.2966  -16.3098  -42.7870 C.3       6 UNK         0.1400 
     43 CB          4.7694  -15.8803  -42.8562 C.3       6 UNK        -0.1800 
     44 N           2.4461  -15.1858  -43.1783 N.am      6 UNK        -0.5000 
     45 C           1.1101  -15.1610  -43.0616 C.2       5 UNK         0.5000 
     46 O           0.4534  -16.0589  -42.5349 O.2       5 UNK        -0.5000 
     47 CA          0.3912  -13.9581  -43.7043 C.3       5 UNK         0.1400 
     48 CB          0.2844  -12.7896  -42.7143 C.3       5 UNK        -0.1800 
     49 N           1.0604  -13.5075  -44.9295 N.am      5 UNK        -0.5000 
     50 C           1.1155  -14.2375  -46.0508 C.2       4 UNK         0.5000 
     51 O           0.5223  -15.3102  -46.1873 O.2       4 UNK        -0.5000 
     52 CA          2.0668  -13.7413  -47.1496 C.3       4 UNK         0.1400 
     53 CB          3.5043  -14.2000  -46.8157 C.3       4 UNK        -0.1800 
     54 N           1.6019  -14.2500  -48.4409 N.am      4 UNK        -0.5000 
     55 C           2.2074  -14.1609  -49.6348 C.2       3 UNK         0.5000 
     56 O           3.3400  -13.7132  -49.8143 O.2       3 UNK        -0.5000 
     57 CA          1.3600  -14.5690  -50.8567 C.3       3 UNK         0.1400 
     58 CB          1.1694  -16.0934  -50.9306 C.3       3 UNK        -0.1800 
     59 N           0.0642  -13.8832  -50.8331 N.am      3 UNK        -0.5000 
     60 C          -0.0738  -12.5576  -51.0093 C.2       2 UNK         0.5000 
     61 O           0.8374  -11.8309  -51.4079 O.2       2 UNK        -0.5000 
     62 CA         -1.4286  -11.9118  -50.6536 C.3       2 UNK         0.1400 
     63 CB         -2.1194  -11.3114  -51.8871 C.3       2 UNK        -0.1800 
     64 N          -2.3498  -12.8193  -49.9664 N.am      2 UNK        -0.5000 
     65 C          -2.2487  -13.1358  -48.6686 C.2       1 UNK         0.5000 
     66 O          -1.3462  -12.7078  -47.9431 O.2       1 UNK        -0.5000 
     67 C          -1.6857  -23.9832  -44.6981 C.2       11 UNK         0.5000 
     68 O          -2.7717  -23.5074  -45.0281 O.2       11 UNK        -0.5000 
     69 N          -1.5352  -24.8236  -43.6664 N.am      12 UNK        -0.5000 
     70 CA         -2.6390  -25.5262  -43.0059 C.3       12 UNK         0.1400 
     71 CB         -2.1518  -26.0625  -41.6518 C.3       12 UNK        -0.1800 
     72 C          -3.1818  -26.6736  -43.8862 C.2       12 UNK         0.5000 
     73 O          -4.3496  -27.0441  -43.7648 O.2       12 UNK        -0.5000 
     74 N          -2.3199  -27.1854  -44.7719 N.am      13 UNK        -0.5000 
     75 CA         -2.6149  -28.1078  -45.8611 C.3       13 UNK         0.1400 
     76 CB         -2.0588  -29.4997  -45.5064 C.3       13 UNK        -0.1800 
     77 C          -2.0063  -27.5200  -47.1505 C.2       13 UNK         0.5000 
     78 O          -1.7790  -26.3078  -47.2137 O.2       13 UNK        -0.5000 
     79 N          -1.7593  -28.3675  -48.1596 N.am      14 UNK        -0.5000 
     80 CA         -1.2390  -28.0208  -49.4884 C.3       14 UNK         0.1400 
     81 CB          0.2100  -27.4876  -49.4002 C.3       14 UNK        -0.1800 
     82 C          -2.2121  -27.0818  -50.2289 C.2       14 UNK         0.5000 
     83 O          -3.2572  -27.5488  -50.6843 O.2       14 UNK        -0.5000 
     84 N          -1.8866  -25.7833  -50.3016 N.am      15 UNK        -0.5000 
     85 CA         -2.7743  -24.7391  -50.8206 C.3       15 UNK         0.1400 
     86 CB         -1.9566  -23.4676  -51.1000 C.3       15 UNK        -0.1800 
     87 C          -3.9459  -24.4184  -49.8703 C.2       15 UNK         0.5000 
     88 O          -4.9217  -23.8090  -50.3091 O.2       15 UNK        -0.5000 
     89 N          -3.8166  -24.7906  -48.5846 N.am      16 UNK        -0.5000 
     90 CA         -4.7972  -24.6522  -47.4964 C.3       16 UNK         0.1400 
     91 CB         -5.9961  -25.5879  -47.7494 C.3       16 UNK        -0.1800 
     92 C          -5.2402  -23.1975  -47.2188 C.2       16 UNK         0.5000 
     93 O          -6.2957  -22.9798  -46.6219 O.2       16 UNK        -0.5000 
     94 N          -4.4417  -22.2347  -47.7041 N.am      17 UNK        -0.5000 
     95 CA         -4.7030  -20.7961  -47.7766 C.3       17 UNK         0.1400 
     96 CB         -4.7360  -20.1693  -46.3680 C.3       17 UNK        -0.1800 
     97 C          -5.9361  -20.4285  -48.6353 C.2       17 UNK         0.5000 
     98 O          -6.4730  -19.3298  -48.4880 O.2       17 UNK        -0.5000 
     99 N          -6.3601  -21.3404  -49.5247 N.am      18 UNK        -0.5000 
    100 CA        -7.4805  -21.1453  -50.4453 C.3       18 UNK         0.1400 
    101 CB        -8.0426  -22.5153  -50.8544 C.3       18 UNK        -0.1800 
    102 C         -7.0696  -20.3333  -51.6857 C.2       18 UNK         0.5000 
    103 O         -7.9066  -19.6349  -52.2594 O.2       18 UNK        -0.5000 
    104 N         -5.7887  -20.4268  -52.0687 N.am      19 UNK        -0.5000 
    105 CA        -5.1649  -19.5943  -53.0934 C.3       19 UNK         0.1400 
    106 CB        -3.8111  -20.2081  -53.4825 C.3       19 UNK        -0.1800 
    107 C         -4.9822  -18.1606  -52.5675 C.2       19 UNK         0.5000 
    108 O         -4.4922  -17.9851  -51.4513 O.2       19 UNK        -0.5000 
    109 N         -5.3752  -17.1645  -53.3698 N.am      20 UNK        -0.5000 
    110 CA        -5.2861  -15.7490  -53.0040 C.3       20 UNK         0.1400 
    111 CB        -6.1574  -14.9206  -53.9601 C.3       20 UNK        -0.1800 
    112 C         -3.8413  -15.2200  -52.9991 C.2       20 UNK         0.5000 
    113 O         -3.5093  -14.3764  -52.1660 O.2       20 UNK        -0.5000 
    114 N         -3.0176  -15.7281  -53.9216 N.am      21 UNK        -0.5000 
    115 CA        -1.6214  -15.3637  -54.1215 C.3       21 UNK         0.1400 
    116 CB        -1.5335  -14.0475  -54.9172 C.3       21 UNK        -0.1800 
    117 C         -0.9211  -16.4948  -54.8869 C.2       21 UNK         0.5000 
    118 O         -1.5913  -17.3404  -55.4867 O.2       21 UNK        -0.5000 
    119 N          0.4118  -16.4609  -54.8815 N.am      22 UNK        -0.5000 
    120 CA         1.3104  -17.3482  -55.6291 C.3       22 UNK         0.1400 
    121 C          2.7540  -16.7735  -55.6431 C.2       22 UNK         0.5000 
    122 N          3.6347  -17.3052  -56.4803 N.am      22 UNK        -0.7600 
    123 O          3.0865  -15.8439  -54.9088 O.2       22 UNK        -0.5000 
    124 C124        1.2542  -18.8351  -55.1736 C.3       23 UNK        -0.0398 
    125 S125        1.5013  -19.0751  -53.3801 S.3       23 UNK        -0.2404 
    126 C126       -0.1005  -19.8000  -52.9141 C.3       23 UNK        -0.0205 
    127 H127       -3.0501  -14.4671  -44.1054 H         1 UNK         0.0600 
    128 H128       -4.3625  -13.3511  -43.7391 H         1 UNK         0.0600 
    129 H129       -2.7205  -12.7366  -43.9547 H         1 UNK         0.0600 
    130 H130       -2.6371  -14.9225  -46.2906 H         1 UNK         0.3000 
    131 H131       -4.2868  -13.6622  -48.3495 H         1 UNK         0.0600 
    132 H132       -4.0744  -16.1109  -48.3074 H         1 UNK         0.0800 
    133 H133       -3.5291  -15.4446  -49.8081 H         1 UNK         0.0800 
    134 H134       -2.5152  -18.4603  -47.6799 H         1 UNK         0.0800 
    135 H135       -3.2338  -18.1513  -49.2365 H         1 UNK         0.0800 
    136 H136       -1.7550  -18.3057  -51.3391 H         1 UNK         0.1150 
    137 H137        1.2034  -21.4045  -51.1465 H         1 UNK         0.1150 
    138 H138       -0.6138  -19.9270  -47.5562 H         1 UNK         0.1150 
    139 H139        2.2260  -21.8538  -48.9808 H         1 UNK         0.0800 
    140 H140        1.5722  -21.2446  -47.5014 H         1 UNK         0.0800 
    141 H141       -1.6448  -23.4105  -47.3027 H         1 UNK         0.0800 
    142 H142       -0.9000  -21.9408  -46.7511 H         1 UNK         0.0800 
    143 H143        0.0471  -24.6382  -45.7221 H         1 UNK         0.0600 
    144 H144        0.5739  -21.8869  -44.9004 H         1 UNK         0.3000 
    145 H145        2.5177  -22.8617  -42.0402 H         1 UNK         0.0600 
    146 H146        4.0796  -21.3235  -43.1915 H         1 UNK         0.0600 
    147 H147        4.0046  -22.8630  -44.0348 H         1 UNK         0.0600 
    148 H148        3.1614  -21.4660  -44.6891 H         1 UNK         0.0600 
    149 H149        1.7160  -20.3014  -43.0278 H         1 UNK         0.3000 
    150 H150       -1.1255  -19.9257  -40.8667 H         1 UNK         0.0600 
    151 H151        0.8619  -19.4436  -39.4528 H         1 UNK         0.0600 
    152 H152        0.2164  -17.9645  -40.1495 H         1 UNK         0.0600 
    153 H153        1.6774  -18.6887  -40.8159 H         1 UNK         0.0600 
    154 H154        0.1840  -18.1720  -42.7381 H         1 UNK         0.3000 
    155 H155       -1.7538  -19.1226  -45.5677 H         1 UNK         0.0600 
    156 H156       -1.8239  -16.5473  -43.9165 H         1 UNK         0.0600 
    157 H157       -3.2253  -17.4865  -44.4174 H         1 UNK         0.0600 
    158 H158       -2.2334  -16.6851  -45.6260 H         1 UNK         0.0600 
    159 H159        0.2001  -17.1136  -45.3869 H         1 UNK         0.3000 
    160 H160        3.1012  -19.2341  -45.7710 H         1 UNK         0.0600 
    161 H161        1.7045  -17.1432  -47.5239 H         1 UNK         0.0600 
    162 H162        2.1982  -18.7500  -48.0148 H         1 UNK         0.0600 
    163 H163        3.4161  -17.5658  -47.5882 H         1 UNK         0.0600 
    164 H164        2.7017  -16.4118  -45.2916 H         1 UNK         0.3000 
    165 H165        3.0619  -16.5705  -41.7527 H         1 UNK         0.0600 
    166 H166        4.9662  -15.0378  -42.1930 H         1 UNK         0.0600 
    167 H167        5.4273  -16.6945  -42.5492 H         1 UNK         0.0600 
    168 H168        5.0585  -15.5880  -43.8666 H         1 UNK         0.0600 
    169 H169        2.9054  -14.3960  -43.6057 H         1 UNK         0.3000 
    170 H170       -0.6181  -14.2793  -43.9657 H         1 UNK         0.0600 
    171 H171       -0.2345  -13.0963  -41.8051 H         1 UNK         0.0600 
    172 H172        1.2664  -12.4155  -42.4224 H         1 UNK         0.0600 
    173 H173       -0.2775  -11.9600  -43.1437 H         1 UNK         0.0600 
    174 H174        1.5620  -12.6324  -44.8796 H         1 UNK         0.3000 
    175 H175        2.0245  -12.6512  -47.1787 H         1 UNK         0.0600 
    176 H176        3.6321  -15.2711  -46.9646 H         1 UNK         0.0600 
    177 H177        4.2427  -13.6884  -47.4317 H         1 UNK         0.0600 
    178 H178        3.7668  -13.9777  -45.7810 H         1 UNK         0.0600 
    179 H179        0.6742  -14.6535  -48.3947 H         1 UNK         0.3000 
    180 H180        1.8904  -14.2588  -51.7598 H         1 UNK         0.0600 
    181 H181        0.7635  -16.5056  -50.0082 H         1 UNK         0.0600 
    182 H182        2.1239  -16.5907  -51.1062 H         1 UNK         0.0600 
    183 H183        0.5050  -16.3789  -51.7455 H         1 UNK         0.0600 
    184 H184       -0.7314  -14.4090  -50.5022 H         1 UNK         0.3000 
    185 H185       -1.2037  -11.0813  -49.9808 H         1 UNK         0.0600 
    186 H186       -1.4600  -10.6180  -52.4104 H         1 UNK         0.0600 
    187 H187       -2.4168  -12.0785  -52.5968 H         1 UNK         0.0600 
    188 H188       -3.0135  -10.7561  -51.6040 H         1 UNK         0.0600 
    189 H189       -3.0498  -13.2628  -50.5542 H         1 UNK         0.3000 
    190 H190       -0.5908  -25.0935  -43.4095 H         1 UNK         0.3000 
    191 H191       -3.4535  -24.8212  -42.8271 H         1 UNK         0.0600 
    192 H192       -1.8009  -25.2526  -41.0116 H         1 UNK         0.0600 
    193 H193       -2.9575  -26.5714  -41.1212 H         1 UNK         0.0600 
    194 H194       -1.3342  -26.7746  -41.7706 H         1 UNK         0.0600 
    195 H195       -1.4073  -26.7571  -44.8274 H         1 UNK         0.3000 
    196 H196       -3.6936  -28.1777  -46.0141 H         1 UNK         0.0600 
    197 H197       -2.3534  -30.2482  -46.2424 H         1 UNK         0.0600 
    198 H198       -2.4389  -29.8374  -44.5419 H         1 UNK         0.0600 
    199 H199       -0.9694  -29.4958  -45.4504 H         1 UNK         0.0600 
    200 H200       -1.9996  -29.3404  -48.0328 H         1 UNK         0.3000 
    201 H201       -1.2098  -28.9475  -50.0636 H         1 UNK         0.0600 
    202 H202        0.8689  -28.2329  -48.9550 H         1 UNK         0.0600 
    203 H203        0.2927  -26.5806  -48.8010 H         1 UNK         0.0600 
    204 H204        0.6039  -27.2635  -50.3923 H         1 UNK         0.0600 
    205 H205       -1.0228  -25.4775  -49.8757 H         1 UNK         0.3000 
    206 H206       -3.2004  -25.0848  -51.7646 H         1 UNK         0.0600 
    207 H207       -1.1219  -23.6696  -51.7712 H         1 UNK         0.0600 
    208 H208       -2.5733  -22.7021  -51.5728 H         1 UNK         0.0600 
    209 H209       -1.5538  -23.0366  -50.1838 H         1 UNK         0.0600 
    210 H210       -2.9600  -25.2672  -48.3148 H         1 UNK         0.3000 
    211 H211       -4.2986  -24.9989  -46.5909 H         1 UNK         0.0600 
    212 H212       -6.5848  -25.2652  -48.6089 H         1 UNK         0.0600 
    213 H213       -6.6625  -25.6155  -46.8865 H         1 UNK         0.0600 
    214 H214       -5.6650  -26.6100  -47.9335 H         1 UNK         0.0600 
    215 H215       -3.6097  -22.5461  -48.1815 H         1 UNK         0.3000 
    216 H216       -3.8462  -20.3813  -48.3045 H         1 UNK         0.0600 
    217 H217       -4.7441  -19.0801  -46.4219 H         1 UNK         0.0600 
    218 H218       -3.8606  -20.4601  -45.7868 H         1 UNK         0.0600 
    219 H219       -5.6217  -20.4758  -45.8112 H         1 UNK         0.0600 
    220 H220       -5.8636  -22.2231  -49.6047 H         1 UNK         0.3000 
    221 H221       -8.2710  -20.5954  -49.9301 H         1 UNK         0.0600 
    222 H222       -7.3102  -23.1036  -51.4083 H         1 UNK         0.0600 
    223 H223       -8.3459  -23.0940  -49.9817 H         1 UNK         0.0600 
    224 H224       -8.9204  -22.4013  -51.4916 H         1 UNK         0.0600 
    225 H225       -5.1714  -21.0035  -51.5177 H         1 UNK         0.3000 
    226 H226       -5.8082  -19.5796  -53.9758 H         1 UNK         0.0600 
    227 H227       -3.9358  -21.2088  -53.8965 H         1 UNK         0.0600 
    228 H228       -3.3097  -19.6024  -54.2386 H         1 UNK         0.0600 
    229 H229       -3.1433  -20.2832  -52.6238 H         1 UNK         0.0600 
    230 H230       -5.7790  -17.3789  -54.2702 H         1 UNK         0.3000 
    231 H231       -5.6845  -15.6286  -51.9940 H         1 UNK         0.0600 
    232 H232       -5.8226  -15.0128  -54.9941 H         1 UNK         0.0600 
    233 H233       -6.1252  -13.8620  -53.6982 H         1 UNK         0.0600 
    234 H234       -7.2006  -15.2338  -53.9146 H         1 UNK         0.0600 
    235 H235       -3.3441  -16.4628  -54.5364 H         1 UNK         0.3000 
    236 H236       -1.1409  -15.2446  -53.1489 H         1 UNK         0.0600 
    237 H237       -2.1147  -13.2536  -54.4539 H         1 UNK         0.0600 
    238 H238       -0.5029  -13.6975  -54.9842 H         1 UNK         0.0600 
    239 H239       -1.9064  -14.1709  -55.9347 H         1 UNK         0.0600 
    240 H240        0.9014  -15.7281  -54.3845 H         1 UNK         0.3000 
    241 H241        0.9772  -17.3086  -56.6679 H         1 UNK         0.0600 
    242 H242        4.5735  -16.9373  -56.4971 H         1 UNK         0.3800 
    243 H243        3.3901  -18.0578  -57.1051 H         1 UNK         0.3800 
    244 H244        0.2959  -19.2648  -55.4666 H         1 UNK         0.0800 
    245 H245        1.9990  -19.4316  -55.7020 H         1 UNK         0.0800 
    246 H246       -0.1832  -20.8059  -53.3283 H         1 UNK         0.0800 
    247 H247       -0.9047  -19.2112  -53.3572 H         1 UNK         0.0800 
@<TRIPOS>BOND
     1    1    2 1    
     2    1  127 1    
     3    1  128 1    
     4    1  129 1    
     5    2    3 2    
     6    2    4 am   BACKBONE|DICT|INTERRES
     7    4    5 1    
     8    4  130 1    
     9    5    6 1    
    10    5   65 1    
    11    5  131 1    
    12    6    7 1    
    13    6  132 1    
    14    6  133 1    
    15    7    8 1    
    16    8    9 1    
    17    8  134 1    
    18    8  135 1    
    19    9   10 ar   
    20    9   14 ar   
    21   10   11 ar   
    22   10  136 1    
    23   11   12 ar   
    24   11  126 1    
    25   12   13 ar   
    26   12  137 1    
    27   13   14 ar   
    28   13   15 1    
    29   14  138 1    
    30   15   16 1    
    31   15  139 1    
    32   15  140 1    
    33   16   17 1    
    34   17   18 1    
    35   17  141 1    
    36   17  142 1    
    37   18   19 1    
    38   18   67 1    
    39   18  143 1    
    40   19   20 am   BACKBONE|DICT|INTERRES
    41   19  144 1    
    42   20   21 2    
    43   20   22 1    
    44   22   23 1    
    45   22   24 1    
    46   22  145 1    
    47   23  146 1    
    48   23  147 1    
    49   23  148 1    
    50   24   25 am   BACKBONE|DICT|INTERRES
    51   24  149 1    
    52   25   26 2    
    53   25   27 1    
    54   27   28 1    
    55   27   29 1    
    56   27  150 1    
    57   28  151 1    
    58   28  152 1    
    59   28  153 1    
    60   29   30 am   BACKBONE|DICT|INTERRES
    61   29  154 1    
    62   30   31 2    
    63   30   32 1    
    64   32   33 1    
    65   32   34 1    
    66   32  155 1    
    67   33  156 1    
    68   33  157 1    
    69   33  158 1    
    70   34   35 am   BACKBONE|DICT|INTERRES
    71   34  159 1    
    72   35   36 2    
    73   35   37 1    
    74   37   38 1    
    75   37   39 1    
    76   37  160 1    
    77   38  161 1    
    78   38  162 1    
    79   38  163 1    
    80   39   40 am   BACKBONE|DICT|INTERRES
    81   39  164 1    
    82   40   41 2    
    83   40   42 1    
    84   42   43 1    
    85   42   44 1    
    86   42  165 1    
    87   43  166 1    
    88   43  167 1    
    89   43  168 1    
    90   44   45 am   BACKBONE|DICT|INTERRES
    91   44  169 1    
    92   45   46 2    
    93   45   47 1    
    94   47   48 1    
    95   47   49 1    
    96   47  170 1    
    97   48  171 1    
    98   48  172 1    
    99   48  173 1    
   100   49   50 am   BACKBONE|DICT|INTERRES
   101   49  174 1    
   102   50   51 2    
   103   50   52 1    
   104   52   53 1    
   105   52   54 1    
   106   52  175 1    
   107   53  176 1    
   108   53  177 1    
   109   53  178 1    
   110   54   55 am   BACKBONE|DICT|INTERRES
   111   54  179 1    
   112   55   56 2    
   113   55   57 1    
   114   57   58 1    
   115   57   59 1    
   116   57  180 1    
   117   58  181 1    
   118   58  182 1    
   119   58  183 1    
   120   59   60 am   BACKBONE|DICT|INTERRES
   121   59  184 1    
   122   60   61 2    
   123   60   62 1    
   124   62   63 1    
   125   62   64 1    
   126   62  185 1    
   127   63  186 1    
   128   63  187 1    
   129   63  188 1    
   130   64   65 am   BACKBONE|DICT|INTERRES
   131   64  189 1    
   132   65   66 2    
   133   67   68 2    
   134   67   69 am   BACKBONE|DICT|INTERRES
   135   69   70 1    
   136   69  190 1    
   137   70   71 1    
   138   70   72 1    
   139   70  191 1    
   140   71  192 1    
   141   71  193 1    
   142   71  194 1    
   143   72   73 2    
   144   72   74 am   BACKBONE|DICT|INTERRES
   145   74   75 1    
   146   74  195 1    
   147   75   76 1    
   148   75   77 1    
   149   75  196 1    
   150   76  197 1    
   151   76  198 1    
   152   76  199 1    
   153   77   78 2    
   154   77   79 am   BACKBONE|DICT|INTERRES
   155   79   80 1    
   156   79  200 1    
   157   80   81 1    
   158   80   82 1    
   159   80  201 1    
   160   81  202 1    
   161   81  203 1    
   162   81  204 1    
   163   82   83 2    
   164   82   84 am   BACKBONE|DICT|INTERRES
   165   84   85 1    
   166   84  205 1    
   167   85   86 1    
   168   85   87 1    
   169   85  206 1    
   170   86  207 1    
   171   86  208 1    
   172   86  209 1    
   173   87   88 2    
   174   87   89 am   BACKBONE|DICT|INTERRES
   175   89   90 1    
   176   89  210 1    
   177   90   91 1    
   178   90   92 1    
   179   90  211 1    
   180   91  212 1    
   181   91  213 1    
   182   91  214 1    
   183   92   93 2    
   184   92   94 am   BACKBONE|DICT|INTERRES
   185   94   95 1    
   186   94  215 1    
   187   95   96 1    
   188   95   97 1    
   189   95  216 1    
   190   96  217 1    
   191   96  218 1    
   192   96  219 1    
   193   97   98 2    
   194   97   99 am   BACKBONE|DICT|INTERRES
   195   99  100 1    
   196   99  220 1    
   197  100  101 1    
   198  100  102 1    
   199  100  221 1    
   200  101  222 1    
   201  101  223 1    
   202  101  224 1    
   203  102  103 2    
   204  102  104 am   BACKBONE|DICT|INTERRES
   205  104  105 1    
   206  104  225 1    
   207  105  106 1    
   208  105  107 1    
   209  105  226 1    
   210  106  227 1    
   211  106  228 1    
   212  106  229 1    
   213  107  108 2    
   214  107  109 am   BACKBONE|DICT|INTERRES
   215  109  110 1    
   216  109  230 1    
   217  110  111 1    
   218  110  112 1    
   219  110  231 1    
   220  111  232 1    
   221  111  233 1    
   222  111  234 1    
   223  112  113 2    
   224  112  114 am   BACKBONE|DICT|INTERRES
   225  114  115 1    
   226  114  235 1    
   227  115  116 1    
   228  115  117 1    
   229  115  236 1    
   230  116  237 1    
   231  116  238 1    
   232  116  239 1    
   233  117  118 2    
   234  117  119 am   BACKBONE|DICT|INTERRES
   235  119  120 1    
   236  119  240 1    
   237  120  121 1    
   238  120  124 1    
   239  120  241 1    
   240  121  122 am   BACKBONE|DICT|INTERRES
   241  121  123 2    
   242  122  242 1    
   243  122  243 1    
   244  124  125 1    
   245  124  244 1    
   246  124  245 1    
   247  125  126 1    
   248  126  246 1    
   249  126  247 1    
@<TRIPOS>SUBSTRUCTURE
     1 UNK         1 GROUP             0       ****    0 ROOT    
