@<TRIPOS>MOLECULE
3R540
247   249    1
SMALL
USER_CHARGES


@<TRIPOS>ATOM
      1 CA         -0.2075  -13.1834  -49.5154 C.3       0 UNK        -0.1800 
      2 C           1.2252  -12.7012  -49.6699 C.2       0 UNK         0.5000 
      3 O           1.5127  -11.5319  -49.4127 O.2       0 UNK        -0.5000 
      4 N           2.1240  -13.5983  -50.0970 N.am      1 UNK        -0.5000 
      5 CA          3.5537  -13.3110  -50.2846 C.3       1 UNK         0.1400 
      6 C6          4.2793  -14.3431  -51.1878 C.3       23 UNK        -0.0398 
      7 S7          3.3780  -14.7261  -52.7341 S.3       23 UNK        -0.2404 
      8 C8          2.9583  -16.4896  -52.5198 C.3       23 UNK        -0.0205 
      9 C9          2.0860  -16.7309  -51.2964 C.ar      23 UNK        -0.0193 
     10 C10         0.7073  -16.4981  -51.3502 C.ar      23 UNK        -0.1150 
     11 C11        -0.0854  -16.6783  -50.2121 C.ar      23 UNK        -0.0193 
     12 C12         0.5164  -17.0762  -49.0171 C.ar      23 UNK        -0.1150 
     13 C13         1.8855  -17.3519  -48.9590 C.ar      23 UNK        -0.0193 
     14 C14         2.6631  -17.1806  -50.1046 C.ar      23 UNK        -0.1150 
     15 C15         2.5239  -17.8447  -47.6666 C.3       23 UNK        -0.0205 
     16 S16         2.6337  -19.6637  -47.5985 S.3       23 UNK        -0.2404 
     17 C17         0.8937  -20.1199  -47.8789 C.3       23 UNK        -0.0398 
     18 CA          0.4936  -21.4870  -47.2854 C.3       11 UNK         0.1400 
     19 N           0.4169  -21.4723  -45.8203 N.am      11 UNK        -0.5000 
     20 C           0.1248  -22.5355  -45.0562 C.2       10 UNK         0.5000 
     21 O          -0.0479  -23.6709  -45.4981 O.2       10 UNK        -0.5000 
     22 CA         -0.0706  -22.2828  -43.5510 C.3       10 UNK         0.1400 
     23 CB          1.2791  -22.1428  -42.8317 C.3       10 UNK        -0.1800 
     24 N          -0.9113  -21.1149  -43.2825 N.am      10 UNK        -0.5000 
     25 C          -2.1992  -21.0130  -43.6442 C.2       9 UNK         0.5000 
     26 O          -2.8230  -21.9119  -44.2084 O.2       9 UNK        -0.5000 
     27 CA         -2.9033  -19.6731  -43.3626 C.3       9 UNK         0.1400 
     28 CB         -3.3615  -19.5951  -41.8988 C.3       9 UNK        -0.1800 
     29 N          -2.0694  -18.5143  -43.6797 N.am      9 UNK        -0.5000 
     30 C          -1.6204  -18.2108  -44.9059 C.2       8 UNK         0.5000 
     31 O          -1.8992  -18.8529  -45.9185 O.2       8 UNK        -0.5000 
     32 CA         -0.6378  -17.0301  -45.0076 C.3       8 UNK         0.1400 
     33 CB         -1.3705  -15.6817  -44.9760 C.3       8 UNK        -0.1800 
     34 N           0.3977  -17.0648  -43.9748 N.am      8 UNK        -0.5000 
     35 C           1.2726  -18.0688  -43.8151 C.2       7 UNK         0.5000 
     36 O           1.3254  -19.0534  -44.5493 O.2       7 UNK        -0.5000 
     37 CA          2.2063  -17.9888  -42.5982 C.3       7 UNK         0.1400 
     38 CB          3.3933  -17.0561  -42.8752 C.3       7 UNK        -0.1800 
     39 N           1.4906  -17.5501  -41.4011 N.am      7 UNK        -0.5000 
     40 C           0.5724  -18.2904  -40.7630 C.2       6 UNK         0.5000 
     41 O           0.2714  -19.4384  -41.0889 O.2       6 UNK        -0.5000 
     42 CA         -0.1636  -17.6162  -39.5915 C.3       6 UNK         0.1400 
     43 CB          0.6689  -17.7046  -38.3038 C.3       6 UNK        -0.1800 
     44 N          -0.4863  -16.2155  -39.8672 N.am      6 UNK        -0.5000 
     45 C          -1.3507  -15.8091  -40.8079 C.2       5 UNK         0.5000 
     46 O          -1.9989  -16.5766  -41.5182 O.2       5 UNK        -0.5000 
     47 CA         -1.4769  -14.2896  -41.0202 C.3       5 UNK         0.1400 
     48 CB         -2.5282  -13.6973  -40.0701 C.3       5 UNK        -0.1800 
     49 N          -0.2084  -13.5755  -40.8495 N.am      5 UNK        -0.5000 
     50 C           0.8681  -13.7443  -41.6281 C.2       4 UNK         0.5000 
     51 O           0.9223  -14.5529  -42.5574 O.2       4 UNK        -0.5000 
     52 CA          2.1089  -12.9084  -41.2750 C.3       4 UNK         0.1400 
     53 CB          3.1692  -13.7788  -40.5827 C.3       4 UNK        -0.1800 
     54 N           2.6911  -12.2945  -42.4664 N.am      4 UNK        -0.5000 
     55 C           2.1680  -11.2384  -43.1040 C.2       3 UNK         0.5000 
     56 O           1.1478  -10.6557  -42.7335 O.2       3 UNK        -0.5000 
     57 CA          2.9185  -10.7247  -44.3476 C.3       3 UNK         0.1400 
     58 CB          3.8495   -9.5628  -43.9670 C.3       3 UNK        -0.1800 
     59 N           3.7039  -11.7587  -45.0261 N.am      3 UNK        -0.5000 
     60 C           3.1779  -12.6888  -45.8316 C.2       2 UNK         0.5000 
     61 O           1.9701  -12.8043  -46.0525 O.2       2 UNK        -0.5000 
     62 CA          4.1660  -13.6575  -46.4994 C.3       2 UNK         0.1400 
     63 CB          4.1483  -15.0179  -45.7863 C.3       2 UNK        -0.1800 
     64 N           3.7722  -13.8376  -47.8931 N.am      2 UNK        -0.5000 
     65 C           4.2850  -13.1623  -48.9315 C.2       1 UNK         0.5000 
     66 O           5.2736  -12.4316  -48.8531 O.2       1 UNK        -0.5000 
     67 C          -0.8360  -21.9356  -47.9187 C.2       11 UNK         0.5000 
     68 O          -0.8270  -22.8347  -48.7591 O.2       11 UNK        -0.5000 
     69 N          -1.9479  -21.3202  -47.4890 N.am      12 UNK        -0.5000 
     70 CA         -3.2998  -21.6217  -47.9570 C.3       12 UNK         0.1400 
     71 CB         -4.3016  -20.6690  -47.2904 C.3       12 UNK        -0.1800 
     72 C          -3.7045  -23.0857  -47.7199 C.2       12 UNK         0.5000 
     73 O          -4.2498  -23.7121  -48.6269 O.2       12 UNK        -0.5000 
     74 N          -3.3984  -23.6103  -46.5260 N.am      13 UNK        -0.5000 
     75 CA         -3.6342  -25.0029  -46.1508 C.3       13 UNK         0.1400 
     76 CB         -3.4136  -25.1673  -44.6393 C.3       13 UNK        -0.1800 
     77 C          -2.7597  -25.9957  -46.9387 C.2       13 UNK         0.5000 
     78 O          -3.2613  -27.0403  -47.3558 O.2       13 UNK        -0.5000 
     79 N          -1.4747  -25.6612  -47.1209 N.am      14 UNK        -0.5000 
     80 CA         -0.4963  -26.4966  -47.8158 C.3       14 UNK         0.1400 
     81 CB          0.9231  -25.9897  -47.5157 C.3       14 UNK        -0.1800 
     82 C          -0.7354  -26.5685  -49.3332 C.2       14 UNK         0.5000 
     83 O          -0.7206  -27.6639  -49.8967 O.2       14 UNK        -0.5000 
     84 N          -0.9308  -25.4062  -49.9691 N.am      15 UNK        -0.5000 
     85 CA         -1.1081  -25.2901  -51.4158 C.3       15 UNK         0.1400 
     86 CB         -0.7574  -23.8630  -51.8568 C.3       15 UNK        -0.1800 
     87 C          -2.5280  -25.6575  -51.8725 C.2       15 UNK         0.5000 
     88 O          -2.6818  -26.2262  -52.9549 O.2       15 UNK        -0.5000 
     89 N          -3.5364  -25.3193  -51.0536 N.am      16 UNK        -0.5000 
     90 CA         -4.9660  -25.5037  -51.3098 C.3       16 UNK         0.1400 
     91 CB         -5.3412  -26.9969  -51.1813 C.3       16 UNK        -0.1800 
     92 C          -5.3809  -24.8485  -52.6436 C.2       16 UNK         0.5000 
     93 O          -5.1503  -23.6495  -52.8241 O.2       16 UNK        -0.5000 
     94 N          -5.9391  -25.6411  -53.5671 N.am      17 UNK        -0.5000 
     95 CA         -6.3915  -25.2263  -54.8955 C.3       17 UNK         0.1400 
     96 CB         -7.0374  -26.4287  -55.5995 C.3       17 UNK        -0.1800 
     97 C          -5.2960  -24.6074  -55.7864 C.2       17 UNK         0.5000 
     98 O          -5.6269  -23.7940  -56.6488 O.2       17 UNK        -0.5000 
     99 N          -4.0202  -24.9515  -55.5490 N.am      18 UNK        -0.5000 
    100 CA        -2.8722  -24.4042  -56.2806 C.3       18 UNK         0.1400 
    101 CB        -1.6161  -25.2299  -55.9649 C.3       18 UNK        -0.1800 
    102 C         -2.6222  -22.9077  -56.0019 C.2       18 UNK         0.5000 
    103 O         -2.0647  -22.2235  -56.8606 O.2       18 UNK        -0.5000 
    104 N         -3.0558  -22.4254  -54.8293 N.am      19 UNK        -0.5000 
    105 CA        -3.0241  -21.0132  -54.4392 C.3       19 UNK         0.1400 
    106 CB        -2.3384  -20.8964  -53.0665 C.3       19 UNK        -0.1800 
    107 C         -4.4383  -20.4061  -54.3795 C.2       19 UNK         0.5000 
    108 O         -4.5771  -19.2633  -53.9433 O.2       19 UNK        -0.5000 
    109 N         -5.4680  -21.1890  -54.7443 N.am      20 UNK        -0.5000 
    110 CA        -6.9007  -20.9126  -54.5643 C.3       20 UNK         0.1400 
    111 CB        -7.3627  -19.8068  -55.5347 C.3       20 UNK        -0.1800 
    112 C         -7.2610  -20.6092  -53.0911 C.2       20 UNK         0.5000 
    113 O         -8.0826  -19.7315  -52.8177 O.2       20 UNK        -0.5000 
    114 N         -6.5692  -21.2970  -52.1677 N.am      21 UNK        -0.5000 
    115 CA        -6.5571  -21.0977  -50.7140 C.3       21 UNK         0.1400 
    116 CB        -7.8740  -21.6081  -50.0968 C.3       21 UNK        -0.1800 
    117 C         -6.2154  -19.6499  -50.2877 C.2       21 UNK         0.5000 
    118 O         -6.6716  -19.2005  -49.2356 O.2       21 UNK        -0.5000 
    119 N         -5.4450  -18.9391  -51.1255 N.am      22 UNK        -0.5000 
    120 CA        -5.1313  -17.5046  -51.0191 C.3       22 UNK         0.1400 
    121 C         -6.3705  -16.5640  -51.1655 C.2       22 UNK         0.5000 
    122 N         -7.4941  -17.0180  -51.7111 N.am      22 UNK        -0.7600 
    123 O         -6.3093  -15.3888  -50.8139 O.2       22 UNK        -0.5000 
    124 C124       -4.2396  -17.1656  -49.7906 C.3       23 UNK        -0.0398 
    125 S125       -2.5718  -17.9042  -49.9140 S.3       23 UNK        -0.2404 
    126 C126       -1.5835  -16.4089  -50.2484 C.3       23 UNK        -0.0205 
    127 H127       -0.8748  -12.3512  -49.2904 H         1 UNK         0.0600 
    128 H128       -0.2758  -13.9038  -48.7002 H         1 UNK         0.0600 
    129 H129       -0.5527  -13.6538  -50.4357 H         1 UNK         0.0600 
    130 H130        1.8289  -14.5368  -50.3320 H         1 UNK         0.3000 
    131 H131        3.6234  -12.3444  -50.7888 H         1 UNK         0.0600 
    132 H132        5.2581  -13.9519  -51.4706 H         1 UNK         0.0800 
    133 H133        4.4879  -15.2633  -50.6440 H         1 UNK         0.0800 
    134 H134        3.8779  -17.0737  -52.4568 H         1 UNK         0.0800 
    135 H135        2.4378  -16.8399  -53.4124 H         1 UNK         0.0800 
    136 H136        0.2571  -16.1639  -52.2746 H         1 UNK         0.1150 
    137 H137       -0.1023  -17.2003  -48.1427 H         1 UNK         0.1150 
    138 H138        3.7221  -17.3935  -50.0631 H         1 UNK         0.1150 
    139 H139        3.5289  -17.4321  -47.5727 H         1 UNK         0.0800 
    140 H140        1.9681  -17.4827  -46.8029 H         1 UNK         0.0800 
    141 H141        0.7368  -20.0988  -48.9599 H         1 UNK         0.0800 
    142 H142        0.2504  -19.3476  -47.4587 H         1 UNK         0.0800 
    143 H143        1.2505  -22.2218  -47.5673 H         1 UNK         0.0600 
    144 H144        0.5925  -20.5776  -45.3678 H         1 UNK         0.3000 
    145 H145       -0.5802  -23.1547  -43.1357 H         1 UNK         0.0600 
    146 H146        1.8395  -21.2774  -43.1837 H         1 UNK         0.0600 
    147 H147        1.1427  -22.0379  -41.7553 H         1 UNK         0.0600 
    148 H148        1.9005  -23.0238  -42.9964 H         1 UNK         0.0600 
    149 H149       -0.4768  -20.3457  -42.7843 H         1 UNK         0.3000 
    150 H150       -3.7903  -19.6254  -43.9972 H         1 UNK         0.0600 
    151 H151       -3.9975  -20.4433  -41.6424 H         1 UNK         0.0600 
    152 H152       -3.9383  -18.6885  -41.7150 H         1 UNK         0.0600 
    153 H153       -2.5157  -19.5976  -41.2109 H         1 UNK         0.0600 
    154 H154       -1.8289  -17.9024  -42.9047 H         1 UNK         0.3000 
    155 H155       -0.1326  -17.1087  -45.9672 H         1 UNK         0.0600 
    156 H156       -1.9098  -15.5370  -44.0406 H         1 UNK         0.0600 
    157 H157       -0.6731  -14.8514  -45.0935 H         1 UNK         0.0600 
    158 H158       -2.0965  -15.6156  -45.7872 H         1 UNK         0.0600 
    159 H159        0.4539  -16.2625  -43.3537 H         1 UNK         0.3000 
    160 H160        2.6014  -18.9896  -42.4113 H         1 UNK         0.0600 
    161 H161        3.9646  -17.4031  -43.7372 H         1 UNK         0.0600 
    162 H162        3.0657  -16.0393  -43.0891 H         1 UNK         0.0600 
    163 H163        4.0756  -17.0204  -42.0259 H         1 UNK         0.0600 
    164 H164        1.6403  -16.5982  -41.1035 H         1 UNK         0.3000 
    165 H165       -1.0997  -18.1555  -39.4316 H         1 UNK         0.0600 
    166 H166        0.1227  -17.2972  -37.4528 H         1 UNK         0.0600 
    167 H167        0.9109  -18.7416  -38.0669 H         1 UNK         0.0600 
    168 H168        1.6096  -17.1596  -38.3916 H         1 UNK         0.0600 
    169 H169        0.0002  -15.5169  -39.3253 H         1 UNK         0.3000 
    170 H170       -1.8154  -14.1262  -42.0451 H         1 UNK         0.0600 
    171 H171       -3.4897  -14.1983  -40.1914 H         1 UNK         0.0600 
    172 H172       -2.2332  -13.8015  -39.0253 H         1 UNK         0.0600 
    173 H173       -2.6885  -12.6377  -40.2704 H         1 UNK         0.0600 
    174 H174       -0.1731  -12.8951  -40.1040 H         1 UNK         0.3000 
    175 H175        1.8182  -12.1148  -40.5831 H         1 UNK         0.0600 
    176 H176        3.5430  -14.5631  -41.2402 H         1 UNK         0.0600 
    177 H177        4.0214  -13.1786  -40.2634 H         1 UNK         0.0600 
    178 H178        2.7619  -14.2609  -39.6931 H         1 UNK         0.0600 
    179 H179        3.5075  -12.7388  -42.8575 H         1 UNK         0.3000 
    180 H180        2.1708  -10.3413  -45.0458 H         1 UNK         0.0600 
    181 H181        4.6315   -9.8818  -43.2768 H         1 UNK         0.0600 
    182 H182        3.2933   -8.7585  -43.4834 H         1 UNK         0.0600 
    183 H183        4.3309   -9.1379  -44.8481 H         1 UNK         0.0600 
    184 H184        4.7047  -11.7248  -44.8945 H         1 UNK         0.3000 
    185 H185        5.1772  -13.2493  -46.4406 H         1 UNK         0.0600 
    186 H186        4.8127  -15.7293  -46.2765 H         1 UNK         0.0600 
    187 H187        4.4887  -14.9154  -44.7556 H         1 UNK         0.0600 
    188 H188        3.1472  -15.4507  -45.7610 H         1 UNK         0.0600 
    189 H189        2.9104  -14.3420  -48.0425 H         1 UNK         0.3000 
    190 H190       -1.8662  -20.5661  -46.8117 H         1 UNK         0.3000 
    191 H191       -3.3232  -21.4414  -49.0338 H         1 UNK         0.0600 
    192 H192       -4.2535  -20.7281  -46.2036 H         1 UNK         0.0600 
    193 H193       -5.3244  -20.9072  -47.5830 H         1 UNK         0.0600 
    194 H194       -4.1109  -19.6348  -47.5772 H         1 UNK         0.0600 
    195 H195       -2.9852  -23.0105  -45.8170 H         1 UNK         0.3000 
    196 H196       -4.6787  -25.2362  -46.3677 H         1 UNK         0.0600 
    197 H197       -3.5924  -26.1968  -44.3266 H         1 UNK         0.0600 
    198 H198       -4.0929  -24.5315  -44.0713 H         1 UNK         0.0600 
    199 H199       -2.3944  -24.9067  -44.3511 H         1 UNK         0.0600 
    200 H200       -1.1247  -24.8007  -46.7095 H         1 UNK         0.3000 
    201 H201       -0.5775  -27.5111  -47.4197 H         1 UNK         0.0600 
    202 H202        1.1399  -26.0380  -46.4485 H         1 UNK         0.0600 
    203 H203        1.0584  -24.9562  -47.8372 H         1 UNK         0.0600 
    204 H204        1.6724  -26.5952  -48.0271 H         1 UNK         0.0600 
    205 H205       -0.9214  -24.5367  -49.4383 H         1 UNK         0.3000 
    206 H206       -0.4135  -25.9722  -51.9108 H         1 UNK         0.0600 
    207 H207        0.2714  -23.6115  -51.5991 H         1 UNK         0.0600 
    208 H208       -0.8616  -23.7474  -52.9360 H         1 UNK         0.0600 
    209 H209       -1.4087  -23.1301  -51.3809 H         1 UNK         0.0600 
    210 H210       -3.3225  -24.8251  -50.1953 H         1 UNK         0.3000 
    211 H211       -5.5032  -24.9614  -50.5318 H         1 UNK         0.0600 
    212 H212       -4.8419  -27.6154  -51.9280 H         1 UNK         0.0600 
    213 H213       -6.4169  -27.1459  -51.2833 H         1 UNK         0.0600 
    214 H214       -5.0596  -27.3799  -50.2000 H         1 UNK         0.0600 
    215 H215       -6.0542  -26.6187  -53.3429 H         1 UNK         0.3000 
    216 H216       -7.1591  -24.4631  -54.7525 H         1 UNK         0.0600 
    217 H217       -7.4150  -26.1499  -56.5843 H         1 UNK         0.0600 
    218 H218       -7.8816  -26.8150  -55.0280 H         1 UNK         0.0600 
    219 H219       -6.3246  -27.2424  -55.7395 H         1 UNK         0.0600 
    220 H220       -3.8135  -25.5948  -54.7935 H         1 UNK         0.3000 
    221 H221       -3.0800  -24.5066  -57.3478 H         1 UNK         0.0600 
    222 H222       -1.3132  -25.1238  -54.9238 H         1 UNK         0.0600 
    223 H223       -1.7775  -26.2897  -56.1623 H         1 UNK         0.0600 
    224 H224       -0.7756  -24.9085  -56.5812 H         1 UNK         0.0600 
    225 H225       -3.5199  -23.0550  -54.1848 H         1 UNK         0.3000 
    226 H226       -2.4534  -20.4216  -55.1574 H         1 UNK         0.0600 
    227 H227       -1.3179  -21.2759  -53.1054 H         1 UNK         0.0600 
    228 H228       -2.2775  -19.8576  -52.7385 H         1 UNK         0.0600 
    229 H229       -2.8806  -21.4499  -52.2986 H         1 UNK         0.0600 
    230 H230       -5.2483  -22.0998  -55.1232 H         1 UNK         0.3000 
    231 H231       -7.4295  -21.8297  -54.8269 H         1 UNK         0.0600 
    232 H232       -8.4451  -19.6793  -55.4962 H         1 UNK         0.0600 
    233 H233       -7.1023  -20.0531  -56.5641 H         1 UNK         0.0600 
    234 H234       -6.9111  -18.8434  -55.2957 H         1 UNK         0.0600 
    235 H235       -5.9396  -22.0244  -52.5016 H         1 UNK         0.3000 
    236 H236       -5.7492  -21.7227  -50.3304 H         1 UNK         0.0600 
    237 H237       -7.8292  -21.5924  -49.0072 H         1 UNK         0.0600 
    238 H238       -8.0755  -22.6366  -50.3961 H         1 UNK         0.0600 
    239 H239       -8.7241  -20.9965  -50.4004 H         1 UNK         0.0600 
    240 H240       -5.1519  -19.3635  -51.9980 H         1 UNK         0.3000 
    241 H241       -4.5399  -17.2802  -51.9074 H         1 UNK         0.0600 
    242 H242       -8.2794  -16.3947  -51.8091 H         1 UNK         0.3800 
    243 H243       -7.5788  -17.9792  -52.0267 H         1 UNK         0.3800 
    244 H244       -4.1297  -16.0865  -49.6775 H         1 UNK         0.0800 
    245 H245       -4.7052  -17.5059  -48.8657 H         1 UNK         0.0800 
    246 H246       -1.8799  -15.9938  -51.2129 H         1 UNK         0.0800 
    247 H247       -1.8179  -15.6545  -49.4969 H         1 UNK         0.0800 
@<TRIPOS>BOND
     1    1    2 1    
     2    1  127 1    
     3    1  128 1    
     4    1  129 1    
     5    2    3 2    
     6    2    4 am   BACKBONE|DICT|INTERRES
     7    4    5 1    
     8    4  130 1    
     9    5    6 1    
    10    5   65 1    
    11    5  131 1    
    12    6    7 1    
    13    6  132 1    
    14    6  133 1    
    15    7    8 1    
    16    8    9 1    
    17    8  134 1    
    18    8  135 1    
    19    9   10 ar   
    20    9   14 ar   
    21   10   11 ar   
    22   10  136 1    
    23   11   12 ar   
    24   11  126 1    
    25   12   13 ar   
    26   12  137 1    
    27   13   14 ar   
    28   13   15 1    
    29   14  138 1    
    30   15   16 1    
    31   15  139 1    
    32   15  140 1    
    33   16   17 1    
    34   17   18 1    
    35   17  141 1    
    36   17  142 1    
    37   18   19 1    
    38   18   67 1    
    39   18  143 1    
    40   19   20 am   BACKBONE|DICT|INTERRES
    41   19  144 1    
    42   20   21 2    
    43   20   22 1    
    44   22   23 1    
    45   22   24 1    
    46   22  145 1    
    47   23  146 1    
    48   23  147 1    
    49   23  148 1    
    50   24   25 am   BACKBONE|DICT|INTERRES
    51   24  149 1    
    52   25   26 2    
    53   25   27 1    
    54   27   28 1    
    55   27   29 1    
    56   27  150 1    
    57   28  151 1    
    58   28  152 1    
    59   28  153 1    
    60   29   30 am   BACKBONE|DICT|INTERRES
    61   29  154 1    
    62   30   31 2    
    63   30   32 1    
    64   32   33 1    
    65   32   34 1    
    66   32  155 1    
    67   33  156 1    
    68   33  157 1    
    69   33  158 1    
    70   34   35 am   BACKBONE|DICT|INTERRES
    71   34  159 1    
    72   35   36 2    
    73   35   37 1    
    74   37   38 1    
    75   37   39 1    
    76   37  160 1    
    77   38  161 1    
    78   38  162 1    
    79   38  163 1    
    80   39   40 am   BACKBONE|DICT|INTERRES
    81   39  164 1    
    82   40   41 2    
    83   40   42 1    
    84   42   43 1    
    85   42   44 1    
    86   42  165 1    
    87   43  166 1    
    88   43  167 1    
    89   43  168 1    
    90   44   45 am   BACKBONE|DICT|INTERRES
    91   44  169 1    
    92   45   46 2    
    93   45   47 1    
    94   47   48 1    
    95   47   49 1    
    96   47  170 1    
    97   48  171 1    
    98   48  172 1    
    99   48  173 1    
   100   49   50 am   BACKBONE|DICT|INTERRES
   101   49  174 1    
   102   50   51 2    
   103   50   52 1    
   104   52   53 1    
   105   52   54 1    
   106   52  175 1    
   107   53  176 1    
   108   53  177 1    
   109   53  178 1    
   110   54   55 am   BACKBONE|DICT|INTERRES
   111   54  179 1    
   112   55   56 2    
   113   55   57 1    
   114   57   58 1    
   115   57   59 1    
   116   57  180 1    
   117   58  181 1    
   118   58  182 1    
   119   58  183 1    
   120   59   60 am   BACKBONE|DICT|INTERRES
   121   59  184 1    
   122   60   61 2    
   123   60   62 1    
   124   62   63 1    
   125   62   64 1    
   126   62  185 1    
   127   63  186 1    
   128   63  187 1    
   129   63  188 1    
   130   64   65 am   BACKBONE|DICT|INTERRES
   131   64  189 1    
   132   65   66 2    
   133   67   68 2    
   134   67   69 am   BACKBONE|DICT|INTERRES
   135   69   70 1    
   136   69  190 1    
   137   70   71 1    
   138   70   72 1    
   139   70  191 1    
   140   71  192 1    
   141   71  193 1    
   142   71  194 1    
   143   72   73 2    
   144   72   74 am   BACKBONE|DICT|INTERRES
   145   74   75 1    
   146   74  195 1    
   147   75   76 1    
   148   75   77 1    
   149   75  196 1    
   150   76  197 1    
   151   76  198 1    
   152   76  199 1    
   153   77   78 2    
   154   77   79 am   BACKBONE|DICT|INTERRES
   155   79   80 1    
   156   79  200 1    
   157   80   81 1    
   158   80   82 1    
   159   80  201 1    
   160   81  202 1    
   161   81  203 1    
   162   81  204 1    
   163   82   83 2    
   164   82   84 am   BACKBONE|DICT|INTERRES
   165   84   85 1    
   166   84  205 1    
   167   85   86 1    
   168   85   87 1    
   169   85  206 1    
   170   86  207 1    
   171   86  208 1    
   172   86  209 1    
   173   87   88 2    
   174   87   89 am   BACKBONE|DICT|INTERRES
   175   89   90 1    
   176   89  210 1    
   177   90   91 1    
   178   90   92 1    
   179   90  211 1    
   180   91  212 1    
   181   91  213 1    
   182   91  214 1    
   183   92   93 2    
   184   92   94 am   BACKBONE|DICT|INTERRES
   185   94   95 1    
   186   94  215 1    
   187   95   96 1    
   188   95   97 1    
   189   95  216 1    
   190   96  217 1    
   191   96  218 1    
   192   96  219 1    
   193   97   98 2    
   194   97   99 am   BACKBONE|DICT|INTERRES
   195   99  100 1    
   196   99  220 1    
   197  100  101 1    
   198  100  102 1    
   199  100  221 1    
   200  101  222 1    
   201  101  223 1    
   202  101  224 1    
   203  102  103 2    
   204  102  104 am   BACKBONE|DICT|INTERRES
   205  104  105 1    
   206  104  225 1    
   207  105  106 1    
   208  105  107 1    
   209  105  226 1    
   210  106  227 1    
   211  106  228 1    
   212  106  229 1    
   213  107  108 2    
   214  107  109 am   BACKBONE|DICT|INTERRES
   215  109  110 1    
   216  109  230 1    
   217  110  111 1    
   218  110  112 1    
   219  110  231 1    
   220  111  232 1    
   221  111  233 1    
   222  111  234 1    
   223  112  113 2    
   224  112  114 am   BACKBONE|DICT|INTERRES
   225  114  115 1    
   226  114  235 1    
   227  115  116 1    
   228  115  117 1    
   229  115  236 1    
   230  116  237 1    
   231  116  238 1    
   232  116  239 1    
   233  117  118 2    
   234  117  119 am   BACKBONE|DICT|INTERRES
   235  119  120 1    
   236  119  240 1    
   237  120  121 1    
   238  120  124 1    
   239  120  241 1    
   240  121  122 am   BACKBONE|DICT|INTERRES
   241  121  123 2    
   242  122  242 1    
   243  122  243 1    
   244  124  125 1    
   245  124  244 1    
   246  124  245 1    
   247  125  126 1    
   248  126  246 1    
   249  126  247 1    
@<TRIPOS>SUBSTRUCTURE
     1 UNK         1 GROUP             0       ****    0 ROOT    
