@<TRIPOS>MOLECULE
3R540
247   249    1
SMALL
USER_CHARGES


@<TRIPOS>ATOM
      1 CA          5.5550  -21.4993  -49.8000 C.3       0 UNK        -0.1800 
      2 C           4.8923  -20.1798  -49.4309 C.2       0 UNK         0.5000 
      3 O           3.9674  -20.1582  -48.6183 O.2       0 UNK        -0.5000 
      4 N           5.3646  -19.0731  -50.0164 N.am      1 UNK        -0.5000 
      5 CA          4.8387  -17.7203  -49.8093 C.3       1 UNK         0.1400 
      6 C6          5.1018  -16.7973  -51.0271 C.3       23 UNK        -0.0398 
      7 S7          4.2162  -17.3389  -52.5289 S.3       23 UNK        -0.2404 
      8 C8          2.7976  -16.1933  -52.5567 C.3       23 UNK        -0.0205 
      9 C9          1.7009  -16.6226  -51.5925 C.ar      23 UNK        -0.0193 
     10 C10         0.6477  -17.4226  -52.0429 C.ar      23 UNK        -0.1150 
     11 C11        -0.3708  -17.8131  -51.1701 C.ar      23 UNK        -0.0193 
     12 C12        -0.3156  -17.4186  -49.8314 C.ar      23 UNK        -0.1150 
     13 C13         0.7480  -16.6421  -49.3551 C.ar      23 UNK        -0.0193 
     14 C14         1.7325  -16.2205  -50.2537 C.ar      23 UNK        -0.1150 
     15 C15         0.8554  -16.2235  -47.8891 C.3       23 UNK        -0.0205 
     16 S16         0.1226  -17.3934  -46.6954 S.3       23 UNK        -0.2404 
     17 C17         1.2060  -18.8557  -46.8429 C.3       23 UNK        -0.0398 
     18 CA          0.6618  -20.0453  -46.0117 C.3       11 UNK         0.1400 
     19 N          -0.6876  -20.4353  -46.4390 N.am      11 UNK        -0.5000 
     20 C          -1.5289  -21.2136  -45.7464 C.2       10 UNK         0.5000 
     21 O          -1.2167  -21.8228  -44.7228 O.2       10 UNK        -0.5000 
     22 CA         -2.9833  -21.2376  -46.2562 C.3       10 UNK         0.1400 
     23 CB         -3.8362  -22.3304  -45.5910 C.3       10 UNK        -0.1800 
     24 N          -3.6001  -19.9365  -46.0063 N.am      10 UNK        -0.5000 
     25 C          -3.4188  -18.8401  -46.7504 C.2       9 UNK         0.5000 
     26 O          -2.8663  -18.8698  -47.8494 O.2       9 UNK        -0.5000 
     27 CA         -3.8582  -17.4836  -46.1664 C.3       9 UNK         0.1400 
     28 CB         -5.1973  -17.0167  -46.7620 C.3       9 UNK        -0.1800 
     29 N          -3.8674  -17.4121  -44.6985 N.am      9 UNK        -0.5000 
     30 C          -4.6944  -17.9980  -43.8200 C.2       8 UNK         0.5000 
     31 O          -5.5754  -18.7977  -44.1339 O.2       8 UNK        -0.5000 
     32 CA         -4.4868  -17.6471  -42.3354 C.3       8 UNK         0.1400 
     33 CB         -3.5713  -18.6836  -41.6644 C.3       8 UNK        -0.1800 
     34 N          -3.9058  -16.3126  -42.1750 N.am      8 UNK        -0.5000 
     35 C          -4.6155  -15.1780  -42.0872 C.2       7 UNK         0.5000 
     36 O          -5.8449  -15.1447  -42.0246 O.2       7 UNK        -0.5000 
     37 CA         -3.8236  -13.8531  -42.0813 C.3       7 UNK         0.1400 
     38 CB         -3.4691  -13.4438  -40.6437 C.3       7 UNK        -0.1800 
     39 N          -2.5957  -13.9164  -42.8763 N.am      7 UNK        -0.5000 
     40 C          -2.5548  -14.0331  -44.2113 C.2       6 UNK         0.5000 
     41 O          -3.5531  -13.9816  -44.9289 O.2       6 UNK        -0.5000 
     42 CA         -1.1776  -14.2939  -44.8568 C.3       6 UNK         0.1400 
     43 CB         -0.6295  -13.0124  -45.4995 C.3       6 UNK        -0.1800 
     44 N          -0.1666  -14.8593  -43.9521 N.am      6 UNK        -0.5000 
     45 C          -0.2776  -16.0328  -43.3083 C.2       5 UNK         0.5000 
     46 O          -1.2902  -16.7309  -43.3695 O.2       5 UNK        -0.5000 
     47 CA          0.9015  -16.5055  -42.4354 C.3       5 UNK         0.1400 
     48 CB          1.3148  -17.9424  -42.7915 C.3       5 UNK        -0.1800 
     49 N           2.0737  -15.6389  -42.5506 N.am      5 UNK        -0.5000 
     50 C           2.3804  -14.6378  -41.7137 C.2       4 UNK         0.5000 
     51 O           1.6929  -14.3321  -40.7389 O.2       4 UNK        -0.5000 
     52 CA          3.6623  -13.8307  -42.0142 C.3       4 UNK         0.1400 
     53 CB          4.8238  -14.3274  -41.1399 C.3       4 UNK        -0.1800 
     54 N           4.0738  -13.8825  -43.4188 N.am      4 UNK        -0.5000 
     55 C           3.3753  -13.3676  -44.4394 C.2       3 UNK         0.5000 
     56 O           2.3437  -12.7144  -44.2890 O.2       3 UNK        -0.5000 
     57 CA          3.8791  -13.6698  -45.8660 C.3       3 UNK         0.1400 
     58 CB          4.6711  -12.4764  -46.4199 C.3       3 UNK        -0.1800 
     59 N           4.6946  -14.8844  -45.9953 N.am      3 UNK        -0.5000 
     60 C           4.3095  -16.1233  -45.6621 C.2       2 UNK         0.5000 
     61 O           3.2280  -16.3776  -45.1330 O.2       2 UNK        -0.5000 
     62 CA          5.2814  -17.2650  -46.0098 C.3       2 UNK         0.1400 
     63 CB          5.1621  -18.4421  -45.0273 C.3       2 UNK        -0.1800 
     64 N           5.0181  -17.7460  -47.3633 N.am      2 UNK        -0.5000 
     65 C           5.3575  -17.1082  -48.4893 C.2       1 UNK         0.5000 
     66 O           6.0483  -16.0873  -48.5040 O.2       1 UNK        -0.5000 
     67 C           1.6684  -21.2153  -45.9685 C.2       11 UNK         0.5000 
     68 O           2.6549  -21.1319  -45.2365 O.2       11 UNK        -0.5000 
     69 N           1.3915  -22.2914  -46.7124 N.am      12 UNK        -0.5000 
     70 CA          2.1597  -23.5296  -46.7422 C.3       12 UNK         0.1400 
     71 CB          3.4311  -23.3396  -47.5905 C.3       12 UNK        -0.1800 
     72 C           1.2781  -24.6420  -47.3235 C.2       12 UNK         0.5000 
     73 O           0.1947  -24.3635  -47.8481 O.2       12 UNK        -0.5000 
     74 N           1.7881  -25.8800  -47.2914 N.am      13 UNK        -0.5000 
     75 CA          1.1725  -27.0646  -47.9024 C.3       13 UNK         0.1400 
     76 CB          1.9823  -28.3083  -47.5058 C.3       13 UNK        -0.1800 
     77 C           1.0328  -26.9768  -49.4379 C.2       13 UNK         0.5000 
     78 O           0.2099  -27.6894  -50.0109 O.2       13 UNK        -0.5000 
     79 N           1.8128  -26.0887  -50.0713 N.am      14 UNK        -0.5000 
     80 CA          1.6858  -25.7159  -51.4803 C.3       14 UNK         0.1400 
     81 CB          2.9199  -24.8986  -51.8931 C.3       14 UNK        -0.1800 
     82 C           0.3935  -24.9258  -51.7737 C.2       14 UNK         0.5000 
     83 O          -0.1558  -25.0560  -52.8681 O.2       14 UNK        -0.5000 
     84 N          -0.0707  -24.1332  -50.7960 N.am      15 UNK        -0.5000 
     85 CA         -1.3404  -23.4109  -50.8518 C.3       15 UNK         0.1400 
     86 CB         -1.2394  -22.1160  -50.0287 C.3       15 UNK        -0.1800 
     87 C          -2.4927  -24.2950  -50.3475 C.2       15 UNK         0.5000 
     88 O          -3.5574  -24.3006  -50.9662 O.2       15 UNK        -0.5000 
     89 N          -2.2538  -25.0211  -49.2431 N.am      16 UNK        -0.5000 
     90 CA         -3.1051  -26.0198  -48.5768 C.3       16 UNK         0.1400 
     91 CB         -3.3668  -27.2285  -49.4961 C.3       16 UNK        -0.1800 
     92 C          -4.4271  -25.4704  -48.0048 C.2       16 UNK         0.5000 
     93 O          -4.6686  -25.5839  -46.8036 O.2       16 UNK        -0.5000 
     94 N          -5.2468  -24.8822  -48.8772 N.am      17 UNK        -0.5000 
     95 CA         -6.5252  -24.2385  -48.5933 C.3       17 UNK         0.1400 
     96 CB         -7.6719  -25.1560  -49.0542 C.3       17 UNK        -0.1800 
     97 C          -6.5353  -22.8638  -49.2828 C.2       17 UNK         0.5000 
     98 O          -7.4792  -22.5244  -49.9994 O.2       17 UNK        -0.5000 
     99 N          -5.4339  -22.1200  -49.0936 N.am      18 UNK        -0.5000 
    100 CA        -5.1581  -20.7860  -49.6408 C.3       18 UNK         0.1400 
    101 CB        -6.1179  -19.7488  -49.0220 C.3       18 UNK        -0.1800 
    102 C         -5.1624  -20.7366  -51.1822 C.2       18 UNK         0.5000 
    103 O         -5.5152  -19.7074  -51.7574 O.2       18 UNK        -0.5000 
    104 N         -4.8434  -21.8658  -51.8348 N.am      19 UNK        -0.5000 
    105 CA        -4.8850  -22.0996  -53.2860 C.3       19 UNK         0.1400 
    106 CB        -3.7662  -21.2936  -53.9774 C.3       19 UNK        -0.1800 
    107 C         -6.2669  -21.8413  -53.9365 C.2       19 UNK         0.5000 
    108 O         -6.3485  -21.7303  -55.1606 O.2       19 UNK        -0.5000 
    109 N         -7.3154  -21.7127  -53.1057 N.am      20 UNK        -0.5000 
    110 CA        -8.6542  -21.2072  -53.4188 C.3       20 UNK         0.1400 
    111 CB        -9.4266  -22.2260  -54.2823 C.3       20 UNK        -0.1800 
    112 C         -8.6519  -19.7808  -54.0238 C.2       20 UNK         0.5000 
    113 O         -9.5561  -19.4539  -54.7958 O.2       20 UNK        -0.5000 
    114 N         -7.6443  -18.9579  -53.6868 N.am      21 UNK        -0.5000 
    115 CA        -7.4241  -17.6489  -54.3115 C.3       21 UNK         0.1400 
    116 CB        -6.6563  -17.8366  -55.6332 C.3       21 UNK        -0.1800 
    117 C         -6.6983  -16.6285  -53.4168 C.2       21 UNK         0.5000 
    118 O         -6.9130  -15.4288  -53.5975 O.2       21 UNK        -0.5000 
    119 N         -5.8460  -17.0877  -52.4926 N.am      22 UNK        -0.5000 
    120 CA        -4.9954  -16.2331  -51.6435 C.3       22 UNK         0.1400 
    121 C         -5.7311  -15.5908  -50.4321 C.2       22 UNK         0.5000 
    122 N         -6.9598  -15.9810  -50.1147 N.am      22 UNK        -0.7600 
    123 O         -5.1793  -14.7139  -49.7737 O.2       22 UNK        -0.5000 
    124 C124       -3.7077  -16.9660  -51.1789 C.3       23 UNK        -0.0398 
    125 S125       -2.7552  -17.6741  -52.5666 S.3       23 UNK        -0.2404 
    126 C126       -1.5211  -18.6697  -51.6762 C.3       23 UNK        -0.0205 
    127 H127        4.8336  -22.1590  -50.2817 H         1 UNK         0.0600 
    128 H128        6.3921  -21.3551  -50.4833 H         1 UNK         0.0600 
    129 H129        5.9295  -21.9950  -48.9045 H         1 UNK         0.0600 
    130 H130        6.1364  -19.1464  -50.6636 H         1 UNK         0.3000 
    131 H131        3.7586  -17.8065  -49.6917 H         1 UNK         0.0600 
    132 H132        6.1689  -16.7626  -51.2524 H         1 UNK         0.0800 
    133 H133        4.8139  -15.7682  -50.8068 H         1 UNK         0.0800 
    134 H134        2.4001  -16.1611  -53.5723 H         1 UNK         0.0800 
    135 H135        3.1255  -15.1769  -52.3343 H         1 UNK         0.0800 
    136 H136        0.6129  -17.7341  -53.0775 H         1 UNK         0.1150 
    137 H137       -1.1039  -17.7221  -49.1612 H         1 UNK         0.1150 
    138 H138        2.5411  -15.5948  -49.9039 H         1 UNK         0.1150 
    139 H139        1.9005  -16.0710  -47.6168 H         1 UNK         0.0800 
    140 H140        0.3614  -15.2588  -47.7718 H         1 UNK         0.0800 
    141 H141        2.2019  -18.5700  -46.5025 H         1 UNK         0.0800 
    142 H142        1.3036  -19.1324  -47.8941 H         1 UNK         0.0800 
    143 H143        0.5650  -19.7055  -44.9797 H         1 UNK         0.0600 
    144 H144       -1.0680  -19.9109  -47.2183 H         1 UNK         0.3000 
    145 H145       -2.9588  -21.4361  -47.3290 H         1 UNK         0.0600 
    146 H146       -4.8411  -22.3588  -46.0123 H         1 UNK         0.0600 
    147 H147       -3.3919  -23.3153  -45.7393 H         1 UNK         0.0600 
    148 H148       -3.9304  -22.1711  -44.5160 H         1 UNK         0.0600 
    149 H149       -4.1026  -19.8266  -45.1338 H         1 UNK         0.3000 
    150 H150       -3.0995  -16.7655  -46.4812 H         1 UNK         0.0600 
    151 H151       -5.1305  -16.9519  -47.8473 H         1 UNK         0.0600 
    152 H152       -5.4660  -16.0256  -46.3959 H         1 UNK         0.0600 
    153 H153       -6.0142  -17.6981  -46.5246 H         1 UNK         0.0600 
    154 H154       -3.1022  -16.8791  -44.3009 H         1 UNK         0.3000 
    155 H155       -5.4601  -17.6859  -41.8418 H         1 UNK         0.0600 
    156 H156       -2.5875  -18.7226  -42.1332 H         1 UNK         0.0600 
    157 H157       -4.0029  -19.6833  -41.7291 H         1 UNK         0.0600 
    158 H158       -3.4302  -18.4586  -40.6073 H         1 UNK         0.0600 
    159 H159       -2.8988  -16.2550  -42.2765 H         1 UNK         0.3000 
    160 H160       -4.4662  -13.0803  -42.5085 H         1 UNK         0.0600 
    161 H161       -2.9740  -12.4728  -40.6206 H         1 UNK         0.0600 
    162 H162       -2.8080  -14.1701  -40.1691 H         1 UNK         0.0600 
    163 H163       -4.3662  -13.3647  -40.0281 H         1 UNK         0.0600 
    164 H164       -1.7245  -13.9547  -42.3680 H         1 UNK         0.3000 
    165 H165       -1.3420  -15.0213  -45.6531 H         1 UNK         0.0600 
    166 H166        0.2785  -13.2146  -46.0675 H         1 UNK         0.0600 
    167 H167       -1.3527  -12.5794  -46.1919 H         1 UNK         0.0600 
    168 H168       -0.3974  -12.2554  -44.7495 H         1 UNK         0.0600 
    169 H169        0.6911  -14.3328  -43.8511 H         1 UNK         0.3000 
    170 H170        0.5454  -16.5118  -41.4035 H         1 UNK         0.0600 
    171 H171        0.4784  -18.6339  -42.6821 H         1 UNK         0.0600 
    172 H172        1.6692  -18.0123  -43.8192 H         1 UNK         0.0600 
    173 H173        2.1139  -18.2954  -42.1398 H         1 UNK         0.0600 
    174 H174        2.6591  -15.8071  -43.3647 H         1 UNK         0.3000 
    175 H175        3.4613  -12.7882  -41.7589 H         1 UNK         0.0600 
    176 H176        5.7162  -13.7183  -41.2849 H         1 UNK         0.0600 
    177 H177        4.5660  -14.2763  -40.0812 H         1 UNK         0.0600 
    178 H178        5.0822  -15.3630  -41.3652 H         1 UNK         0.0600 
    179 H179        4.9098  -14.4069  -43.6295 H         1 UNK         0.3000 
    180 H180        2.9941  -13.8092  -46.4902 H         1 UNK         0.0600 
    181 H181        5.5904  -12.3092  -45.8574 H         1 UNK         0.0600 
    182 H182        4.0834  -11.5587  -46.3701 H         1 UNK         0.0600 
    183 H183        4.9394  -12.6318  -47.4652 H         1 UNK         0.0600 
    184 H184        5.5787  -14.7772  -46.4743 H         1 UNK         0.3000 
    185 H185        6.3034  -16.8839  -45.9550 H         1 UNK         0.0600 
    186 H186        4.1672  -18.8872  -45.0444 H         1 UNK         0.0600 
    187 H187        5.8810  -19.2269  -45.2630 H         1 UNK         0.0600 
    188 H188        5.3566  -18.1173  -44.0045 H         1 UNK         0.0600 
    189 H189        4.4775  -18.6005  -47.4530 H         1 UNK         0.3000 
    190 H190        0.5302  -22.3237  -47.2411 H         1 UNK         0.3000 
    191 H191        2.4310  -23.8095  -45.7224 H         1 UNK         0.0600 
    192 H192        4.0263  -24.2519  -47.6372 H         1 UNK         0.0600 
    193 H193        4.0728  -22.5652  -47.1705 H         1 UNK         0.0600 
    194 H194        3.1863  -23.0496  -48.6128 H         1 UNK         0.0600 
    195 H195        2.6829  -26.0264  -46.8462 H         1 UNK         0.3000 
    196 H196        0.1654  -27.1658  -47.4926 H         1 UNK         0.0600 
    197 H197        1.5351  -29.2142  -47.9174 H         1 UNK         0.0600 
    198 H198        2.0163  -28.4287  -46.4229 H         1 UNK         0.0600 
    199 H199        3.0085  -28.2535  -47.8714 H         1 UNK         0.0600 
    200 H200        2.4890  -25.5761  -49.5263 H         1 UNK         0.3000 
    201 H201        1.6623  -26.6303  -52.0769 H         1 UNK         0.0600 
    202 H202        3.8375  -25.4697  -51.7507 H         1 UNK         0.0600 
    203 H203        3.0048  -23.9763  -51.3168 H         1 UNK         0.0600 
    204 H204        2.8703  -24.6232  -52.9474 H         1 UNK         0.0600 
    205 H205        0.4091  -24.1266  -49.9055 H         1 UNK         0.3000 
    206 H206       -1.5564  -23.1320  -51.8855 H         1 UNK         0.0600 
    207 H207       -0.4257  -21.4846  -50.3864 H         1 UNK         0.0600 
    208 H208       -2.1571  -21.5355  -50.1097 H         1 UNK         0.0600 
    209 H209       -1.0684  -22.3125  -48.9708 H         1 UNK         0.0600 
    210 H210       -1.3598  -24.8673  -48.7837 H         1 UNK         0.3000 
    211 H211       -2.5230  -26.3793  -47.7267 H         1 UNK         0.0600 
    212 H212       -3.9202  -26.9512  -50.3936 H         1 UNK         0.0600 
    213 H213       -3.9476  -27.9930  -48.9786 H         1 UNK         0.0600 
    214 H214       -2.4337  -27.6921  -49.8130 H         1 UNK         0.0600 
    215 H215       -4.9021  -24.7891  -49.8305 H         1 UNK         0.3000 
    216 H216       -6.6309  -24.0584  -47.5216 H         1 UNK         0.0600 
    217 H217       -8.6429  -24.7089  -48.8378 H         1 UNK         0.0600 
    218 H218       -7.6354  -26.1172  -48.5415 H         1 UNK         0.0600 
    219 H219       -7.6268  -25.3470  -50.1271 H         1 UNK         0.0600 
    220 H220       -4.7093  -22.5178  -48.5158 H         1 UNK         0.3000 
    221 H221       -4.1454  -20.5278  -49.3385 H         1 UNK         0.0600 
    222 H222       -7.1451  -19.8959  -49.3566 H         1 UNK         0.0600 
    223 H223       -6.1105  -19.8055  -47.9339 H         1 UNK         0.0600 
    224 H224       -5.8306  -18.7346  -49.2969 H         1 UNK         0.0600 
    225 H225       -4.5763  -22.6803  -51.2918 H         1 UNK         0.3000 
    226 H226       -4.6728  -23.1598  -53.4301 H         1 UNK         0.0600 
    227 H227       -2.8002  -21.4721  -53.5054 H         1 UNK         0.0600 
    228 H228       -3.6702  -21.5743  -55.0267 H         1 UNK         0.0600 
    229 H229       -3.9623  -20.2215  -53.9436 H         1 UNK         0.0600 
    230 H230       -7.1403  -21.8550  -52.1178 H         1 UNK         0.3000 
    231 H231       -9.1735  -21.1253  -52.4630 H         1 UNK         0.0600 
    232 H232       -9.4171  -23.2159  -53.8261 H         1 UNK         0.0600 
    233 H233       -9.0014  -22.3131  -55.2825 H         1 UNK         0.0600 
    234 H234      -10.4710  -21.9333  -54.3951 H         1 UNK         0.0600 
    235 H235       -6.9408  -19.2837  -53.0314 H         1 UNK         0.3000 
    236 H236       -8.3936  -17.2016  -54.5414 H         1 UNK         0.0600 
    237 H237       -6.4632  -16.8784  -56.1172 H         1 UNK         0.0600 
    238 H238       -5.6940  -18.3232  -55.4676 H         1 UNK         0.0600 
    239 H239       -7.2215  -18.4465  -56.3380 H         1 UNK         0.0600 
    240 H240       -5.7052  -18.0877  -52.3660 H         1 UNK         0.3000 
    241 H241       -4.6675  -15.3929  -52.2587 H         1 UNK         0.0600 
    242 H242       -7.4322  -15.5511  -49.3357 H         1 UNK         0.3800 
    243 H243       -7.4254  -16.6891  -50.6585 H         1 UNK         0.3800 
    244 H244       -3.9563  -17.7659  -50.4804 H         1 UNK         0.0800 
    245 H245       -3.0526  -16.2810  -50.6377 H         1 UNK         0.0800 
    246 H246       -2.0004  -19.2009  -50.8528 H         1 UNK         0.0800 
    247 H247       -1.1341  -19.4360  -52.3494 H         1 UNK         0.0800 
@<TRIPOS>BOND
     1    1    2 1    
     2    1  127 1    
     3    1  128 1    
     4    1  129 1    
     5    2    3 2    
     6    2    4 am   BACKBONE|DICT|INTERRES
     7    4    5 1    
     8    4  130 1    
     9    5    6 1    
    10    5   65 1    
    11    5  131 1    
    12    6    7 1    
    13    6  132 1    
    14    6  133 1    
    15    7    8 1    
    16    8    9 1    
    17    8  134 1    
    18    8  135 1    
    19    9   10 ar   
    20    9   14 ar   
    21   10   11 ar   
    22   10  136 1    
    23   11   12 ar   
    24   11  126 1    
    25   12   13 ar   
    26   12  137 1    
    27   13   14 ar   
    28   13   15 1    
    29   14  138 1    
    30   15   16 1    
    31   15  139 1    
    32   15  140 1    
    33   16   17 1    
    34   17   18 1    
    35   17  141 1    
    36   17  142 1    
    37   18   19 1    
    38   18   67 1    
    39   18  143 1    
    40   19   20 am   BACKBONE|DICT|INTERRES
    41   19  144 1    
    42   20   21 2    
    43   20   22 1    
    44   22   23 1    
    45   22   24 1    
    46   22  145 1    
    47   23  146 1    
    48   23  147 1    
    49   23  148 1    
    50   24   25 am   BACKBONE|DICT|INTERRES
    51   24  149 1    
    52   25   26 2    
    53   25   27 1    
    54   27   28 1    
    55   27   29 1    
    56   27  150 1    
    57   28  151 1    
    58   28  152 1    
    59   28  153 1    
    60   29   30 am   BACKBONE|DICT|INTERRES
    61   29  154 1    
    62   30   31 2    
    63   30   32 1    
    64   32   33 1    
    65   32   34 1    
    66   32  155 1    
    67   33  156 1    
    68   33  157 1    
    69   33  158 1    
    70   34   35 am   BACKBONE|DICT|INTERRES
    71   34  159 1    
    72   35   36 2    
    73   35   37 1    
    74   37   38 1    
    75   37   39 1    
    76   37  160 1    
    77   38  161 1    
    78   38  162 1    
    79   38  163 1    
    80   39   40 am   BACKBONE|DICT|INTERRES
    81   39  164 1    
    82   40   41 2    
    83   40   42 1    
    84   42   43 1    
    85   42   44 1    
    86   42  165 1    
    87   43  166 1    
    88   43  167 1    
    89   43  168 1    
    90   44   45 am   BACKBONE|DICT|INTERRES
    91   44  169 1    
    92   45   46 2    
    93   45   47 1    
    94   47   48 1    
    95   47   49 1    
    96   47  170 1    
    97   48  171 1    
    98   48  172 1    
    99   48  173 1    
   100   49   50 am   BACKBONE|DICT|INTERRES
   101   49  174 1    
   102   50   51 2    
   103   50   52 1    
   104   52   53 1    
   105   52   54 1    
   106   52  175 1    
   107   53  176 1    
   108   53  177 1    
   109   53  178 1    
   110   54   55 am   BACKBONE|DICT|INTERRES
   111   54  179 1    
   112   55   56 2    
   113   55   57 1    
   114   57   58 1    
   115   57   59 1    
   116   57  180 1    
   117   58  181 1    
   118   58  182 1    
   119   58  183 1    
   120   59   60 am   BACKBONE|DICT|INTERRES
   121   59  184 1    
   122   60   61 2    
   123   60   62 1    
   124   62   63 1    
   125   62   64 1    
   126   62  185 1    
   127   63  186 1    
   128   63  187 1    
   129   63  188 1    
   130   64   65 am   BACKBONE|DICT|INTERRES
   131   64  189 1    
   132   65   66 2    
   133   67   68 2    
   134   67   69 am   BACKBONE|DICT|INTERRES
   135   69   70 1    
   136   69  190 1    
   137   70   71 1    
   138   70   72 1    
   139   70  191 1    
   140   71  192 1    
   141   71  193 1    
   142   71  194 1    
   143   72   73 2    
   144   72   74 am   BACKBONE|DICT|INTERRES
   145   74   75 1    
   146   74  195 1    
   147   75   76 1    
   148   75   77 1    
   149   75  196 1    
   150   76  197 1    
   151   76  198 1    
   152   76  199 1    
   153   77   78 2    
   154   77   79 am   BACKBONE|DICT|INTERRES
   155   79   80 1    
   156   79  200 1    
   157   80   81 1    
   158   80   82 1    
   159   80  201 1    
   160   81  202 1    
   161   81  203 1    
   162   81  204 1    
   163   82   83 2    
   164   82   84 am   BACKBONE|DICT|INTERRES
   165   84   85 1    
   166   84  205 1    
   167   85   86 1    
   168   85   87 1    
   169   85  206 1    
   170   86  207 1    
   171   86  208 1    
   172   86  209 1    
   173   87   88 2    
   174   87   89 am   BACKBONE|DICT|INTERRES
   175   89   90 1    
   176   89  210 1    
   177   90   91 1    
   178   90   92 1    
   179   90  211 1    
   180   91  212 1    
   181   91  213 1    
   182   91  214 1    
   183   92   93 2    
   184   92   94 am   BACKBONE|DICT|INTERRES
   185   94   95 1    
   186   94  215 1    
   187   95   96 1    
   188   95   97 1    
   189   95  216 1    
   190   96  217 1    
   191   96  218 1    
   192   96  219 1    
   193   97   98 2    
   194   97   99 am   BACKBONE|DICT|INTERRES
   195   99  100 1    
   196   99  220 1    
   197  100  101 1    
   198  100  102 1    
   199  100  221 1    
   200  101  222 1    
   201  101  223 1    
   202  101  224 1    
   203  102  103 2    
   204  102  104 am   BACKBONE|DICT|INTERRES
   205  104  105 1    
   206  104  225 1    
   207  105  106 1    
   208  105  107 1    
   209  105  226 1    
   210  106  227 1    
   211  106  228 1    
   212  106  229 1    
   213  107  108 2    
   214  107  109 am   BACKBONE|DICT|INTERRES
   215  109  110 1    
   216  109  230 1    
   217  110  111 1    
   218  110  112 1    
   219  110  231 1    
   220  111  232 1    
   221  111  233 1    
   222  111  234 1    
   223  112  113 2    
   224  112  114 am   BACKBONE|DICT|INTERRES
   225  114  115 1    
   226  114  235 1    
   227  115  116 1    
   228  115  117 1    
   229  115  236 1    
   230  116  237 1    
   231  116  238 1    
   232  116  239 1    
   233  117  118 2    
   234  117  119 am   BACKBONE|DICT|INTERRES
   235  119  120 1    
   236  119  240 1    
   237  120  121 1    
   238  120  124 1    
   239  120  241 1    
   240  121  122 am   BACKBONE|DICT|INTERRES
   241  121  123 2    
   242  122  242 1    
   243  122  243 1    
   244  124  125 1    
   245  124  244 1    
   246  124  245 1    
   247  125  126 1    
   248  126  246 1    
   249  126  247 1    
@<TRIPOS>SUBSTRUCTURE
     1 UNK         1 GROUP             0       ****    0 ROOT    
