@<TRIPOS>MOLECULE
3R540
247   249    1
SMALL
USER_CHARGES


@<TRIPOS>ATOM
      1 CA         -2.3999  -15.3551  -43.7861 C.3       0 UNK        -0.1800 
      2 C          -1.6265  -14.2862  -44.5432 C.2       0 UNK         0.5000 
      3 O          -0.6454  -13.7607  -44.0214 O.2       0 UNK        -0.5000 
      4 N          -2.0759  -13.9384  -45.7581 N.am      1 UNK        -0.5000 
      5 CA         -1.4236  -13.0237  -46.7168 C.3       1 UNK         0.1400 
      6 C6         -0.0638  -13.5701  -47.2400 C.3       23 UNK        -0.0398 
      7 S7         -0.2078  -15.1954  -48.0583 S.3       23 UNK        -0.2404 
      8 C8          1.3973  -15.2647  -48.9123 C.3       23 UNK        -0.0205 
      9 C9          1.4799  -16.4612  -49.8468 C.ar      23 UNK        -0.0193 
     10 C10         1.1183  -16.3328  -51.1905 C.ar      23 UNK        -0.1150 
     11 C11         1.2068  -17.4252  -52.0590 C.ar      23 UNK        -0.0193 
     12 C12         1.6468  -18.6595  -51.5704 C.ar      23 UNK        -0.1150 
     13 C13         2.0096  -18.7995  -50.2272 C.ar      23 UNK        -0.0193 
     14 C14         1.9365  -17.6942  -49.3764 C.ar      23 UNK        -0.1150 
     15 C15         2.4983  -20.1370  -49.6914 C.3       23 UNK        -0.0205 
     16 S16         1.1580  -21.3606  -49.5514 S.3       23 UNK        -0.2404 
     17 C17        -0.0524  -20.5196  -48.4731 C.3       23 UNK        -0.0398 
     18 CA         -0.7632  -21.5289  -47.5376 C.3       11 UNK         0.1400 
     19 N          -0.0029  -21.7911  -46.3109 N.am      11 UNK        -0.5000 
     20 C          -0.2805  -22.7806  -45.4502 C.2       10 UNK         0.5000 
     21 O          -1.1948  -23.5874  -45.6122 O.2       10 UNK        -0.5000 
     22 CA          0.5687  -22.8584  -44.1701 C.3       10 UNK         0.1400 
     23 CB          1.9591  -23.4396  -44.4663 C.3       10 UNK        -0.1800 
     24 N           0.6950  -21.5645  -43.4982 N.am      10 UNK        -0.5000 
     25 C          -0.3342  -20.8787  -42.9783 C.2       9 UNK         0.5000 
     26 O          -1.4960  -21.2840  -42.9808 O.2       9 UNK        -0.5000 
     27 CA         -0.0277  -19.4842  -42.4031 C.3       9 UNK         0.1400 
     28 CB          0.5804  -19.5870  -40.9967 C.3       9 UNK        -0.1800 
     29 N           0.8633  -18.7101  -43.2631 N.am      9 UNK        -0.5000 
     30 C           0.5821  -18.3337  -44.5170 C.2       8 UNK         0.5000 
     31 O          -0.4899  -18.5540  -45.0777 O.2       8 UNK        -0.5000 
     32 CA          1.7161  -17.6564  -45.2986 C.3       8 UNK         0.1400 
     33 CB          1.8551  -16.1778  -44.9193 C.3       8 UNK        -0.1800 
     34 N           2.9979  -18.3353  -45.1115 N.am      8 UNK        -0.5000 
     35 C           3.2680  -19.5769  -45.5359 C.2       7 UNK         0.5000 
     36 O           2.4677  -20.2763  -46.1553 O.2       7 UNK        -0.5000 
     37 CA          4.6545  -20.1409  -45.1784 C.3       7 UNK         0.1400 
     38 CB          5.7164  -19.6266  -46.1619 C.3       7 UNK        -0.1800 
     39 N           5.0571  -19.8161  -43.8083 N.am      7 UNK        -0.5000 
     40 C           4.4685  -20.3179  -42.7132 C.2       6 UNK         0.5000 
     41 O           3.5397  -21.1247  -42.7454 O.2       6 UNK        -0.5000 
     42 CA          4.9660  -19.7889  -41.3529 C.3       6 UNK         0.1400 
     43 CB          6.2337  -20.5361  -40.9124 C.3       6 UNK        -0.1800 
     44 N           5.2168  -18.3423  -41.3255 N.am      6 UNK        -0.5000 
     45 C           4.3080  -17.4081  -41.6347 C.2       5 UNK         0.5000 
     46 O           3.1777  -17.6790  -42.0459 O.2       5 UNK        -0.5000 
     47 CA          4.7431  -15.9343  -41.5012 C.3       5 UNK         0.1400 
     48 CB          5.7265  -15.5605  -42.6218 C.3       5 UNK        -0.1800 
     49 N           3.5886  -15.0417  -41.5890 N.am      5 UNK        -0.5000 
     50 C           2.6200  -14.9296  -40.6750 C.2       4 UNK         0.5000 
     51 O           2.7242  -15.3504  -39.5208 O.2       4 UNK        -0.5000 
     52 CA          1.3088  -14.2690  -41.1557 C.3       4 UNK         0.1400 
     53 CB          0.1995  -14.3033  -40.0892 C.3       4 UNK        -0.1800 
     54 N           1.4565  -12.8910  -41.6301 N.am      4 UNK        -0.5000 
     55 C           2.0526  -12.4971  -42.7632 C.2       3 UNK         0.5000 
     56 O           2.6833  -13.2458  -43.5121 O.2       3 UNK        -0.5000 
     57 CA          1.8035  -11.0377  -43.1626 C.3       3 UNK         0.1400 
     58 CB          2.7396  -10.5565  -44.2904 C.3       3 UNK        -0.1800 
     59 N           0.4109  -10.9562  -43.5880 N.am      3 UNK        -0.5000 
     60 C          -0.3156   -9.8404  -43.7295 C.2       2 UNK         0.5000 
     61 O           0.1040   -8.7187  -43.4390 O.2       2 UNK        -0.5000 
     62 CA         -1.7526  -10.0094  -44.2826 C.3       2 UNK         0.1400 
     63 CB         -2.2504   -8.7662  -45.0492 C.3       2 UNK        -0.1800 
     64 N          -1.9257  -11.2291  -45.0845 N.am      2 UNK        -0.5000 
     65 C          -1.2765  -11.5636  -46.2120 C.2       1 UNK         0.5000 
     66 O          -0.5613  -10.7789  -46.8369 O.2       1 UNK        -0.5000 
     67 C          -2.2212  -21.1129  -47.2513 C.2       11 UNK         0.5000 
     68 O          -3.1149  -21.5335  -47.9875 O.2       11 UNK        -0.5000 
     69 N          -2.4545  -20.3397  -46.1816 N.am      12 UNK        -0.5000 
     70 CA         -3.7917  -19.9756  -45.7125 C.3       12 UNK         0.1400 
     71 CB         -3.6923  -18.8758  -44.6459 C.3       12 UNK        -0.1800 
     72 C          -4.5803  -21.1885  -45.1861 C.2       12 UNK         0.5000 
     73 O          -5.7478  -21.3466  -45.5425 O.2       12 UNK        -0.5000 
     74 N          -3.9242  -22.0410  -44.3851 N.am      13 UNK        -0.5000 
     75 CA         -4.4898  -23.2794  -43.8428 C.3       13 UNK         0.1400 
     76 CB         -3.5370  -23.8624  -42.7883 C.3       13 UNK        -0.1800 
     77 C          -4.8035  -24.3242  -44.9301 C.2       13 UNK         0.5000 
     78 O          -5.8428  -24.9811  -44.8608 O.2       13 UNK        -0.5000 
     79 N          -3.9165  -24.4374  -45.9278 N.am      14 UNK        -0.5000 
     80 CA         -4.0824  -25.2936  -47.1043 C.3       14 UNK         0.1400 
     81 CB         -2.7200  -25.4517  -47.7980 C.3       14 UNK        -0.1800 
     82 C          -5.1249  -24.7641  -48.1093 C.2       14 UNK         0.5000 
     83 O          -5.5662  -25.5291  -48.9676 O.2       14 UNK        -0.5000 
     84 N          -5.4753  -23.4734  -47.9977 N.am      15 UNK        -0.5000 
     85 CA         -6.3274  -22.6939  -48.8984 C.3       15 UNK         0.1400 
     86 CB         -7.7829  -23.2030  -48.8686 C.3       15 UNK        -0.1800 
     87 C          -5.7305  -22.6304  -50.3175 C.2       15 UNK         0.5000 
     88 O          -6.4148  -22.9244  -51.2991 O.2       15 UNK        -0.5000 
     89 N          -4.4451  -22.2566  -50.3930 N.am      16 UNK        -0.5000 
     90 CA         -3.6167  -22.2595  -51.6018 C.3       16 UNK         0.1400 
     91 CB         -2.2110  -21.7510  -51.2541 C.3       16 UNK        -0.1800 
     92 C          -4.1907  -21.4558  -52.7813 C.2       16 UNK         0.5000 
     93 O          -3.9873  -21.8495  -53.9292 O.2       16 UNK        -0.5000 
     94 N          -4.9031  -20.3614  -52.4854 N.am      17 UNK        -0.5000 
     95 CA         -5.5775  -19.5241  -53.4783 C.3       17 UNK         0.1400 
     96 CB         -5.9554  -18.1835  -52.8317 C.3       17 UNK        -0.1800 
     97 C          -6.8172  -20.1998  -54.0968 C.2       17 UNK         0.5000 
     98 O          -7.1061  -19.9716  -55.2712 O.2       17 UNK        -0.5000 
     99 N          -7.5181  -21.0280  -53.3094 N.am      18 UNK        -0.5000 
    100 CA        -8.6747  -21.8092  -53.7536 C.3       18 UNK         0.1400 
    101 CB        -9.5690  -22.1360  -52.5477 C.3       18 UNK        -0.1800 
    102 C         -8.2361  -23.0961  -54.4725 C.2       18 UNK         0.5000 
    103 O         -8.8637  -23.4922  -55.4549 O.2       18 UNK        -0.5000 
    104 N         -7.1441  -23.7040  -53.9881 N.am      19 UNK        -0.5000 
    105 CA        -6.4948  -24.8773  -54.5764 C.3       19 UNK         0.1400 
    106 CB        -5.5258  -25.4682  -53.5402 C.3       19 UNK        -0.1800 
    107 C         -5.7477  -24.5748  -55.8929 C.2       19 UNK         0.5000 
    108 O         -5.3940  -25.5115  -56.6096 O.2       19 UNK        -0.5000 
    109 N         -5.5060  -23.2843  -56.1700 N.am      20 UNK        -0.5000 
    110 CA        -4.7562  -22.7272  -57.3014 C.3       20 UNK         0.1400 
    111 CB        -5.4177  -23.0843  -58.6488 C.3       20 UNK        -0.1800 
    112 C         -3.2490  -23.0594  -57.2567 C.2       20 UNK         0.5000 
    113 O         -2.5831  -23.0567  -58.2936 O.2       20 UNK        -0.5000 
    114 N         -2.7305  -23.3066  -56.0466 N.am      21 UNK        -0.5000 
    115 CA        -1.3022  -23.4078  -55.7504 C.3       21 UNK         0.1400 
    116 CB        -1.1134  -24.1860  -54.4394 C.3       21 UNK        -0.1800 
    117 C         -0.6622  -22.0096  -55.6602 C.2       21 UNK         0.5000 
    118 O          0.4889  -21.8371  -56.0616 O.2       21 UNK        -0.5000 
    119 N         -1.4421  -21.0381  -55.1722 N.am      22 UNK        -0.5000 
    120 CA        -1.1732  -19.6018  -55.2502 C.3       22 UNK         0.1400 
    121 C         -2.0811  -18.9906  -56.3528 C.2       22 UNK         0.5000 
    122 N         -1.5400  -18.1488  -57.2225 N.am      22 UNK        -0.7600 
    123 O         -3.2771  -19.2654  -56.4197 O.2       22 UNK        -0.5000 
    124 C124       -1.3837  -18.9377  -53.8642 C.3       23 UNK        -0.0398 
    125 S125       -0.9285  -17.1705  -53.8221 S.3       23 UNK        -0.2404 
    126 C126        0.8660  -17.2506  -53.5306 C.3       23 UNK        -0.0205 
    127 H127       -3.3290  -15.6168  -44.2924 H         1 UNK         0.0600 
    128 H128       -2.6460  -15.0024  -42.7847 H         1 UNK         0.0600 
    129 H129       -1.7939  -16.2562  -43.6913 H         1 UNK         0.0600 
    130 H130       -2.9047  -14.3945  -46.1133 H         1 UNK         0.3000 
    131 H131       -2.1000  -12.9611  -47.5705 H         1 UNK         0.0600 
    132 H132        0.3655  -12.8796  -47.9679 H         1 UNK         0.0800 
    133 H133        0.6628  -13.6438  -46.4293 H         1 UNK         0.0800 
    134 H134        2.1981  -15.3096  -48.1725 H         1 UNK         0.0800 
    135 H135        1.5518  -14.3453  -49.4791 H         1 UNK         0.0800 
    136 H136        0.7742  -15.3788  -51.5652 H         1 UNK         0.1150 
    137 H137        1.7157  -19.5106  -52.2335 H         1 UNK         0.1150 
    138 H138        2.2414  -17.7956  -48.3472 H         1 UNK         0.1150 
    139 H139        2.9768  -20.0152  -48.7196 H         1 UNK         0.0800 
    140 H140        3.2660  -20.5315  -50.3583 H         1 UNK         0.0800 
    141 H141       -0.7565  -20.0099  -49.1328 H         1 UNK         0.0800 
    142 H142        0.4319  -19.7334  -47.8924 H         1 UNK         0.0800 
    143 H143       -0.8409  -22.4817  -48.0659 H         1 UNK         0.0600 
    144 H144        0.7959  -21.1875  -46.1321 H         1 UNK         0.3000 
    145 H145        0.0626  -23.5383  -43.4816 H         1 UNK         0.0600 
    146 H146        1.8798  -24.4073  -44.9633 H         1 UNK         0.0600 
    147 H147        2.5252  -23.5924  -43.5475 H         1 UNK         0.0600 
    148 H148        2.5427  -22.7852  -45.1136 H         1 UNK         0.0600 
    149 H149        1.6324  -21.1839  -43.4189 H         1 UNK         0.3000 
    150 H150       -0.9711  -18.9397  -42.3277 H         1 UNK         0.0600 
    151 H151        1.5433  -20.0986  -41.0109 H         1 UNK         0.0600 
    152 H152       -0.0777  -20.1402  -40.3257 H         1 UNK         0.0600 
    153 H153        0.7353  -18.5991  -40.5621 H         1 UNK         0.0600 
    154 H154        1.7673  -18.4531  -42.8701 H         1 UNK         0.3000 
    155 H155        1.4471  -17.7067  -46.3525 H         1 UNK         0.0600 
    156 H156        0.9187  -15.6507  -45.0915 H         1 UNK         0.0600 
    157 H157        2.6197  -15.6819  -45.5170 H         1 UNK         0.0600 
    158 H158        2.1124  -16.0487  -43.8693 H         1 UNK         0.0600 
    159 H159        3.6858  -17.8561  -44.5507 H         1 UNK         0.3000 
    160 H160        4.6048  -21.2280  -45.2706 H         1 UNK         0.0600 
    161 H161        5.4441  -19.8680  -47.1904 H         1 UNK         0.0600 
    162 H162        6.6869  -20.0838  -45.9681 H         1 UNK         0.0600 
    163 H163        5.8362  -18.5443  -46.0994 H         1 UNK         0.0600 
    164 H164        5.8090  -19.1529  -43.6928 H         1 UNK         0.3000 
    165 H165        4.1819  -19.9945  -40.6212 H         1 UNK         0.0600 
    166 H166        6.0698  -21.6147  -40.9084 H         1 UNK         0.0600 
    167 H167        7.0733  -20.3340  -41.5785 H         1 UNK         0.0600 
    168 H168        6.5293  -20.2508  -39.9027 H         1 UNK         0.0600 
    169 H169        6.1303  -18.0510  -41.0085 H         1 UNK         0.3000 
    170 H170        5.2264  -15.7964  -40.5321 H         1 UNK         0.0600 
    171 H171        6.0380  -14.5189  -42.5391 H         1 UNK         0.0600 
    172 H172        5.2821  -15.6973  -43.6088 H         1 UNK         0.0600 
    173 H173        6.6292  -16.1709  -42.5788 H         1 UNK         0.0600 
    174 H174        3.4117  -14.6115  -42.4934 H         1 UNK         0.3000 
    175 H175        0.9569  -14.8691  -41.9976 H         1 UNK         0.0600 
    176 H176        0.4592  -13.7005  -39.2182 H         1 UNK         0.0600 
    177 H177        0.0186  -15.3223  -39.7444 H         1 UNK         0.0600 
    178 H178       -0.7427  -13.9291  -40.4904 H         1 UNK         0.0600 
    179 H179        0.9636  -12.1935  -41.0922 H         1 UNK         0.3000 
    180 H180        1.9558  -10.4108  -42.2818 H         1 UNK         0.0600 
    181 H181        2.5742  -11.1131  -45.2139 H         1 UNK         0.0600 
    182 H182        3.7857  -10.6838  -44.0099 H         1 UNK         0.0600 
    183 H183        2.5898   -9.4991  -44.5083 H         1 UNK         0.0600 
    184 H184       -0.0165  -11.8527  -43.8098 H         1 UNK         0.3000 
    185 H185       -2.3939  -10.1320  -43.4087 H         1 UNK         0.0600 
    186 H186       -2.2785   -7.8914  -44.3987 H         1 UNK         0.0600 
    187 H187       -1.6044   -8.5225  -45.8929 H         1 UNK         0.0600 
    188 H188       -3.2601   -8.9164  -45.4314 H         1 UNK         0.0600 
    189 H189       -2.4842  -11.9531  -44.6547 H         1 UNK         0.3000 
    190 H190       -1.6700  -19.9639  -45.6558 H         1 UNK         0.3000 
    191 H191       -4.3434  -19.5667  -46.5617 H         1 UNK         0.0600 
    192 H192       -3.2156  -17.9844  -45.0525 H         1 UNK         0.0600 
    193 H193       -4.6808  -18.5833  -44.2900 H         1 UNK         0.0600 
    194 H194       -3.1128  -19.2000  -43.7815 H         1 UNK         0.0600 
    195 H195       -2.9741  -21.8166  -44.1011 H         1 UNK         0.3000 
    196 H196       -5.4292  -23.0270  -43.3467 H         1 UNK         0.0600 
    197 H197       -3.9405  -24.7812  -42.3609 H         1 UNK         0.0600 
    198 H198       -3.3829  -23.1620  -41.9674 H         1 UNK         0.0600 
    199 H199       -2.5609  -24.0977  -43.2139 H         1 UNK         0.0600 
    200 H200       -3.0437  -23.9181  -45.8662 H         1 UNK         0.3000 
    201 H201       -4.4148  -26.2787  -46.7708 H         1 UNK         0.0600 
    202 H202       -2.7921  -26.1174  -48.6591 H         1 UNK         0.0600 
    203 H203       -1.9786  -25.8761  -47.1209 H         1 UNK         0.0600 
    204 H204       -2.3397  -24.4937  -48.1546 H         1 UNK         0.0600 
    205 H205       -5.0275  -22.9390  -47.2652 H         1 UNK         0.3000 
    206 H206       -6.3261  -21.6729  -48.5142 H         1 UNK         0.0600 
    207 H207       -8.1623  -23.2486  -47.8478 H         1 UNK         0.0600 
    208 H208       -8.4382  -22.5353  -49.4286 H         1 UNK         0.0600 
    209 H209       -7.8779  -24.1968  -49.3070 H         1 UNK         0.0600 
    210 H210       -3.9669  -22.0253  -49.5234 H         1 UNK         0.3000 
    211 H211       -3.5292  -23.2970  -51.9265 H         1 UNK         0.0600 
    212 H212       -1.7427  -22.3793  -50.4966 H         1 UNK         0.0600 
    213 H213       -1.5573  -21.7573  -52.1270 H         1 UNK         0.0600 
    214 H214       -2.2397  -20.7292  -50.8751 H         1 UNK         0.0600 
    215 H215       -5.0168  -20.1079  -51.5151 H         1 UNK         0.3000 
    216 H216       -4.8759  -19.3211  -54.2891 H         1 UNK         0.0600 
    217 H217       -6.6422  -18.3182  -51.9952 H         1 UNK         0.0600 
    218 H218       -6.4412  -17.5257  -53.5537 H         1 UNK         0.0600 
    219 H219       -5.0720  -17.6621  -52.4624 H         1 UNK         0.0600 
    220 H220       -7.1728  -21.2291  -52.3798 H         1 UNK         0.3000 
    221 H221       -9.2611  -21.2119  -54.4553 H         1 UNK         0.0600 
    222 H222       -9.0583  -22.7712  -51.8239 H         1 UNK         0.0600 
    223 H223       -9.8867  -21.2287  -52.0338 H         1 UNK         0.0600 
    224 H224      -10.4697  -22.6630  -52.8648 H         1 UNK         0.0600 
    225 H225       -6.7424  -23.3486  -53.1243 H         1 UNK         0.3000 
    226 H226       -7.2633  -25.6214  -54.7949 H         1 UNK         0.0600 
    227 H227       -6.0362  -25.6979  -52.6043 H         1 UNK         0.0600 
    228 H228       -5.0800  -26.3945  -53.9044 H         1 UNK         0.0600 
    229 H229       -4.7117  -24.7791  -53.3171 H         1 UNK         0.0600 
    230 H230       -5.8071  -22.6075  -55.4825 H         1 UNK         0.3000 
    231 H231       -4.8198  -21.6439  -57.1870 H         1 UNK         0.0600 
    232 H232       -5.3145  -24.1435  -58.8854 H         1 UNK         0.0600 
    233 H233       -4.9638  -22.5234  -59.4664 H         1 UNK         0.0600 
    234 H234       -6.4806  -22.8425  -58.6421 H         1 UNK         0.0600 
    235 H235       -3.3499  -23.2064  -55.2503 H         1 UNK         0.3000 
    236 H236       -0.8068  -23.9588  -56.5526 H         1 UNK         0.0600 
    237 H237       -1.6120  -23.6967  -53.6031 H         1 UNK         0.0600 
    238 H238       -1.5150  -25.1962  -54.5217 H         1 UNK         0.0600 
    239 H239       -0.0562  -24.2749  -54.1867 H         1 UNK         0.0600 
    240 H240       -2.3920  -21.2805  -54.9085 H         1 UNK         0.3000 
    241 H241       -0.1326  -19.4458  -55.5401 H         1 UNK         0.0600 
    242 H242       -0.5650  -17.8960  -57.1793 H         1 UNK         0.3800 
    243 H243       -2.1241  -17.7432  -57.9370 H         1 UNK         0.3800 
    244 H244       -2.4255  -19.0250  -53.5537 H         1 UNK         0.0800 
    245 H245       -0.8019  -19.4631  -53.1059 H         1 UNK         0.0800 
    246 H246        1.3163  -16.3240  -53.8897 H         1 UNK         0.0800 
    247 H247        1.3072  -18.0489  -54.1290 H         1 UNK         0.0800 
@<TRIPOS>BOND
     1    1    2 1    
     2    1  127 1    
     3    1  128 1    
     4    1  129 1    
     5    2    3 2    
     6    2    4 am   BACKBONE|DICT|INTERRES
     7    4    5 1    
     8    4  130 1    
     9    5    6 1    
    10    5   65 1    
    11    5  131 1    
    12    6    7 1    
    13    6  132 1    
    14    6  133 1    
    15    7    8 1    
    16    8    9 1    
    17    8  134 1    
    18    8  135 1    
    19    9   10 ar   
    20    9   14 ar   
    21   10   11 ar   
    22   10  136 1    
    23   11   12 ar   
    24   11  126 1    
    25   12   13 ar   
    26   12  137 1    
    27   13   14 ar   
    28   13   15 1    
    29   14  138 1    
    30   15   16 1    
    31   15  139 1    
    32   15  140 1    
    33   16   17 1    
    34   17   18 1    
    35   17  141 1    
    36   17  142 1    
    37   18   19 1    
    38   18   67 1    
    39   18  143 1    
    40   19   20 am   BACKBONE|DICT|INTERRES
    41   19  144 1    
    42   20   21 2    
    43   20   22 1    
    44   22   23 1    
    45   22   24 1    
    46   22  145 1    
    47   23  146 1    
    48   23  147 1    
    49   23  148 1    
    50   24   25 am   BACKBONE|DICT|INTERRES
    51   24  149 1    
    52   25   26 2    
    53   25   27 1    
    54   27   28 1    
    55   27   29 1    
    56   27  150 1    
    57   28  151 1    
    58   28  152 1    
    59   28  153 1    
    60   29   30 am   BACKBONE|DICT|INTERRES
    61   29  154 1    
    62   30   31 2    
    63   30   32 1    
    64   32   33 1    
    65   32   34 1    
    66   32  155 1    
    67   33  156 1    
    68   33  157 1    
    69   33  158 1    
    70   34   35 am   BACKBONE|DICT|INTERRES
    71   34  159 1    
    72   35   36 2    
    73   35   37 1    
    74   37   38 1    
    75   37   39 1    
    76   37  160 1    
    77   38  161 1    
    78   38  162 1    
    79   38  163 1    
    80   39   40 am   BACKBONE|DICT|INTERRES
    81   39  164 1    
    82   40   41 2    
    83   40   42 1    
    84   42   43 1    
    85   42   44 1    
    86   42  165 1    
    87   43  166 1    
    88   43  167 1    
    89   43  168 1    
    90   44   45 am   BACKBONE|DICT|INTERRES
    91   44  169 1    
    92   45   46 2    
    93   45   47 1    
    94   47   48 1    
    95   47   49 1    
    96   47  170 1    
    97   48  171 1    
    98   48  172 1    
    99   48  173 1    
   100   49   50 am   BACKBONE|DICT|INTERRES
   101   49  174 1    
   102   50   51 2    
   103   50   52 1    
   104   52   53 1    
   105   52   54 1    
   106   52  175 1    
   107   53  176 1    
   108   53  177 1    
   109   53  178 1    
   110   54   55 am   BACKBONE|DICT|INTERRES
   111   54  179 1    
   112   55   56 2    
   113   55   57 1    
   114   57   58 1    
   115   57   59 1    
   116   57  180 1    
   117   58  181 1    
   118   58  182 1    
   119   58  183 1    
   120   59   60 am   BACKBONE|DICT|INTERRES
   121   59  184 1    
   122   60   61 2    
   123   60   62 1    
   124   62   63 1    
   125   62   64 1    
   126   62  185 1    
   127   63  186 1    
   128   63  187 1    
   129   63  188 1    
   130   64   65 am   BACKBONE|DICT|INTERRES
   131   64  189 1    
   132   65   66 2    
   133   67   68 2    
   134   67   69 am   BACKBONE|DICT|INTERRES
   135   69   70 1    
   136   69  190 1    
   137   70   71 1    
   138   70   72 1    
   139   70  191 1    
   140   71  192 1    
   141   71  193 1    
   142   71  194 1    
   143   72   73 2    
   144   72   74 am   BACKBONE|DICT|INTERRES
   145   74   75 1    
   146   74  195 1    
   147   75   76 1    
   148   75   77 1    
   149   75  196 1    
   150   76  197 1    
   151   76  198 1    
   152   76  199 1    
   153   77   78 2    
   154   77   79 am   BACKBONE|DICT|INTERRES
   155   79   80 1    
   156   79  200 1    
   157   80   81 1    
   158   80   82 1    
   159   80  201 1    
   160   81  202 1    
   161   81  203 1    
   162   81  204 1    
   163   82   83 2    
   164   82   84 am   BACKBONE|DICT|INTERRES
   165   84   85 1    
   166   84  205 1    
   167   85   86 1    
   168   85   87 1    
   169   85  206 1    
   170   86  207 1    
   171   86  208 1    
   172   86  209 1    
   173   87   88 2    
   174   87   89 am   BACKBONE|DICT|INTERRES
   175   89   90 1    
   176   89  210 1    
   177   90   91 1    
   178   90   92 1    
   179   90  211 1    
   180   91  212 1    
   181   91  213 1    
   182   91  214 1    
   183   92   93 2    
   184   92   94 am   BACKBONE|DICT|INTERRES
   185   94   95 1    
   186   94  215 1    
   187   95   96 1    
   188   95   97 1    
   189   95  216 1    
   190   96  217 1    
   191   96  218 1    
   192   96  219 1    
   193   97   98 2    
   194   97   99 am   BACKBONE|DICT|INTERRES
   195   99  100 1    
   196   99  220 1    
   197  100  101 1    
   198  100  102 1    
   199  100  221 1    
   200  101  222 1    
   201  101  223 1    
   202  101  224 1    
   203  102  103 2    
   204  102  104 am   BACKBONE|DICT|INTERRES
   205  104  105 1    
   206  104  225 1    
   207  105  106 1    
   208  105  107 1    
   209  105  226 1    
   210  106  227 1    
   211  106  228 1    
   212  106  229 1    
   213  107  108 2    
   214  107  109 am   BACKBONE|DICT|INTERRES
   215  109  110 1    
   216  109  230 1    
   217  110  111 1    
   218  110  112 1    
   219  110  231 1    
   220  111  232 1    
   221  111  233 1    
   222  111  234 1    
   223  112  113 2    
   224  112  114 am   BACKBONE|DICT|INTERRES
   225  114  115 1    
   226  114  235 1    
   227  115  116 1    
   228  115  117 1    
   229  115  236 1    
   230  116  237 1    
   231  116  238 1    
   232  116  239 1    
   233  117  118 2    
   234  117  119 am   BACKBONE|DICT|INTERRES
   235  119  120 1    
   236  119  240 1    
   237  120  121 1    
   238  120  124 1    
   239  120  241 1    
   240  121  122 am   BACKBONE|DICT|INTERRES
   241  121  123 2    
   242  122  242 1    
   243  122  243 1    
   244  124  125 1    
   245  124  244 1    
   246  124  245 1    
   247  125  126 1    
   248  126  246 1    
   249  126  247 1    
@<TRIPOS>SUBSTRUCTURE
     1 UNK         1 GROUP             0       ****    0 ROOT    
