@<TRIPOS>MOLECULE
3R540
247   249    1
SMALL
USER_CHARGES


@<TRIPOS>ATOM
      1 CA          2.8504  -16.4760  -47.1165 C.3       0 UNK        -0.1800 
      2 C           2.1668  -15.1731  -46.7296 C.2       0 UNK         0.5000 
      3 O           2.4861  -14.5955  -45.6925 O.2       0 UNK        -0.5000 
      4 N           1.2413  -14.6960  -47.5718 N.am      1 UNK        -0.5000 
      5 CA          0.4007  -13.5072  -47.3461 C.3       1 UNK         0.1400 
      6 C6         -0.7664  -13.4155  -48.3602 C.3       23 UNK        -0.0398 
      7 S7         -1.7777  -14.9342  -48.3844 S.3       23 UNK        -0.2404 
      8 C8         -1.3961  -15.5977  -50.0359 C.3       23 UNK        -0.0205 
      9 C9         -1.5866  -17.1047  -50.0787 C.ar      23 UNK        -0.0193 
     10 C10        -2.8691  -17.6541  -50.0029 C.ar      23 UNK        -0.1150 
     11 C11        -3.0526  -19.0387  -50.0374 C.ar      23 UNK        -0.0193 
     12 C12        -1.9397  -19.8763  -50.1499 C.ar      23 UNK        -0.1150 
     13 C13        -0.6499  -19.3396  -50.2292 C.ar      23 UNK        -0.0193 
     14 C14        -0.4814  -17.9521  -50.1979 C.ar      23 UNK        -0.1150 
     15 C15         0.5516  -20.2653  -50.3769 C.3       23 UNK        -0.0205 
     16 S16         1.8872  -19.9708  -49.1682 S.3       23 UNK        -0.2404 
     17 C17         1.0232  -20.0372  -47.5640 C.3       23 UNK        -0.0398 
     18 CA          0.8968  -21.4665  -46.9760 C.3       11 UNK         0.1400 
     19 N           0.9057  -21.4554  -45.5102 N.am      11 UNK        -0.5000 
     20 C           0.8942  -22.5400  -44.7223 C.2       10 UNK         0.5000 
     21 O           0.9446  -23.6942  -45.1451 O.2       10 UNK        -0.5000 
     22 CA          0.7413  -22.2975  -43.2092 C.3       10 UNK         0.1400 
     23 CB          2.0942  -21.9619  -42.5652 C.3       10 UNK        -0.1800 
     24 N          -0.2331  -21.2470  -42.9053 N.am      10 UNK        -0.5000 
     25 C          -1.5407  -21.3284  -43.1936 C.2       9 UNK         0.5000 
     26 O          -2.0670  -22.3236  -43.6891 O.2       9 UNK        -0.5000 
     27 CA         -2.3993  -20.0785  -42.9317 C.3       9 UNK         0.1400 
     28 CB         -2.7959  -19.9878  -41.4510 C.3       9 UNK        -0.1800 
     29 N          -1.7388  -18.8405  -43.3449 N.am      9 UNK        -0.5000 
     30 C          -1.3916  -18.5434  -44.6058 C.2       8 UNK         0.5000 
     31 O          -1.6308  -19.2698  -45.5705 O.2       8 UNK        -0.5000 
     32 CA         -0.5883  -17.2447  -44.8110 C.3       8 UNK         0.1400 
     33 CB         -1.5112  -16.0190  -44.7642 C.3       8 UNK        -0.1800 
     34 N           0.4823  -17.0915  -43.8232 N.am      8 UNK        -0.5000 
     35 C           1.5034  -17.9471  -43.6714 C.2       7 UNK         0.5000 
     36 O           1.6883  -18.9251  -44.3931 O.2       7 UNK        -0.5000 
     37 CA          2.4402  -17.7093  -42.4771 C.3       7 UNK         0.1400 
     38 CB          3.5027  -16.6514  -42.8083 C.3       7 UNK        -0.1800 
     39 N           1.6923  -17.3189  -41.2824 N.am      7 UNK        -0.5000 
     40 C           0.9157  -18.1556  -40.5782 C.2       6 UNK         0.5000 
     41 O           0.7928  -19.3521  -40.8389 O.2       6 UNK        -0.5000 
     42 CA          0.1118  -17.5481  -39.4127 C.3       6 UNK         0.1400 
     43 CB          0.9643  -17.5006  -38.1361 C.3       6 UNK        -0.1800 
     44 N          -0.3868  -16.2050  -39.7105 N.am      6 UNK        -0.5000 
     45 C          -1.3034  -15.9245  -40.6481 C.2       5 UNK         0.5000 
     46 O          -1.8795  -16.7832  -41.3139 O.2       5 UNK        -0.5000 
     47 CA         -1.5806  -14.4332  -40.9266 C.3       5 UNK         0.1400 
     48 CB         -2.7395  -13.9289  -40.0544 C.3       5 UNK        -0.1800 
     49 N          -0.4077  -13.5763  -40.7199 N.am      5 UNK        -0.5000 
     50 C           0.7430  -13.6878  -41.3973 C.2       4 UNK         0.5000 
     51 O           0.9252  -14.5203  -42.2881 O.2       4 UNK        -0.5000 
     52 CA          1.8957  -12.7814  -40.9251 C.3       4 UNK         0.1400 
     53 CB          2.4961  -13.3322  -39.6205 C.3       4 UNK        -0.1800 
     54 N           2.9734  -12.6627  -41.9073 N.am      4 UNK        -0.5000 
     55 C           2.8925  -12.0086  -43.0723 C.2       3 UNK         0.5000 
     56 O           1.8834  -11.4005  -43.4377 O.2       3 UNK        -0.5000 
     57 CA          4.1646  -11.9830  -43.9466 C.3       3 UNK         0.1400 
     58 CB          5.1091  -13.1789  -43.7107 C.3       3 UNK        -0.1800 
     59 N           3.7931  -11.9590  -45.3572 N.am      3 UNK        -0.5000 
     60 C           3.9148  -10.9108  -46.1828 C.2       2 UNK         0.5000 
     61 O           4.4225   -9.8370  -45.8555 O.2       2 UNK        -0.5000 
     62 CA          3.3937  -11.0838  -47.6262 C.3       2 UNK         0.1400 
     63 CB          4.5632  -11.3165  -48.5956 C.3       2 UNK        -0.1800 
     64 N           2.4433  -12.1881  -47.7639 N.am      2 UNK        -0.5000 
     65 C           1.1852  -12.1766  -47.3023 C.2       1 UNK         0.5000 
     66 O           0.6429  -11.1717  -46.8412 O.2       1 UNK        -0.5000 
     67 C          -0.3499  -22.1912  -47.5230 C.2       11 UNK         0.5000 
     68 O          -0.2164  -23.1072  -48.3353 O.2       11 UNK        -0.5000 
     69 N          -1.5315  -21.7984  -47.0263 N.am      12 UNK        -0.5000 
     70 CA         -2.8225  -22.3909  -47.3741 C.3       12 UNK         0.1400 
     71 CB         -3.9485  -21.5589  -46.7432 C.3       12 UNK        -0.1800 
     72 C          -2.9415  -23.8724  -46.9727 C.2       12 UNK         0.5000 
     73 O          -3.5291  -24.6535  -47.7175 O.2       12 UNK        -0.5000 
     74 N          -2.3681  -24.2493  -45.8230 N.am      13 UNK        -0.5000 
     75 CA         -2.3004  -25.6357  -45.3629 C.3       13 UNK         0.1400 
     76 CB         -1.8570  -25.6704  -43.8924 C.3       13 UNK        -0.1800 
     77 C          -1.3741  -26.5042  -46.2353 C.2       13 UNK         0.5000 
     78 O          -1.7253  -27.6437  -46.5433 O.2       13 UNK        -0.5000 
     79 N          -0.2116  -25.9557  -46.6118 N.am      14 UNK        -0.5000 
     80 CA          0.8150  -26.6471  -47.3878 C.3       14 UNK         0.1400 
     81 CB          2.1556  -25.9127  -47.2261 C.3       14 UNK        -0.1800 
     82 C           0.4587  -26.7958  -48.8769 C.2       14 UNK         0.5000 
     83 O           0.5764  -27.8959  -49.4185 O.2       14 UNK        -0.5000 
     84 N           0.0675  -25.6877  -49.5185 N.am      15 UNK        -0.5000 
     85 CA         -0.0812  -25.5885  -50.9735 C.3       15 UNK         0.1400 
     86 CB          0.6056  -24.2968  -51.4414 C.3       15 UNK        -0.1800 
     87 C          -1.5440  -25.6304  -51.4508 C.2       15 UNK         0.5000 
     88 O          -1.7756  -25.5495  -52.6594 O.2       15 UNK        -0.5000 
     89 N          -2.5031  -25.7471  -50.5203 N.am      16 UNK        -0.5000 
     90 CA         -3.9507  -25.7396  -50.7539 C.3       16 UNK         0.1400 
     91 CB         -4.3891  -27.0084  -51.5226 C.3       16 UNK        -0.1800 
     92 C          -4.3939  -24.4102  -51.4007 C.2       16 UNK         0.5000 
     93 O          -4.2274  -23.3562  -50.7856 O.2       16 UNK        -0.5000 
     94 N          -4.9236  -24.4765  -52.6290 N.am      17 UNK        -0.5000 
     95 CA         -5.3180  -23.3192  -53.4325 C.3       17 UNK         0.1400 
     96 CB         -6.1746  -23.8068  -54.6112 C.3       17 UNK        -0.1800 
     97 C          -4.1252  -22.4911  -53.9485 C.2       17 UNK         0.5000 
     98 O          -4.3159  -21.3290  -54.3004 O.2       17 UNK        -0.5000 
     99 N          -2.9299  -23.1019  -54.0228 N.am      18 UNK        -0.5000 
    100 CA        -1.6359  -22.4952  -54.3722 C.3       18 UNK         0.1400 
    101 CB        -1.1980  -21.5437  -53.2418 C.3       18 UNK        -0.1800 
    102 C         -1.5795  -21.7990  -55.7529 C.2       18 UNK         0.5000 
    103 O         -0.6967  -20.9694  -55.9775 O.2       18 UNK        -0.5000 
    104 N         -2.5335  -22.1260  -56.6391 N.am      19 UNK        -0.5000 
    105 CA        -2.8409  -21.4511  -57.9079 C.3       19 UNK         0.1400 
    106 CB        -1.6907  -21.6237  -58.9223 C.3       19 UNK        -0.1800 
    107 C         -3.2747  -19.9741  -57.7329 C.2       19 UNK         0.5000 
    108 O         -3.1468  -19.1828  -58.6694 O.2       19 UNK        -0.5000 
    109 N         -3.7874  -19.6327  -56.5444 N.am      20 UNK        -0.5000 
    110 CA        -4.3052  -18.3223  -56.1657 C.3       20 UNK         0.1400 
    111 CB        -3.6533  -17.9200  -54.8287 C.3       20 UNK        -0.1800 
    112 C         -5.8442  -18.3686  -56.0732 C.2       20 UNK         0.5000 
    113 O         -6.4675  -19.3442  -56.4997 O.2       20 UNK        -0.5000 
    114 N         -6.4400  -17.2917  -55.5442 N.am      21 UNK        -0.5000 
    115 CA        -7.8896  -17.1274  -55.3959 C.3       21 UNK         0.1400 
    116 CB        -8.1963  -15.6350  -55.1922 C.3       21 UNK        -0.1800 
    117 C         -8.5057  -17.9630  -54.2540 C.2       21 UNK         0.5000 
    118 O         -9.7201  -18.1725  -54.2529 O.2       21 UNK        -0.5000 
    119 N         -7.6785  -18.3999  -53.2966 N.am      22 UNK        -0.5000 
    120 CA        -8.0623  -19.2682  -52.1729 C.3       22 UNK         0.1400 
    121 C         -8.4210  -20.7264  -52.5879 C.2       22 UNK         0.5000 
    122 N         -9.0519  -21.4882  -51.7034 N.am      22 UNK        -0.7600 
    123 O         -8.1370  -21.1829  -53.6919 O.2       22 UNK        -0.5000 
    124 C124       -7.0165  -19.2130  -51.0263 C.3       23 UNK        -0.0398 
    125 S125       -5.3005  -19.5404  -51.5541 S.3       23 UNK        -0.2404 
    126 C126       -4.4551  -19.6177  -49.9470 C.3       23 UNK        -0.0205 
    127 H127        3.8966  -16.2923  -47.3603 H         1 UNK         0.0600 
    128 H128        2.3736  -16.9437  -47.9784 H         1 UNK         0.0600 
    129 H129        2.8138  -17.1808  -46.2869 H         1 UNK         0.0600 
    130 H130        1.0250  -15.2194  -48.4070 H         1 UNK         0.3000 
    131 H131       -0.0375  -13.6178  -46.3533 H         1 UNK         0.0600 
    132 H132       -0.3936  -13.1970  -49.3624 H         1 UNK         0.0800 
    133 H133       -1.4292  -12.5881  -48.1000 H         1 UNK         0.0800 
    134 H134       -0.3726  -15.3438  -50.3148 H         1 UNK         0.0800 
    135 H135       -2.0441  -15.1235  -50.7744 H         1 UNK         0.0800 
    136 H136       -3.7263  -17.0015  -49.9145 H         1 UNK         0.1150 
    137 H137       -2.0815  -20.9472  -50.1854 H         1 UNK         0.1150 
    138 H138        0.5136  -17.5357  -50.2647 H         1 UNK         0.1150 
    139 H139        0.2409  -21.3049  -50.2984 H         1 UNK         0.0800 
    140 H140        0.9609  -20.1455  -51.3804 H         1 UNK         0.0800 
    141 H141        0.0623  -19.5242  -47.6210 H         1 UNK         0.0800 
    142 H142        1.6290  -19.4232  -46.8991 H         1 UNK         0.0800 
    143 H143        1.7721  -22.0451  -47.2788 H         1 UNK         0.0600 
    144 H144        0.9205  -20.5409  -45.0668 H         1 UNK         0.3000 
    145 H145        0.3779  -23.2247  -42.7615 H         1 UNK         0.0600 
    146 H146        2.5122  -21.0359  -42.9589 H         1 UNK         0.0600 
    147 H147        2.0001  -21.8536  -41.4846 H         1 UNK         0.0600 
    148 H148        2.8205  -22.7541  -42.7509 H         1 UNK         0.0600 
    149 H149        0.1202  -20.4143  -42.4461 H         1 UNK         0.3000 
    150 H150       -3.3133  -20.1766  -43.5209 H         1 UNK         0.0600 
    151 H151       -3.3102  -20.8938  -41.1283 H         1 UNK         0.0600 
    152 H152       -3.4710  -19.1502  -41.2748 H         1 UNK         0.0600 
    153 H153       -1.9259  -19.8567  -40.8075 H         1 UNK         0.0600 
    154 H154       -1.5573  -18.1580  -42.6141 H         1 UNK         0.3000 
    155 H155       -0.1250  -17.2863  -45.7991 H         1 UNK         0.0600 
    156 H156       -2.2373  -16.0509  -45.5768 H         1 UNK         0.0600 
    157 H157       -0.9452  -15.0941  -44.8625 H         1 UNK         0.0600 
    158 H158       -2.0715  -15.9664  -43.8316 H         1 UNK         0.0600 
    159 H159        0.4418  -16.2789  -43.2166 H         1 UNK         0.3000 
    160 H160        2.9581  -18.6468  -42.2642 H         1 UNK         0.0600 
    161 H161        3.0529  -15.6973  -43.0792 H         1 UNK         0.0600 
    162 H162        4.1149  -16.9691  -43.6532 H         1 UNK         0.0600 
    163 H163        4.1719  -16.4818  -41.9648 H         1 UNK         0.0600 
    164 H164        1.6790  -16.3338  -41.0614 H         1 UNK         0.3000 
    165 H165       -0.7474  -18.1960  -39.2269 H         1 UNK         0.0600 
    166 H166        0.3822  -17.1436  -37.2863 H         1 UNK         0.0600 
    167 H167        1.3371  -18.4931  -37.8793 H         1 UNK         0.0600 
    168 H168        1.8283  -16.8447  -38.2513 H         1 UNK         0.0600 
    169 H169        0.0291  -15.4399  -39.2012 H         1 UNK         0.3000 
    170 H170       -1.8766  -14.3435  -41.9736 H         1 UNK         0.0600 
    171 H171       -3.6336  -14.5356  -40.2051 H         1 UNK         0.0600 
    172 H172       -2.4919  -13.9672  -38.9928 H         1 UNK         0.0600 
    173 H173       -3.0015  -12.9001  -40.3022 H         1 UNK         0.0600 
    174 H174       -0.4842  -12.8788  -39.9934 H         1 UNK         0.3000 
    175 H175        1.4931  -11.7842  -40.7358 H         1 UNK         0.0600 
    176 H176        2.9094  -14.3326  -39.7578 H         1 UNK         0.0600 
    177 H177        3.2950  -12.6884  -39.2520 H         1 UNK         0.0600 
    178 H178        1.7456  -13.3925  -38.8314 H         1 UNK         0.0600 
    179 H179        3.8272  -13.1557  -41.6943 H         1 UNK         0.3000 
    180 H180        4.7062  -11.0736  -43.6799 H         1 UNK         0.0600 
    181 H181        4.6113  -14.1287  -43.9040 H         1 UNK         0.0600 
    182 H182        5.4931  -13.1980  -42.6904 H         1 UNK         0.0600 
    183 H183        5.9750  -13.1241  -44.3709 H         1 UNK         0.0600 
    184 H184        3.3045  -12.7882  -45.6816 H         1 UNK         0.3000 
    185 H185        2.8925  -10.1560  -47.9101 H         1 UNK         0.0600 
    186 H186        4.2149  -11.3803  -49.6267 H         1 UNK         0.0600 
    187 H187        5.2806  -10.4963  -48.5466 H         1 UNK         0.0600 
    188 H188        5.1008  -12.2369  -48.3638 H         1 UNK         0.0600 
    189 H189        2.8057  -13.0560  -48.1306 H         1 UNK         0.3000 
    190 H190       -1.5528  -21.0163  -46.3766 H         1 UNK         0.3000 
    191 H191       -2.9272  -22.3403  -48.4591 H         1 UNK         0.0600 
    192 H192       -3.8915  -20.5163  -47.0564 H         1 UNK         0.0600 
    193 H193       -4.9267  -21.9377  -47.0416 H         1 UNK         0.0600 
    194 H194       -3.9032  -21.5819  -45.6541 H         1 UNK         0.0600 
    195 H195       -1.9727  -23.5397  -45.2131 H         1 UNK         0.3000 
    196 H196       -3.3050  -26.0601  -45.4198 H         1 UNK         0.0600 
    197 H197       -1.8225  -26.6945  -43.5190 H         1 UNK         0.0600 
    198 H198       -2.5498  -25.1161  -43.2591 H         1 UNK         0.0600 
    199 H199       -0.8649  -25.2387  -43.7594 H         1 UNK         0.0600 
    200 H200        0.0221  -25.0248  -46.2787 H         1 UNK         0.3000 
    201 H201        0.9362  -27.6509  -46.9748 H         1 UNK         0.0600 
    202 H202        2.4710  -25.8965  -46.1827 H         1 UNK         0.0600 
    203 H203        2.0939  -24.8795  -47.5709 H         1 UNK         0.0600 
    204 H204        2.9444  -26.4046  -47.7967 H         1 UNK         0.0600 
    205 H205       -0.0232  -24.8156  -48.9987 H         1 UNK         0.3000 
    206 H206        0.4287  -26.4222  -51.4603 H         1 UNK         0.0600 
    207 H207        0.1120  -23.4213  -51.0259 H         1 UNK         0.0600 
    208 H208        1.6511  -24.2697  -51.1341 H         1 UNK         0.0600 
    209 H209        0.5838  -24.2053  -52.5278 H         1 UNK         0.0600 
    210 H210       -2.2216  -25.7471  -49.5494 H         1 UNK         0.3000 
    211 H211       -4.4354  -25.7810  -49.7794 H         1 UNK         0.0600 
    212 H212       -5.4737  -27.0457  -51.6318 H         1 UNK         0.0600 
    213 H213       -4.0938  -27.9075  -50.9816 H         1 UNK         0.0600 
    214 H214       -3.9513  -27.0692  -52.5192 H         1 UNK         0.0600 
    215 H215       -5.0097  -25.3823  -53.0662 H         1 UNK         0.3000 
    216 H216       -5.9265  -22.6605  -52.8095 H         1 UNK         0.0600 
    217 H217       -6.5012  -22.9679  -55.2278 H         1 UNK         0.0600 
    218 H218       -7.0725  -24.3162  -54.2610 H         1 UNK         0.0600 
    219 H219       -5.6242  -24.4938  -55.2549 H         1 UNK         0.0600 
    220 H220       -2.8701  -24.0630  -53.7036 H         1 UNK         0.3000 
    221 H221       -0.9196  -23.3165  -54.4151 H         1 UNK         0.0600 
    222 H222       -1.8057  -20.6377  -53.2196 H         1 UNK         0.0600 
    223 H223       -1.2890  -22.0243  -52.2690 H         1 UNK         0.0600 
    224 H224       -0.1579  -21.2403  -53.3621 H         1 UNK         0.0600 
    225 H225       -3.2059  -22.8195  -56.3446 H         1 UNK         0.3000 
    226 H226       -3.7121  -21.9665  -58.3144 H         1 UNK         0.0600 
    227 H227       -1.4061  -22.6711  -59.0219 H         1 UNK         0.0600 
    228 H228       -1.9871  -21.2745  -59.9120 H         1 UNK         0.0600 
    229 H229       -0.8039  -21.0603  -58.6316 H         1 UNK         0.0600 
    230 H230       -3.9137  -20.3544  -55.8374 H         1 UNK         0.3000 
    231 H231       -4.0425  -17.5764  -56.9181 H         1 UNK         0.0600 
    232 H232       -3.9423  -18.5944  -54.0227 H         1 UNK         0.0600 
    233 H233       -3.9285  -16.9083  -54.5307 H         1 UNK         0.0600 
    234 H234       -2.5658  -17.9455  -54.9016 H         1 UNK         0.0600 
    235 H235       -5.8678  -16.5236  -55.2251 H         1 UNK         0.3000 
    236 H236       -8.3679  -17.4464  -56.3244 H         1 UNK         0.0600 
    237 H237       -7.8365  -15.0394  -56.0314 H         1 UNK         0.0600 
    238 H238       -9.2706  -15.4634  -55.1119 H         1 UNK         0.0600 
    239 H239       -7.7340  -15.2499  -54.2825 H         1 UNK         0.0600 
    240 H240       -6.6895  -18.2266  -53.3958 H         1 UNK         0.3000 
    241 H241       -8.9872  -18.8502  -51.7705 H         1 UNK         0.0600 
    242 H242       -9.2927  -22.4324  -51.9608 H         1 UNK         0.3800 
    243 H243       -9.3158  -21.1436  -50.7936 H         1 UNK         0.3800 
    244 H244       -7.0360  -18.2188  -50.5778 H         1 UNK         0.0800 
    245 H245       -7.2794  -19.9020  -50.2222 H         1 UNK         0.0800 
    246 H246       -4.4259  -20.6563  -49.6152 H         1 UNK         0.0800 
    247 H247       -5.0204  -19.0670  -49.1938 H         1 UNK         0.0800 
@<TRIPOS>BOND
     1    1    2 1    
     2    1  127 1    
     3    1  128 1    
     4    1  129 1    
     5    2    3 2    
     6    2    4 am   BACKBONE|DICT|INTERRES
     7    4    5 1    
     8    4  130 1    
     9    5    6 1    
    10    5   65 1    
    11    5  131 1    
    12    6    7 1    
    13    6  132 1    
    14    6  133 1    
    15    7    8 1    
    16    8    9 1    
    17    8  134 1    
    18    8  135 1    
    19    9   10 ar   
    20    9   14 ar   
    21   10   11 ar   
    22   10  136 1    
    23   11   12 ar   
    24   11  126 1    
    25   12   13 ar   
    26   12  137 1    
    27   13   14 ar   
    28   13   15 1    
    29   14  138 1    
    30   15   16 1    
    31   15  139 1    
    32   15  140 1    
    33   16   17 1    
    34   17   18 1    
    35   17  141 1    
    36   17  142 1    
    37   18   19 1    
    38   18   67 1    
    39   18  143 1    
    40   19   20 am   BACKBONE|DICT|INTERRES
    41   19  144 1    
    42   20   21 2    
    43   20   22 1    
    44   22   23 1    
    45   22   24 1    
    46   22  145 1    
    47   23  146 1    
    48   23  147 1    
    49   23  148 1    
    50   24   25 am   BACKBONE|DICT|INTERRES
    51   24  149 1    
    52   25   26 2    
    53   25   27 1    
    54   27   28 1    
    55   27   29 1    
    56   27  150 1    
    57   28  151 1    
    58   28  152 1    
    59   28  153 1    
    60   29   30 am   BACKBONE|DICT|INTERRES
    61   29  154 1    
    62   30   31 2    
    63   30   32 1    
    64   32   33 1    
    65   32   34 1    
    66   32  155 1    
    67   33  156 1    
    68   33  157 1    
    69   33  158 1    
    70   34   35 am   BACKBONE|DICT|INTERRES
    71   34  159 1    
    72   35   36 2    
    73   35   37 1    
    74   37   38 1    
    75   37   39 1    
    76   37  160 1    
    77   38  161 1    
    78   38  162 1    
    79   38  163 1    
    80   39   40 am   BACKBONE|DICT|INTERRES
    81   39  164 1    
    82   40   41 2    
    83   40   42 1    
    84   42   43 1    
    85   42   44 1    
    86   42  165 1    
    87   43  166 1    
    88   43  167 1    
    89   43  168 1    
    90   44   45 am   BACKBONE|DICT|INTERRES
    91   44  169 1    
    92   45   46 2    
    93   45   47 1    
    94   47   48 1    
    95   47   49 1    
    96   47  170 1    
    97   48  171 1    
    98   48  172 1    
    99   48  173 1    
   100   49   50 am   BACKBONE|DICT|INTERRES
   101   49  174 1    
   102   50   51 2    
   103   50   52 1    
   104   52   53 1    
   105   52   54 1    
   106   52  175 1    
   107   53  176 1    
   108   53  177 1    
   109   53  178 1    
   110   54   55 am   BACKBONE|DICT|INTERRES
   111   54  179 1    
   112   55   56 2    
   113   55   57 1    
   114   57   58 1    
   115   57   59 1    
   116   57  180 1    
   117   58  181 1    
   118   58  182 1    
   119   58  183 1    
   120   59   60 am   BACKBONE|DICT|INTERRES
   121   59  184 1    
   122   60   61 2    
   123   60   62 1    
   124   62   63 1    
   125   62   64 1    
   126   62  185 1    
   127   63  186 1    
   128   63  187 1    
   129   63  188 1    
   130   64   65 am   BACKBONE|DICT|INTERRES
   131   64  189 1    
   132   65   66 2    
   133   67   68 2    
   134   67   69 am   BACKBONE|DICT|INTERRES
   135   69   70 1    
   136   69  190 1    
   137   70   71 1    
   138   70   72 1    
   139   70  191 1    
   140   71  192 1    
   141   71  193 1    
   142   71  194 1    
   143   72   73 2    
   144   72   74 am   BACKBONE|DICT|INTERRES
   145   74   75 1    
   146   74  195 1    
   147   75   76 1    
   148   75   77 1    
   149   75  196 1    
   150   76  197 1    
   151   76  198 1    
   152   76  199 1    
   153   77   78 2    
   154   77   79 am   BACKBONE|DICT|INTERRES
   155   79   80 1    
   156   79  200 1    
   157   80   81 1    
   158   80   82 1    
   159   80  201 1    
   160   81  202 1    
   161   81  203 1    
   162   81  204 1    
   163   82   83 2    
   164   82   84 am   BACKBONE|DICT|INTERRES
   165   84   85 1    
   166   84  205 1    
   167   85   86 1    
   168   85   87 1    
   169   85  206 1    
   170   86  207 1    
   171   86  208 1    
   172   86  209 1    
   173   87   88 2    
   174   87   89 am   BACKBONE|DICT|INTERRES
   175   89   90 1    
   176   89  210 1    
   177   90   91 1    
   178   90   92 1    
   179   90  211 1    
   180   91  212 1    
   181   91  213 1    
   182   91  214 1    
   183   92   93 2    
   184   92   94 am   BACKBONE|DICT|INTERRES
   185   94   95 1    
   186   94  215 1    
   187   95   96 1    
   188   95   97 1    
   189   95  216 1    
   190   96  217 1    
   191   96  218 1    
   192   96  219 1    
   193   97   98 2    
   194   97   99 am   BACKBONE|DICT|INTERRES
   195   99  100 1    
   196   99  220 1    
   197  100  101 1    
   198  100  102 1    
   199  100  221 1    
   200  101  222 1    
   201  101  223 1    
   202  101  224 1    
   203  102  103 2    
   204  102  104 am   BACKBONE|DICT|INTERRES
   205  104  105 1    
   206  104  225 1    
   207  105  106 1    
   208  105  107 1    
   209  105  226 1    
   210  106  227 1    
   211  106  228 1    
   212  106  229 1    
   213  107  108 2    
   214  107  109 am   BACKBONE|DICT|INTERRES
   215  109  110 1    
   216  109  230 1    
   217  110  111 1    
   218  110  112 1    
   219  110  231 1    
   220  111  232 1    
   221  111  233 1    
   222  111  234 1    
   223  112  113 2    
   224  112  114 am   BACKBONE|DICT|INTERRES
   225  114  115 1    
   226  114  235 1    
   227  115  116 1    
   228  115  117 1    
   229  115  236 1    
   230  116  237 1    
   231  116  238 1    
   232  116  239 1    
   233  117  118 2    
   234  117  119 am   BACKBONE|DICT|INTERRES
   235  119  120 1    
   236  119  240 1    
   237  120  121 1    
   238  120  124 1    
   239  120  241 1    
   240  121  122 am   BACKBONE|DICT|INTERRES
   241  121  123 2    
   242  122  242 1    
   243  122  243 1    
   244  124  125 1    
   245  124  244 1    
   246  124  245 1    
   247  125  126 1    
   248  126  246 1    
   249  126  247 1    
@<TRIPOS>SUBSTRUCTURE
     1 UNK         1 GROUP             0       ****    0 ROOT    
