@<TRIPOS>MOLECULE
3R540
247   249    1
SMALL
USER_CHARGES


@<TRIPOS>ATOM
      1 CA          2.0770  -13.1956  -49.9024 C.3       0 UNK        -0.1800 
      2 C           3.2078  -13.4136  -48.9078 C.2       0 UNK         0.5000 
      3 O           4.2375  -12.7448  -48.9957 O.2       0 UNK        -0.5000 
      4 N           3.0202  -14.3458  -47.9671 N.am      1 UNK        -0.5000 
      5 CA          4.0000  -14.6932  -46.9259 C.3       1 UNK         0.1400 
      6 C6          3.9559  -16.1961  -46.5485 C.3       23 UNK        -0.0398 
      7 S7          4.1263  -17.3064  -47.9885 S.3       23 UNK        -0.2404 
      8 C8          2.3726  -17.6989  -48.2511 C.3       23 UNK        -0.0205 
      9 C9          2.1021  -18.2760  -49.6290 C.ar      23 UNK        -0.0193 
     10 C10         2.0732  -17.4278  -50.7370 C.ar      23 UNK        -0.1150 
     11 C11         1.7510  -17.9210  -52.0055 C.ar      23 UNK        -0.0193 
     12 C12         1.4720  -19.2833  -52.1501 C.ar      23 UNK        -0.1150 
     13 C13         1.5143  -20.1553  -51.0567 C.ar      23 UNK        -0.0193 
     14 C14         1.8331  -19.6371  -49.7932 C.ar      23 UNK        -0.1150 
     15 C15         1.2011  -21.6336  -51.3095 C.3       23 UNK        -0.0205 
     16 S16         1.5836  -22.7923  -49.9486 S.3       23 UNK        -0.2404 
     17 C17         0.0955  -22.6320  -48.9068 C.3       23 UNK        -0.0398 
     18 CA         -0.0688  -23.8153  -47.9226 C.3       11 UNK         0.1400 
     19 N           1.0932  -23.9774  -47.0421 N.am      11 UNK        -0.5000 
     20 C           1.2497  -24.9407  -46.1229 C.2       10 UNK         0.5000 
     21 O           0.4437  -25.8539  -45.9535 O.2       10 UNK        -0.5000 
     22 CA          2.4746  -24.8418  -45.1922 C.3       10 UNK         0.1400 
     23 CB          3.5845  -25.7880  -45.6727 C.3       10 UNK        -0.1800 
     24 N           3.0269  -23.4902  -45.0434 N.am      10 UNK        -0.5000 
     25 C           2.3564  -22.4090  -44.6213 C.2       9 UNK         0.5000 
     26 O           1.1517  -22.4117  -44.3506 O.2       9 UNK        -0.5000 
     27 CA          3.1654  -21.0996  -44.5796 C.3       9 UNK         0.1400 
     28 CB          3.3854  -20.5760  -46.0066 C.3       9 UNK        -0.1800 
     29 N           2.4988  -20.0558  -43.8055 N.am      9 UNK        -0.5000 
     30 C           2.3308  -20.0466  -42.4796 C.2       8 UNK         0.5000 
     31 O           2.7977  -20.9050  -41.7293 O.2       8 UNK        -0.5000 
     32 CA          1.4998  -18.8922  -41.8794 C.3       8 UNK         0.1400 
     33 CB          2.3968  -17.6855  -41.5392 C.3       8 UNK        -0.1800 
     34 N           0.3285  -18.4791  -42.6712 N.am      8 UNK        -0.5000 
     35 C           0.2921  -17.8771  -43.8677 C.2       7 UNK         0.5000 
     36 O           1.2935  -17.6061  -44.5351 O.2       7 UNK        -0.5000 
     37 CA         -1.1013  -17.5252  -44.4067 C.3       7 UNK         0.1400 
     38 CB         -1.6914  -16.3180  -43.6632 C.3       7 UNK        -0.1800 
     39 N          -0.9915  -17.1932  -45.8209 N.am      7 UNK        -0.5000 
     40 C          -1.8196  -17.5869  -46.7895 C.2       6 UNK         0.5000 
     41 O          -2.8359  -18.2539  -46.5917 O.2       6 UNK        -0.5000 
     42 CA         -1.4420  -17.1351  -48.2136 C.3       6 UNK         0.1400 
     43 CB         -2.1894  -17.9167  -49.3006 C.3       6 UNK        -0.1800 
     44 N          -1.6691  -15.7025  -48.4040 N.am      6 UNK        -0.5000 
     45 C          -0.8949  -14.7247  -47.9159 C.2       5 UNK         0.5000 
     46 O           0.1654  -14.9289  -47.3176 O.2       5 UNK        -0.5000 
     47 CA         -1.3489  -13.2703  -48.1360 C.3       5 UNK         0.1400 
     48 CB         -2.3954  -13.0764  -49.2555 C.3       5 UNK        -0.1800 
     49 N          -1.7826  -12.6559  -46.8803 N.am      5 UNK        -0.5000 
     50 C          -2.8682  -12.9483  -46.1467 C.2       4 UNK         0.5000 
     51 O          -3.6821  -13.8186  -46.4567 O.2       4 UNK        -0.5000 
     52 CA         -3.1007  -12.1310  -44.8528 C.3       4 UNK         0.1400 
     53 CB         -3.4441  -13.0329  -43.6553 C.3       4 UNK        -0.1800 
     54 N          -1.9596  -11.2920  -44.4828 N.am      4 UNK        -0.5000 
     55 C          -1.7115  -10.0565  -44.9374 C.2       3 UNK         0.5000 
     56 O          -2.4741   -9.4327  -45.6754 O.2       3 UNK        -0.5000 
     57 CA         -0.3605   -9.4295  -44.5274 C.3       3 UNK         0.1400 
     58 CB         -0.5497   -8.4780  -43.3361 C.3       3 UNK        -0.1800 
     59 N           0.6771  -10.4154  -44.1924 N.am      3 UNK        -0.5000 
     60 C           1.1704  -11.3261  -45.0425 C.2       2 UNK         0.5000 
     61 O           0.8103  -11.4178  -46.2201 O.2       2 UNK        -0.5000 
     62 CA          2.1903  -12.3247  -44.4717 C.3       2 UNK         0.1400 
     63 CB          1.5774  -13.1820  -43.3475 C.3       2 UNK        -0.1800 
     64 N           2.6211  -13.1982  -45.5533 N.am      2 UNK        -0.5000 
     65 C           3.7956  -13.8267  -45.6646 C.2       1 UNK         0.5000 
     66 O           4.6933  -13.7499  -44.8247 O.2       1 UNK        -0.5000 
     67 C          -1.3899  -23.6503  -47.1435 C.2       11 UNK         0.5000 
     68 O          -2.4275  -24.1089  -47.6223 O.2       11 UNK        -0.5000 
     69 N          -1.3367  -23.0108  -45.9658 N.am      12 UNK        -0.5000 
     70 CA         -2.4921  -22.8276  -45.0888 C.3       12 UNK         0.1400 
     71 CB         -2.2047  -21.6893  -44.0986 C.3       12 UNK        -0.1800 
     72 C          -2.8647  -24.1249  -44.3496 C.2       12 UNK         0.5000 
     73 O          -4.0507  -24.4040  -44.1765 O.2       12 UNK        -0.5000 
     74 N          -1.8494  -24.9064  -43.9553 N.am      13 UNK        -0.5000 
     75 CA         -2.0050  -26.2001  -43.2875 C.3       13 UNK         0.1400 
     76 CB         -0.6744  -26.5976  -42.6295 C.3       13 UNK        -0.1800 
     77 C          -2.4897  -27.2977  -44.2520 C.2       13 UNK         0.5000 
     78 O          -3.3554  -28.0938  -43.8876 O.2       13 UNK        -0.5000 
     79 N          -1.9400  -27.3006  -45.4737 N.am      14 UNK        -0.5000 
     80 CA         -2.3010  -28.2121  -46.5615 C.3       14 UNK         0.1400 
     81 CB         -1.1763  -28.1893  -47.6094 C.3       14 UNK        -0.1800 
     82 C          -3.6491  -27.8717  -47.2277 C.2       14 UNK         0.5000 
     83 O          -4.1750  -28.6993  -47.9722 O.2       14 UNK        -0.5000 
     84 N          -4.1578  -26.6556  -46.9781 N.am      15 UNK        -0.5000 
     85 CA         -5.3564  -26.0396  -47.5597 C.3       15 UNK         0.1400 
     86 CB         -6.6275  -26.8536  -47.2428 C.3       15 UNK        -0.1800 
     87 C          -5.2153  -25.7099  -49.0616 C.2       15 UNK         0.5000 
     88 O          -6.2152  -25.4385  -49.7272 O.2       15 UNK        -0.5000 
     89 N          -3.9711  -25.6703  -49.5597 N.am      16 UNK        -0.5000 
     90 CA         -3.6077  -25.2083  -50.9005 C.3       16 UNK         0.1400 
     91 CB         -2.1330  -25.5410  -51.1691 C.3       16 UNK        -0.1800 
     92 C          -3.8603  -23.7008  -51.0819 C.2       16 UNK         0.5000 
     93 O          -4.1517  -23.2630  -52.1948 O.2       16 UNK        -0.5000 
     94 N          -3.8078  -22.9488  -49.9718 N.am      17 UNK        -0.5000 
     95 CA         -4.1252  -21.5228  -49.8626 C.3       17 UNK         0.1400 
     96 CB         -3.8928  -21.0822  -48.4099 C.3       17 UNK        -0.1800 
     97 C          -5.5531  -21.1416  -50.3081 C.2       17 UNK         0.5000 
     98 O          -5.7979  -19.9723  -50.5990 O.2       17 UNK        -0.5000 
     99 N          -6.4695  -22.1194  -50.3714 N.am      18 UNK        -0.5000 
    100 CA        -7.8164  -21.9510  -50.9191 C.3       18 UNK         0.1400 
    101 CB        -8.6630  -23.1806  -50.5578 C.3       18 UNK        -0.1800 
    102 C         -7.8205  -21.7222  -52.4450 C.2       18 UNK         0.5000 
    103 O         -8.7380  -21.0759  -52.9522 O.2       18 UNK        -0.5000 
    104 N         -6.8025  -22.2464  -53.1416 N.am      19 UNK        -0.5000 
    105 CA        -6.5861  -22.0632  -54.5748 C.3       19 UNK         0.1400 
    106 CB        -6.2427  -23.4186  -55.2143 C.3       19 UNK        -0.1800 
    107 C         -5.4633  -21.0425  -54.8117 C.2       19 UNK         0.5000 
    108 O         -5.6633  -20.0649  -55.5339 O.2       19 UNK        -0.5000 
    109 N         -4.3084  -21.2652  -54.1721 N.am      20 UNK        -0.5000 
    110 CA        -3.1258  -20.4096  -54.2260 C.3       20 UNK         0.1400 
    111 CB        -1.8773  -21.2849  -54.0096 C.3       20 UNK        -0.1800 
    112 C         -3.2401  -19.2761  -53.1908 C.2       20 UNK         0.5000 
    113 O         -2.4518  -19.2224  -52.2485 O.2       20 UNK        -0.5000 
    114 N         -4.2478  -18.4114  -53.3707 N.am      21 UNK        -0.5000 
    115 CA        -4.6148  -17.3324  -52.4476 C.3       21 UNK         0.1400 
    116 CB        -5.9660  -16.7448  -52.8808 C.3       21 UNK        -0.1800 
    117 C         -3.5570  -16.2214  -52.3104 C.2       21 UNK         0.5000 
    118 O         -3.5032  -15.5689  -51.2676 O.2       21 UNK        -0.5000 
    119 N         -2.7290  -16.0415  -53.3489 N.am      22 UNK        -0.5000 
    120 CA        -1.5753  -15.1260  -53.3789 C.3       22 UNK         0.1400 
    121 C         -1.9338  -13.6056  -53.3702 C.2       22 UNK         0.5000 
    122 N         -3.1688  -13.2196  -53.6668 N.am      22 UNK        -0.7600 
    123 O         -1.0828  -12.7573  -53.1191 O.2       22 UNK        -0.5000 
    124 C124       -0.5038  -15.5176  -52.3195 C.3       23 UNK        -0.0398 
    125 S125        1.2061  -15.2918  -52.9148 S.3       23 UNK        -0.2404 
    126 C126        1.7145  -17.0169  -53.2382 C.3       23 UNK        -0.0205 
    127 H127        2.4708  -13.1723  -50.9184 H         1 UNK         0.0600 
    128 H128        1.5825  -12.2443  -49.7074 H         1 UNK         0.0600 
    129 H129        1.3343  -13.9915  -49.8518 H         1 UNK         0.0600 
    130 H130        2.1230  -14.8136  -47.8997 H         1 UNK         0.3000 
    131 H131        5.0048  -14.4821  -47.2981 H         1 UNK         0.0600 
    132 H132        4.7641  -16.4323  -45.8541 H         1 UNK         0.0800 
    133 H133        3.0323  -16.4316  -46.0191 H         1 UNK         0.0800 
    134 H134        1.7915  -16.7859  -48.1453 H         1 UNK         0.0800 
    135 H135        2.0224  -18.3688  -47.4663 H         1 UNK         0.0800 
    136 H136        2.2963  -16.3795  -50.6011 H         1 UNK         0.1150 
    137 H137        1.2243  -19.6726  -53.1277 H         1 UNK         0.1150 
    138 H138        1.8715  -20.2789  -48.9276 H         1 UNK         0.1150 
    139 H139        0.1508  -21.7306  -51.5867 H         1 UNK         0.0800 
    140 H140        1.7738  -21.9596  -52.1790 H         1 UNK         0.0800 
    141 H141       -0.7750  -22.5667  -49.5628 H         1 UNK         0.0800 
    142 H142        0.1419  -21.6854  -48.3662 H         1 UNK         0.0800 
    143 H143       -0.1545  -24.7357  -48.5031 H         1 UNK         0.0600 
    144 H144        1.8173  -23.2804  -47.1281 H         1 UNK         0.3000 
    145 H145        2.1502  -25.1702  -44.2028 H         1 UNK         0.0600 
    146 H146        4.4166  -25.8114  -44.9689 H         1 UNK         0.0600 
    147 H147        3.2137  -26.8097  -45.7678 H         1 UNK         0.0600 
    148 H148        3.9744  -25.4884  -46.6463 H         1 UNK         0.0600 
    149 H149        4.0068  -23.3906  -45.2670 H         1 UNK         0.3000 
    150 H150        4.1347  -21.3015  -44.1194 H         1 UNK         0.0600 
    151 H151        2.4370  -20.4293  -46.5233 H         1 UNK         0.0600 
    152 H152        3.9773  -21.2729  -46.6008 H         1 UNK         0.0600 
    153 H153        3.9189  -19.6255  -46.0001 H         1 UNK         0.0600 
    154 H154        2.0918  -19.2834  -44.3242 H         1 UNK         0.3000 
    155 H155        1.0937  -19.2670  -40.9385 H         1 UNK         0.0600 
    156 H156        2.8707  -17.2642  -42.4263 H         1 UNK         0.0600 
    157 H157        3.1940  -17.9759  -40.8539 H         1 UNK         0.0600 
    158 H158        1.8255  -16.8929  -41.0560 H         1 UNK         0.0600 
    159 H159       -0.5573  -18.6830  -42.2298 H         1 UNK         0.3000 
    160 H160       -1.7499  -18.3918  -44.2676 H         1 UNK         0.0600 
    161 H161       -1.0513  -15.4410  -43.7620 H         1 UNK         0.0600 
    162 H162       -1.8098  -16.5237  -42.5989 H         1 UNK         0.0600 
    163 H163       -2.6754  -16.0609  -44.0562 H         1 UNK         0.0600 
    164 H164       -0.1782  -16.6394  -46.0680 H         1 UNK         0.3000 
    165 H165       -0.3833  -17.3435  -48.3528 H         1 UNK         0.0600 
    166 H166       -1.8386  -17.6234  -50.2879 H         1 UNK         0.0600 
    167 H167       -2.0102  -18.9878  -49.2069 H         1 UNK         0.0600 
    168 H168       -3.2665  -17.7507  -49.2605 H         1 UNK         0.0600 
    169 H169       -2.5237  -15.4483  -48.8815 H         1 UNK         0.3000 
    170 H170       -0.4576  -12.7200  -48.4371 H         1 UNK         0.0600 
    171 H171       -2.0175  -13.4430  -50.2094 H         1 UNK         0.0600 
    172 H172       -3.3329  -13.5946  -49.0537 H         1 UNK         0.0600 
    173 H173       -2.6269  -12.0201  -49.3915 H         1 UNK         0.0600 
    174 H174       -1.1317  -11.9721  -46.5107 H         1 UNK         0.3000 
    175 H175       -3.9655  -11.4921  -45.0432 H         1 UNK         0.0600 
    176 H176       -4.2743  -13.7031  -43.8814 H         1 UNK         0.0600 
    177 H177       -2.5939  -13.6449  -43.3584 H         1 UNK         0.0600 
    178 H178       -3.7398  -12.4373  -42.7915 H         1 UNK         0.0600 
    179 H179       -1.2713  -11.7171  -43.8798 H         1 UNK         0.3000 
    180 H180       -0.0025   -8.8460  -45.3781 H         1 UNK         0.0600 
    181 H181       -0.8839   -9.0107  -42.4449 H         1 UNK         0.0600 
    182 H182       -1.2951   -7.7138  -43.5605 H         1 UNK         0.0600 
    183 H183        0.3786   -7.9615  -43.0917 H         1 UNK         0.0600 
    184 H184        1.0196  -10.3968  -43.2423 H         1 UNK         0.3000 
    185 H185        3.0435  -11.7604  -44.0903 H         1 UNK         0.0600 
    186 H186        1.2748  -12.5706  -42.4970 H         1 UNK         0.0600 
    187 H187        0.6985  -13.7258  -43.6951 H         1 UNK         0.0600 
    188 H188        2.2933  -13.9152  -42.9752 H         1 UNK         0.0600 
    189 H189        1.9620  -13.2565  -46.3202 H         1 UNK         0.3000 
    190 H190       -0.4412  -22.6961  -45.6058 H         1 UNK         0.3000 
    191 H191       -3.3493  -22.5333  -45.6975 H         1 UNK         0.0600 
    192 H192       -1.9706  -20.7651  -44.6264 H         1 UNK         0.0600 
    193 H193       -3.0718  -21.4939  -43.4666 H         1 UNK         0.0600 
    194 H194       -1.3654  -21.9235  -43.4428 H         1 UNK         0.0600 
    195 H195       -0.9068  -24.6150  -44.1691 H         1 UNK         0.3000 
    196 H196       -2.7533  -26.0924  -42.4993 H         1 UNK         0.0600 
    197 H197       -0.7735  -27.5411  -42.0914 H         1 UNK         0.0600 
    198 H198       -0.3504  -25.8458  -41.9096 H         1 UNK         0.0600 
    199 H199        0.1211  -26.7227  -43.3646 H         1 UNK         0.0600 
    200 H200       -1.1772  -26.6535  -45.6644 H         1 UNK         0.3000 
    201 H201       -2.3770  -29.2238  -46.1579 H         1 UNK         0.0600 
    202 H202       -1.3819  -28.8855  -48.4235 H         1 UNK         0.0600 
    203 H203       -0.2216  -28.4779  -47.1691 H         1 UNK         0.0600 
    204 H204       -1.0553  -27.1975  -48.0471 H         1 UNK         0.0600 
    205 H205       -3.6225  -26.0536  -46.3676 H         1 UNK         0.3000 
    206 H206       -5.4572  -25.0757  -47.0586 H         1 UNK         0.0600 
    207 H207       -6.6991  -27.0737  -46.1776 H         1 UNK         0.0600 
    208 H208       -7.5246  -26.2986  -47.5193 H         1 UNK         0.0600 
    209 H209       -6.6525  -27.7989  -47.7850 H         1 UNK         0.0600 
    210 H210       -3.2109  -25.8257  -48.9126 H         1 UNK         0.3000 
    211 H211       -4.2241  -25.7421  -51.6266 H         1 UNK         0.0600 
    212 H212       -1.4697  -25.0189  -50.4799 H         1 UNK         0.0600 
    213 H213       -1.8469  -25.2506  -52.1809 H         1 UNK         0.0600 
    214 H214       -1.9450  -26.6104  -51.0720 H         1 UNK         0.0600 
    215 H215       -3.5366  -23.4101  -49.1091 H         1 UNK         0.3000 
    216 H216       -3.4298  -20.9800  -50.5042 H         1 UNK         0.0600 
    217 H217       -4.1615  -20.0347  -48.2684 H         1 UNK         0.0600 
    218 H218       -2.8459  -21.1847  -48.1259 H         1 UNK         0.0600 
    219 H219       -4.4922  -21.6686  -47.7129 H         1 UNK         0.0600 
    220 H220       -6.2023  -23.0589  -50.1101 H         1 UNK         0.3000 
    221 H221       -8.2688  -21.0748  -50.4498 H         1 UNK         0.0600 
    222 H222       -8.2679  -24.0887  -51.0148 H         1 UNK         0.0600 
    223 H223       -8.6965  -23.3355  -49.4792 H         1 UNK         0.0600 
    224 H224       -9.6911  -23.0611  -50.9018 H         1 UNK         0.0600 
    225 H225       -6.0655  -22.7250  -52.6365 H         1 UNK         0.3000 
    226 H226       -7.4906  -21.6854  -55.0562 H         1 UNK         0.0600 
    227 H227       -6.0531  -23.3093  -56.2828 H         1 UNK         0.0600 
    228 H228       -5.3558  -23.8688  -54.7666 H         1 UNK         0.0600 
    229 H229       -7.0662  -24.1238  -55.1008 H         1 UNK         0.0600 
    230 H230       -4.2422  -22.0632  -53.5438 H         1 UNK         0.3000 
    231 H231       -3.0471  -19.9521  -55.2144 H         1 UNK         0.0600 
    232 H232       -1.8975  -21.7820  -53.0390 H         1 UNK         0.0600 
    233 H233       -0.9667  -20.6865  -54.0548 H         1 UNK         0.0600 
    234 H234       -1.7988  -22.0553  -54.7768 H         1 UNK         0.0600 
    235 H235       -4.8628  -18.5650  -54.1607 H         1 UNK         0.3000 
    236 H236       -4.7363  -17.7699  -51.4558 H         1 UNK         0.0600 
    237 H237       -6.7457  -17.5070  -52.8713 H         1 UNK         0.0600 
    238 H238       -6.2823  -15.9501  -52.2037 H         1 UNK         0.0600 
    239 H239       -5.9186  -16.3232  -53.8854 H         1 UNK         0.0600 
    240 H240       -2.8642  -16.6138  -54.1692 H         1 UNK         0.3000 
    241 H241       -1.1403  -15.2926  -54.3648 H         1 UNK         0.0600 
    242 H242       -3.3941  -12.2373  -53.6683 H         1 UNK         0.3800 
    243 H243       -3.8817  -13.8990  -53.8775 H         1 UNK         0.3800 
    244 H244       -0.6356  -14.9565  -51.3941 H         1 UNK         0.0800 
    245 H245       -0.6230  -16.5633  -52.0351 H         1 UNK         0.0800 
    246 H246        1.0425  -17.4343  -53.9899 H         1 UNK         0.0800 
    247 H247        2.7095  -17.0065  -53.6845 H         1 UNK         0.0800 
@<TRIPOS>BOND
     1    1    2 1    
     2    1  127 1    
     3    1  128 1    
     4    1  129 1    
     5    2    3 2    
     6    2    4 am   BACKBONE|DICT|INTERRES
     7    4    5 1    
     8    4  130 1    
     9    5    6 1    
    10    5   65 1    
    11    5  131 1    
    12    6    7 1    
    13    6  132 1    
    14    6  133 1    
    15    7    8 1    
    16    8    9 1    
    17    8  134 1    
    18    8  135 1    
    19    9   10 ar   
    20    9   14 ar   
    21   10   11 ar   
    22   10  136 1    
    23   11   12 ar   
    24   11  126 1    
    25   12   13 ar   
    26   12  137 1    
    27   13   14 ar   
    28   13   15 1    
    29   14  138 1    
    30   15   16 1    
    31   15  139 1    
    32   15  140 1    
    33   16   17 1    
    34   17   18 1    
    35   17  141 1    
    36   17  142 1    
    37   18   19 1    
    38   18   67 1    
    39   18  143 1    
    40   19   20 am   BACKBONE|DICT|INTERRES
    41   19  144 1    
    42   20   21 2    
    43   20   22 1    
    44   22   23 1    
    45   22   24 1    
    46   22  145 1    
    47   23  146 1    
    48   23  147 1    
    49   23  148 1    
    50   24   25 am   BACKBONE|DICT|INTERRES
    51   24  149 1    
    52   25   26 2    
    53   25   27 1    
    54   27   28 1    
    55   27   29 1    
    56   27  150 1    
    57   28  151 1    
    58   28  152 1    
    59   28  153 1    
    60   29   30 am   BACKBONE|DICT|INTERRES
    61   29  154 1    
    62   30   31 2    
    63   30   32 1    
    64   32   33 1    
    65   32   34 1    
    66   32  155 1    
    67   33  156 1    
    68   33  157 1    
    69   33  158 1    
    70   34   35 am   BACKBONE|DICT|INTERRES
    71   34  159 1    
    72   35   36 2    
    73   35   37 1    
    74   37   38 1    
    75   37   39 1    
    76   37  160 1    
    77   38  161 1    
    78   38  162 1    
    79   38  163 1    
    80   39   40 am   BACKBONE|DICT|INTERRES
    81   39  164 1    
    82   40   41 2    
    83   40   42 1    
    84   42   43 1    
    85   42   44 1    
    86   42  165 1    
    87   43  166 1    
    88   43  167 1    
    89   43  168 1    
    90   44   45 am   BACKBONE|DICT|INTERRES
    91   44  169 1    
    92   45   46 2    
    93   45   47 1    
    94   47   48 1    
    95   47   49 1    
    96   47  170 1    
    97   48  171 1    
    98   48  172 1    
    99   48  173 1    
   100   49   50 am   BACKBONE|DICT|INTERRES
   101   49  174 1    
   102   50   51 2    
   103   50   52 1    
   104   52   53 1    
   105   52   54 1    
   106   52  175 1    
   107   53  176 1    
   108   53  177 1    
   109   53  178 1    
   110   54   55 am   BACKBONE|DICT|INTERRES
   111   54  179 1    
   112   55   56 2    
   113   55   57 1    
   114   57   58 1    
   115   57   59 1    
   116   57  180 1    
   117   58  181 1    
   118   58  182 1    
   119   58  183 1    
   120   59   60 am   BACKBONE|DICT|INTERRES
   121   59  184 1    
   122   60   61 2    
   123   60   62 1    
   124   62   63 1    
   125   62   64 1    
   126   62  185 1    
   127   63  186 1    
   128   63  187 1    
   129   63  188 1    
   130   64   65 am   BACKBONE|DICT|INTERRES
   131   64  189 1    
   132   65   66 2    
   133   67   68 2    
   134   67   69 am   BACKBONE|DICT|INTERRES
   135   69   70 1    
   136   69  190 1    
   137   70   71 1    
   138   70   72 1    
   139   70  191 1    
   140   71  192 1    
   141   71  193 1    
   142   71  194 1    
   143   72   73 2    
   144   72   74 am   BACKBONE|DICT|INTERRES
   145   74   75 1    
   146   74  195 1    
   147   75   76 1    
   148   75   77 1    
   149   75  196 1    
   150   76  197 1    
   151   76  198 1    
   152   76  199 1    
   153   77   78 2    
   154   77   79 am   BACKBONE|DICT|INTERRES
   155   79   80 1    
   156   79  200 1    
   157   80   81 1    
   158   80   82 1    
   159   80  201 1    
   160   81  202 1    
   161   81  203 1    
   162   81  204 1    
   163   82   83 2    
   164   82   84 am   BACKBONE|DICT|INTERRES
   165   84   85 1    
   166   84  205 1    
   167   85   86 1    
   168   85   87 1    
   169   85  206 1    
   170   86  207 1    
   171   86  208 1    
   172   86  209 1    
   173   87   88 2    
   174   87   89 am   BACKBONE|DICT|INTERRES
   175   89   90 1    
   176   89  210 1    
   177   90   91 1    
   178   90   92 1    
   179   90  211 1    
   180   91  212 1    
   181   91  213 1    
   182   91  214 1    
   183   92   93 2    
   184   92   94 am   BACKBONE|DICT|INTERRES
   185   94   95 1    
   186   94  215 1    
   187   95   96 1    
   188   95   97 1    
   189   95  216 1    
   190   96  217 1    
   191   96  218 1    
   192   96  219 1    
   193   97   98 2    
   194   97   99 am   BACKBONE|DICT|INTERRES
   195   99  100 1    
   196   99  220 1    
   197  100  101 1    
   198  100  102 1    
   199  100  221 1    
   200  101  222 1    
   201  101  223 1    
   202  101  224 1    
   203  102  103 2    
   204  102  104 am   BACKBONE|DICT|INTERRES
   205  104  105 1    
   206  104  225 1    
   207  105  106 1    
   208  105  107 1    
   209  105  226 1    
   210  106  227 1    
   211  106  228 1    
   212  106  229 1    
   213  107  108 2    
   214  107  109 am   BACKBONE|DICT|INTERRES
   215  109  110 1    
   216  109  230 1    
   217  110  111 1    
   218  110  112 1    
   219  110  231 1    
   220  111  232 1    
   221  111  233 1    
   222  111  234 1    
   223  112  113 2    
   224  112  114 am   BACKBONE|DICT|INTERRES
   225  114  115 1    
   226  114  235 1    
   227  115  116 1    
   228  115  117 1    
   229  115  236 1    
   230  116  237 1    
   231  116  238 1    
   232  116  239 1    
   233  117  118 2    
   234  117  119 am   BACKBONE|DICT|INTERRES
   235  119  120 1    
   236  119  240 1    
   237  120  121 1    
   238  120  124 1    
   239  120  241 1    
   240  121  122 am   BACKBONE|DICT|INTERRES
   241  121  123 2    
   242  122  242 1    
   243  122  243 1    
   244  124  125 1    
   245  124  244 1    
   246  124  245 1    
   247  125  126 1    
   248  126  246 1    
   249  126  247 1    
@<TRIPOS>SUBSTRUCTURE
     1 UNK         1 GROUP             0       ****    0 ROOT    
