@<TRIPOS>MOLECULE
3R540
247   249    1
SMALL
USER_CHARGES


@<TRIPOS>ATOM
      1 CA         -8.0943  -13.7236  -47.1206 C.3       0 UNK        -0.1800 
      2 C          -6.9022  -12.9001  -47.5878 C.2       0 UNK         0.5000 
      3 O          -6.9277  -11.6731  -47.4879 O.2       0 UNK        -0.5000 
      4 N          -5.8636  -13.5689  -48.1033 N.am      1 UNK        -0.5000 
      5 CA         -4.6032  -12.9615  -48.5371 C.3       1 UNK         0.1400 
      6 C6         -3.8073  -13.9359  -49.4348 C.3       23 UNK        -0.0398 
      7 S7         -2.4949  -13.1158  -50.4006 S.3       23 UNK        -0.2404 
      8 C8         -2.2436  -14.3177  -51.7469 C.3       23 UNK        -0.0205 
      9 C9         -1.4847  -15.5509  -51.2780 C.ar      23 UNK        -0.0193 
     10 C10        -0.0950  -15.6151  -51.4093 C.ar      23 UNK        -0.1150 
     11 C11         0.6082  -16.7494  -50.9918 C.ar      23 UNK        -0.0193 
     12 C12        -0.0881  -17.8245  -50.4328 C.ar      23 UNK        -0.1150 
     13 C13        -1.4788  -17.7747  -50.3045 C.ar      23 UNK        -0.0193 
     14 C14        -2.1704  -16.6369  -50.7288 C.ar      23 UNK        -0.1150 
     15 C15        -2.2460  -18.9507  -49.7294 C.3       23 UNK        -0.0205 
     16 S16        -2.4035  -18.8221  -47.9239 S.3       23 UNK        -0.2404 
     17 C17        -1.0178  -19.8638  -47.3661 C.3       23 UNK        -0.0398 
     18 CA         -1.4093  -21.3505  -47.1895 C.3       11 UNK         0.1400 
     19 N          -0.2280  -22.2038  -47.0522 N.am      11 UNK        -0.5000 
     20 C          -0.2390  -23.5400  -47.1697 C.2       10 UNK         0.5000 
     21 O          -1.2468  -24.1893  -47.4388 O.2       10 UNK        -0.5000 
     22 CA          1.0812  -24.2837  -46.8956 C.3       10 UNK         0.1400 
     23 CB          1.9045  -24.3996  -48.1858 C.3       10 UNK        -0.1800 
     24 N           1.8915  -23.6440  -45.8594 N.am      10 UNK        -0.5000 
     25 C           1.5153  -23.4832  -44.5823 C.2       9 UNK         0.5000 
     26 O           0.4706  -23.9402  -44.1191 O.2       9 UNK        -0.5000 
     27 CA          2.4276  -22.6143  -43.6929 C.3       9 UNK         0.1400 
     28 CB          3.3966  -23.4959  -42.8922 C.3       9 UNK        -0.1800 
     29 N           3.1917  -21.6104  -44.4440 N.am      9 UNK        -0.5000 
     30 C           2.6424  -20.6141  -45.1517 C.2       8 UNK         0.5000 
     31 O           1.4265  -20.4369  -45.2420 O.2       8 UNK        -0.5000 
     32 CA          3.6038  -19.7070  -45.9280 C.3       8 UNK         0.1400 
     33 CB          3.2400  -19.6666  -47.4227 C.3       8 UNK        -0.1800 
     34 N           3.5271  -18.3602  -45.3803 N.am      8 UNK        -0.5000 
     35 C           4.5770  -17.5904  -45.0717 C.2       7 UNK         0.5000 
     36 O           5.7498  -17.9407  -45.2122 O.2       7 UNK        -0.5000 
     37 CA          4.2733  -16.1900  -44.5071 C.3       7 UNK         0.1400 
     38 CB          3.9639  -15.2047  -45.6444 C.3       7 UNK        -0.1800 
     39 N           3.1709  -16.1812  -43.5460 N.am      7 UNK        -0.5000 
     40 C           3.2100  -16.7460  -42.3305 C.2       6 UNK         0.5000 
     41 O           4.1926  -17.3343  -41.8778 O.2       6 UNK        -0.5000 
     42 CA          1.9340  -16.6385  -41.4783 C.3       6 UNK         0.1400 
     43 CB          1.8750  -15.2898  -40.7434 C.3       6 UNK        -0.1800 
     44 N           0.7364  -16.8025  -42.3004 N.am      6 UNK        -0.5000 
     45 C           0.2178  -17.9916  -42.6375 C.2       5 UNK         0.5000 
     46 O           0.6349  -19.0639  -42.2004 O.2       5 UNK        -0.5000 
     47 CA         -0.9618  -17.9874  -43.6307 C.3       5 UNK         0.1400 
     48 CB         -2.3041  -18.0268  -42.8844 C.3       5 UNK        -0.1800 
     49 N          -0.9621  -16.8342  -44.5335 N.am      5 UNK        -0.5000 
     50 C          -0.0414  -16.5969  -45.4779 C.2       4 UNK         0.5000 
     51 O           0.9050  -17.3425  -45.7164 O.2       4 UNK        -0.5000 
     52 CA         -0.1620  -15.2679  -46.2407 C.3       4 UNK         0.1400 
     53 CB         -1.0519  -15.4298  -47.4722 C.3       4 UNK        -0.1800 
     54 N          -0.6625  -14.1668  -45.4166 N.am      4 UNK        -0.5000 
     55 C           0.0004  -13.6543  -44.3703 C.2       3 UNK         0.5000 
     56 O           1.0428  -14.1482  -43.9361 O.2       3 UNK        -0.5000 
     57 CA         -0.6005  -12.4165  -43.6692 C.3       3 UNK         0.1400 
     58 CB          0.4897  -11.4179  -43.2290 C.3       3 UNK        -0.1800 
     59 N          -1.6581  -11.7315  -44.4250 N.am      3 UNK        -0.5000 
     60 C          -1.5603  -11.1229  -45.6166 C.2       2 UNK         0.5000 
     61 O          -0.5303  -11.0655  -46.2906 O.2       2 UNK        -0.5000 
     62 CA         -2.8571  -10.4811  -46.1460 C.3       2 UNK         0.1400 
     63 CB         -2.6237   -9.0169  -46.5532 C.3       2 UNK        -0.1800 
     64 N          -3.4515  -11.1998  -47.2754 N.am      2 UNK        -0.5000 
     65 C          -3.8001  -12.4939  -47.3024 C.2       1 UNK         0.5000 
     66 O          -3.5550  -13.2973  -46.3979 O.2       1 UNK        -0.5000 
     67 C          -2.3982  -21.5744  -46.0272 C.2       11 UNK         0.5000 
     68 O          -3.6046  -21.6564  -46.2660 O.2       11 UNK        -0.5000 
     69 N          -1.8675  -21.7297  -44.8054 N.am      12 UNK        -0.5000 
     70 CA         -2.6432  -22.0768  -43.6153 C.3       12 UNK         0.1400 
     71 CB         -1.7683  -21.9299  -42.3605 C.3       12 UNK        -0.1800 
     72 C          -3.2329  -23.4956  -43.7087 C.2       12 UNK         0.5000 
     73 O          -4.4238  -23.6752  -43.4539 O.2       12 UNK        -0.5000 
     74 N          -2.3960  -24.4662  -44.1037 N.am      13 UNK        -0.5000 
     75 CA         -2.7563  -25.8778  -44.2508 C.3       13 UNK         0.1400 
     76 CB         -1.4891  -26.6992  -44.5309 C.3       13 UNK        -0.1800 
     77 C          -3.8166  -26.1312  -45.3384 C.2       13 UNK         0.5000 
     78 O          -4.7341  -26.9225  -45.1184 O.2       13 UNK        -0.5000 
     79 N          -3.6845  -25.4452  -46.4813 N.am      14 UNK        -0.5000 
     80 CA         -4.6079  -25.5347  -47.6140 C.3       14 UNK         0.1400 
     81 CB         -3.8664  -25.1074  -48.8889 C.3       14 UNK        -0.1800 
     82 C          -5.8845  -24.6901  -47.4391 C.2       14 UNK         0.5000 
     83 O          -6.7758  -24.7874  -48.2820 O.2       14 UNK        -0.5000 
     84 N          -5.9433  -23.8561  -46.3895 N.am      15 UNK        -0.5000 
     85 CA         -7.0091  -22.8947  -46.0862 C.3       15 UNK         0.1400 
     86 CB         -8.3129  -23.6227  -45.6982 C.3       15 UNK        -0.1800 
     87 C          -7.1946  -21.8703  -47.2256 C.2       15 UNK         0.5000 
     88 O          -8.3004  -21.6900  -47.7375 O.2       15 UNK        -0.5000 
     89 N          -6.0729  -21.2519  -47.6174 N.am      16 UNK        -0.5000 
     90 CA         -5.9005  -20.2415  -48.6659 C.3       16 UNK         0.1400 
     91 CB         -6.8044  -19.0131  -48.4388 C.3       16 UNK        -0.1800 
     92 C          -5.9796  -20.7636  -50.1147 C.2       16 UNK         0.5000 
     93 O          -5.7338  -19.9854  -51.0365 O.2       16 UNK        -0.5000 
     94 N          -6.2567  -22.0599  -50.3197 N.am      17 UNK        -0.5000 
     95 CA         -6.3561  -22.6766  -51.6492 C.3       17 UNK         0.1400 
     96 CB         -7.0400  -24.0460  -51.5269 C.3       17 UNK        -0.1800 
     97 C          -5.0059  -22.8045  -52.3878 C.2       17 UNK         0.5000 
     98 O          -4.9985  -22.9839  -53.6058 O.2       17 UNK        -0.5000 
     99 N          -3.8897  -22.6936  -51.6532 N.am      18 UNK        -0.5000 
    100 CA        -2.5223  -22.7656  -52.1759 C.3       18 UNK         0.1400 
    101 CB        -1.5609  -23.1044  -51.0248 C.3       18 UNK        -0.1800 
    102 C         -2.0525  -21.4900  -52.9054 C.2       18 UNK         0.5000 
    103 O         -0.9337  -21.4847  -53.4180 O.2       18 UNK        -0.5000 
    104 N         -2.8819  -20.4355  -52.9484 N.am      19 UNK        -0.5000 
    105 CA        -2.5806  -19.1021  -53.4931 C.3       19 UNK         0.1400 
    106 CB        -3.8349  -18.2240  -53.3638 C.3       19 UNK        -0.1800 
    107 C         -2.0515  -19.0543  -54.9422 C.2       19 UNK         0.5000 
    108 O         -1.4332  -18.0610  -55.3251 O.2       19 UNK        -0.5000 
    109 N         -2.2843  -20.1210  -55.7169 N.am      20 UNK        -0.5000 
    110 CA        -1.7560  -20.3060  -57.0672 C.3       20 UNK         0.1400 
    111 CB        -2.4817  -21.4929  -57.7197 C.3       20 UNK        -0.1800 
    112 C         -0.2270  -20.5180  -57.1210 C.2       20 UNK         0.5000 
    113 O          0.3653  -20.2611  -58.1706 O.2       20 UNK        -0.5000 
    114 N          0.3828  -20.9936  -56.0242 N.am      21 UNK        -0.5000 
    115 CA         1.8085  -21.3384  -55.9640 C.3       21 UNK         0.1400 
    116 CB         1.9701  -22.8352  -56.2845 C.3       21 UNK        -0.1800 
    117 C          2.4893  -20.9925  -54.6254 C.2       21 UNK         0.5000 
    118 O          3.7189  -21.0310  -54.5642 O.2       21 UNK        -0.5000 
    119 N          1.7059  -20.6889  -53.5822 N.am      22 UNK        -0.5000 
    120 CA         2.1364  -20.4834  -52.1862 C.3       22 UNK         0.1400 
    121 C          2.5829  -21.7916  -51.4623 C.2       22 UNK         0.5000 
    122 N          2.2431  -22.9740  -51.9619 N.am      22 UNK        -0.7600 
    123 O          3.2258  -21.7409  -50.4183 O.2       22 UNK        -0.5000 
    124 C124        3.1547  -19.3228  -51.9863 C.3       23 UNK        -0.0398 
    125 S125        2.5993  -17.7143  -52.6524 S.3       23 UNK        -0.2404 
    126 C126        2.1191  -16.8060  -51.1460 C.3       23 UNK        -0.0205 
    127 H127       -7.9378  -14.7909  -47.2794 H         1 UNK         0.0600 
    128 H128       -8.9914  -13.4272  -47.6640 H         1 UNK         0.0600 
    129 H129       -8.2689  -13.5603  -46.0571 H         1 UNK         0.0600 
    130 H130       -5.8921  -14.5779  -48.1221 H         1 UNK         0.3000 
    131 H131       -4.8600  -12.0878  -49.1408 H         1 UNK         0.0600 
    132 H132       -4.4908  -14.3997  -50.1476 H         1 UNK         0.0800 
    133 H133       -3.3860  -14.7549  -48.8538 H         1 UNK         0.0800 
    134 H134       -1.6900  -13.8290  -52.5500 H         1 UNK         0.0800 
    135 H135       -3.2039  -14.6047  -52.1777 H         1 UNK         0.0800 
    136 H136        0.4399  -14.7805  -51.8403 H         1 UNK         0.1150 
    137 H137        0.4532  -18.6975  -50.1007 H         1 UNK         0.1150 
    138 H138       -3.2457  -16.5981  -50.6312 H         1 UNK         0.1150 
    139 H139       -3.2448  -18.9817  -50.1652 H         1 UNK         0.0800 
    140 H140       -1.7682  -19.8898  -50.0094 H         1 UNK         0.0800 
    141 H141       -0.6363  -19.4513  -46.4344 H         1 UNK         0.0800 
    142 H142       -0.2006  -19.7708  -48.0812 H         1 UNK         0.0800 
    143 H143       -1.9244  -21.6657  -48.0978 H         1 UNK         0.0600 
    144 H144        0.6191  -21.7447  -46.7418 H         1 UNK         0.3000 
    145 H145        0.8330  -25.2907  -46.5556 H         1 UNK         0.0600 
    146 H146        2.8011  -24.9998  -48.0306 H         1 UNK         0.0600 
    147 H147        1.3261  -24.8777  -48.9777 H         1 UNK         0.0600 
    148 H148        2.2144  -23.4205  -48.5518 H         1 UNK         0.0600 
    149 H149        2.7700  -23.2435  -46.1523 H         1 UNK         0.3000 
    150 H150        1.7838  -22.0830  -42.9882 H         1 UNK         0.0600 
    151 H151        2.8540  -24.2378  -42.3045 H         1 UNK         0.0600 
    152 H152        3.9874  -22.9009  -42.1955 H         1 UNK         0.0600 
    153 H153        4.0854  -24.0336  -43.5449 H         1 UNK         0.0600 
    154 H154        4.1975  -21.6953  -44.4123 H         1 UNK         0.3000 
    155 H155        4.6147  -20.1082  -45.8310 H         1 UNK         0.0600 
    156 H156        2.2544  -19.2287  -47.5868 H         1 UNK         0.0600 
    157 H157        3.2314  -20.6692  -47.8517 H         1 UNK         0.0600 
    158 H158        3.9623  -19.0771  -47.9872 H         1 UNK         0.0600 
    159 H159        2.5824  -17.9951  -45.2660 H         1 UNK         0.3000 
    160 H160        5.1681  -15.8375  -43.9898 H         1 UNK         0.0600 
    161 H161        3.0982  -15.5225  -46.2250 H         1 UNK         0.0600 
    162 H162        4.8071  -15.1270  -46.3317 H         1 UNK         0.0600 
    163 H163        3.7624  -14.2047  -45.2598 H         1 UNK         0.0600 
    164 H164        2.3405  -15.6638  -43.8138 H         1 UNK         0.3000 
    165 H165        1.9656  -17.4269  -40.7230 H         1 UNK         0.0600 
    166 H166        0.9838  -15.2200  -40.1196 H         1 UNK         0.0600 
    167 H167        2.7394  -15.1667  -40.0899 H         1 UNK         0.0600 
    168 H168        1.8670  -14.4469  -41.4345 H         1 UNK         0.0600 
    169 H169        0.3680  -15.9679  -42.7348 H         1 UNK         0.3000 
    170 H170       -0.8787  -18.8951  -44.2299 H         1 UNK         0.0600 
    171 H171       -2.3411  -18.8529  -42.1744 H         1 UNK         0.0600 
    172 H172       -2.4780  -17.1086  -42.3222 H         1 UNK         0.0600 
    173 H173       -3.1345  -18.1599  -43.5782 H         1 UNK         0.0600 
    174 H174       -1.7010  -16.1579  -44.4090 H         1 UNK         0.3000 
    175 H175        0.8355  -14.9928  -46.5870 H         1 UNK         0.0600 
    176 H176       -2.0691  -15.7094  -47.1969 H         1 UNK         0.0600 
    177 H177       -1.0904  -14.5089  -48.0531 H         1 UNK         0.0600 
    178 H178       -0.6595  -16.2080  -48.1249 H         1 UNK         0.0600 
    179 H179       -1.5328  -13.7349  -45.7057 H         1 UNK         0.3000 
    180 H180       -1.0781  -12.7960  -42.7649 H         1 UNK         0.0600 
    181 H181        0.0557  -10.5613  -42.7134 H         1 UNK         0.0600 
    182 H182        1.0630  -11.0444  -44.0778 H         1 UNK         0.0600 
    183 H183        1.1952  -11.8844  -42.5402 H         1 UNK         0.0600 
    184 H184       -2.5697  -11.7545  -43.9887 H         1 UNK         0.3000 
    185 H185       -3.5958  -10.4832  -45.3419 H         1 UNK         0.0600 
    186 H186       -3.5600   -8.5265  -46.8206 H         1 UNK         0.0600 
    187 H187       -2.1836   -8.4486  -45.7327 H         1 UNK         0.0600 
    188 H188       -1.9481   -8.9385  -47.4061 H         1 UNK         0.0600 
    189 H189       -3.6792  -10.6310  -48.0776 H         1 UNK         0.3000 
    190 H190       -0.8636  -21.6798  -44.7004 H         1 UNK         0.3000 
    191 H191       -3.4712  -21.3689  -43.5365 H         1 UNK         0.0600 
    192 H192       -2.3621  -22.0698  -41.4565 H         1 UNK         0.0600 
    193 H193       -1.3164  -20.9416  -42.3034 H         1 UNK         0.0600 
    194 H194       -0.9607  -22.6609  -42.3345 H         1 UNK         0.0600 
    195 H195       -1.4183  -24.2313  -44.2542 H         1 UNK         0.3000 
    196 H196       -3.1730  -26.2119  -43.2984 H         1 UNK         0.0600 
    197 H197       -1.0194  -26.4037  -45.4692 H         1 UNK         0.0600 
    198 H198       -0.7541  -26.5760  -43.7352 H         1 UNK         0.0600 
    199 H199       -1.7199  -27.7630  -44.5997 H         1 UNK         0.0600 
    200 H200       -2.8676  -24.8549  -46.6148 H         1 UNK         0.3000 
    201 H201       -4.9175  -26.5747  -47.7354 H         1 UNK         0.0600 
    202 H202       -3.5820  -24.0555  -48.8477 H         1 UNK         0.0600 
    203 H203       -4.4846  -25.2491  -49.7748 H         1 UNK         0.0600 
    204 H204       -2.9609  -25.6969  -49.0337 H         1 UNK         0.0600 
    205 H205       -5.1499  -23.8364  -45.7624 H         1 UNK         0.3000 
    206 H206       -6.6747  -22.3306  -45.2141 H         1 UNK         0.0600 
    207 H207       -8.1441  -24.3185  -44.8763 H         1 UNK         0.0600 
    208 H208       -9.0724  -22.9117  -45.3713 H         1 UNK         0.0600 
    209 H209       -8.7311  -24.1855  -46.5331 H         1 UNK         0.0600 
    210 H210       -5.2147  -21.4887  -47.1199 H         1 UNK         0.3000 
    211 H211       -4.8758  -19.9024  -48.5469 H         1 UNK         0.0600 
    212 H212       -6.5377  -18.2032  -49.1188 H         1 UNK         0.0600 
    213 H213       -6.7003  -18.6291  -47.4240 H         1 UNK         0.0600 
    214 H214       -7.8564  -19.2430  -48.6076 H         1 UNK         0.0600 
    215 H215       -6.4702  -22.6476  -49.5248 H         1 UNK         0.3000 
    216 H216       -6.9966  -22.0403  -52.2636 H         1 UNK         0.0600 
    217 H217       -6.4325  -24.7533  -50.9639 H         1 UNK         0.0600 
    218 H218       -7.2187  -24.4818  -52.5106 H         1 UNK         0.0600 
    219 H219       -8.0061  -23.9631  -51.0284 H         1 UNK         0.0600 
    220 H220       -3.9908  -22.5413  -50.6617 H         1 UNK         0.3000 
    221 H221       -2.4738  -23.5793  -52.9023 H         1 UNK         0.0600 
    222 H222       -1.8145  -24.0570  -50.5621 H         1 UNK         0.0600 
    223 H223       -1.5700  -22.3381  -50.2521 H         1 UNK         0.0600 
    224 H224       -0.5343  -23.1936  -51.3804 H         1 UNK         0.0600 
    225 H225       -3.7905  -20.5354  -52.5164 H         1 UNK         0.3000 
    226 H226       -1.7930  -18.6753  -52.8721 H         1 UNK         0.0600 
    227 H227       -4.6612  -18.6174  -53.9570 H         1 UNK         0.0600 
    228 H228       -4.1707  -18.1580  -52.3298 H         1 UNK         0.0600 
    229 H229       -3.6389  -17.2059  -53.7031 H         1 UNK         0.0600 
    230 H230       -2.8021  -20.8917  -55.3207 H         1 UNK         0.3000 
    231 H231       -1.9825  -19.4078  -57.6455 H         1 UNK         0.0600 
    232 H232       -2.3074  -22.4203  -57.1726 H         1 UNK         0.0600 
    233 H233       -2.1388  -21.6464  -58.7438 H         1 UNK         0.0600 
    234 H234       -3.5579  -21.3237  -57.7612 H         1 UNK         0.0600 
    235 H235       -0.1752  -21.1853  -55.1987 H         1 UNK         0.3000 
    236 H236        2.3538  -20.7684  -56.7190 H         1 UNK         0.0600 
    237 H237        1.5982  -23.0669  -57.2827 H         1 UNK         0.0600 
    238 H238        3.0183  -23.1355  -56.2533 H         1 UNK         0.0600 
    239 H239        1.4273  -23.4572  -55.5720 H         1 UNK         0.0600 
    240 H240        0.6992  -20.7564  -53.6931 H         1 UNK         0.3000 
    241 H241        1.2251  -20.1968  -51.6633 H         1 UNK         0.0600 
    242 H242        2.5389  -23.8122  -51.4887 H         1 UNK         0.3800 
    243 H243        1.7027  -23.0364  -52.8088 H         1 UNK         0.3800 
    244 H244        4.1061  -19.5691  -52.4583 H         1 UNK         0.0800 
    245 H245        3.3872  -19.2028  -50.9277 H         1 UNK         0.0800 
    246 H246        2.5682  -17.2432  -50.2537 H         1 UNK         0.0800 
    247 H247        2.5225  -15.7945  -51.2125 H         1 UNK         0.0800 
@<TRIPOS>BOND
     1    1    2 1    
     2    1  127 1    
     3    1  128 1    
     4    1  129 1    
     5    2    3 2    
     6    2    4 am   BACKBONE|DICT|INTERRES
     7    4    5 1    
     8    4  130 1    
     9    5    6 1    
    10    5   65 1    
    11    5  131 1    
    12    6    7 1    
    13    6  132 1    
    14    6  133 1    
    15    7    8 1    
    16    8    9 1    
    17    8  134 1    
    18    8  135 1    
    19    9   10 ar   
    20    9   14 ar   
    21   10   11 ar   
    22   10  136 1    
    23   11   12 ar   
    24   11  126 1    
    25   12   13 ar   
    26   12  137 1    
    27   13   14 ar   
    28   13   15 1    
    29   14  138 1    
    30   15   16 1    
    31   15  139 1    
    32   15  140 1    
    33   16   17 1    
    34   17   18 1    
    35   17  141 1    
    36   17  142 1    
    37   18   19 1    
    38   18   67 1    
    39   18  143 1    
    40   19   20 am   BACKBONE|DICT|INTERRES
    41   19  144 1    
    42   20   21 2    
    43   20   22 1    
    44   22   23 1    
    45   22   24 1    
    46   22  145 1    
    47   23  146 1    
    48   23  147 1    
    49   23  148 1    
    50   24   25 am   BACKBONE|DICT|INTERRES
    51   24  149 1    
    52   25   26 2    
    53   25   27 1    
    54   27   28 1    
    55   27   29 1    
    56   27  150 1    
    57   28  151 1    
    58   28  152 1    
    59   28  153 1    
    60   29   30 am   BACKBONE|DICT|INTERRES
    61   29  154 1    
    62   30   31 2    
    63   30   32 1    
    64   32   33 1    
    65   32   34 1    
    66   32  155 1    
    67   33  156 1    
    68   33  157 1    
    69   33  158 1    
    70   34   35 am   BACKBONE|DICT|INTERRES
    71   34  159 1    
    72   35   36 2    
    73   35   37 1    
    74   37   38 1    
    75   37   39 1    
    76   37  160 1    
    77   38  161 1    
    78   38  162 1    
    79   38  163 1    
    80   39   40 am   BACKBONE|DICT|INTERRES
    81   39  164 1    
    82   40   41 2    
    83   40   42 1    
    84   42   43 1    
    85   42   44 1    
    86   42  165 1    
    87   43  166 1    
    88   43  167 1    
    89   43  168 1    
    90   44   45 am   BACKBONE|DICT|INTERRES
    91   44  169 1    
    92   45   46 2    
    93   45   47 1    
    94   47   48 1    
    95   47   49 1    
    96   47  170 1    
    97   48  171 1    
    98   48  172 1    
    99   48  173 1    
   100   49   50 am   BACKBONE|DICT|INTERRES
   101   49  174 1    
   102   50   51 2    
   103   50   52 1    
   104   52   53 1    
   105   52   54 1    
   106   52  175 1    
   107   53  176 1    
   108   53  177 1    
   109   53  178 1    
   110   54   55 am   BACKBONE|DICT|INTERRES
   111   54  179 1    
   112   55   56 2    
   113   55   57 1    
   114   57   58 1    
   115   57   59 1    
   116   57  180 1    
   117   58  181 1    
   118   58  182 1    
   119   58  183 1    
   120   59   60 am   BACKBONE|DICT|INTERRES
   121   59  184 1    
   122   60   61 2    
   123   60   62 1    
   124   62   63 1    
   125   62   64 1    
   126   62  185 1    
   127   63  186 1    
   128   63  187 1    
   129   63  188 1    
   130   64   65 am   BACKBONE|DICT|INTERRES
   131   64  189 1    
   132   65   66 2    
   133   67   68 2    
   134   67   69 am   BACKBONE|DICT|INTERRES
   135   69   70 1    
   136   69  190 1    
   137   70   71 1    
   138   70   72 1    
   139   70  191 1    
   140   71  192 1    
   141   71  193 1    
   142   71  194 1    
   143   72   73 2    
   144   72   74 am   BACKBONE|DICT|INTERRES
   145   74   75 1    
   146   74  195 1    
   147   75   76 1    
   148   75   77 1    
   149   75  196 1    
   150   76  197 1    
   151   76  198 1    
   152   76  199 1    
   153   77   78 2    
   154   77   79 am   BACKBONE|DICT|INTERRES
   155   79   80 1    
   156   79  200 1    
   157   80   81 1    
   158   80   82 1    
   159   80  201 1    
   160   81  202 1    
   161   81  203 1    
   162   81  204 1    
   163   82   83 2    
   164   82   84 am   BACKBONE|DICT|INTERRES
   165   84   85 1    
   166   84  205 1    
   167   85   86 1    
   168   85   87 1    
   169   85  206 1    
   170   86  207 1    
   171   86  208 1    
   172   86  209 1    
   173   87   88 2    
   174   87   89 am   BACKBONE|DICT|INTERRES
   175   89   90 1    
   176   89  210 1    
   177   90   91 1    
   178   90   92 1    
   179   90  211 1    
   180   91  212 1    
   181   91  213 1    
   182   91  214 1    
   183   92   93 2    
   184   92   94 am   BACKBONE|DICT|INTERRES
   185   94   95 1    
   186   94  215 1    
   187   95   96 1    
   188   95   97 1    
   189   95  216 1    
   190   96  217 1    
   191   96  218 1    
   192   96  219 1    
   193   97   98 2    
   194   97   99 am   BACKBONE|DICT|INTERRES
   195   99  100 1    
   196   99  220 1    
   197  100  101 1    
   198  100  102 1    
   199  100  221 1    
   200  101  222 1    
   201  101  223 1    
   202  101  224 1    
   203  102  103 2    
   204  102  104 am   BACKBONE|DICT|INTERRES
   205  104  105 1    
   206  104  225 1    
   207  105  106 1    
   208  105  107 1    
   209  105  226 1    
   210  106  227 1    
   211  106  228 1    
   212  106  229 1    
   213  107  108 2    
   214  107  109 am   BACKBONE|DICT|INTERRES
   215  109  110 1    
   216  109  230 1    
   217  110  111 1    
   218  110  112 1    
   219  110  231 1    
   220  111  232 1    
   221  111  233 1    
   222  111  234 1    
   223  112  113 2    
   224  112  114 am   BACKBONE|DICT|INTERRES
   225  114  115 1    
   226  114  235 1    
   227  115  116 1    
   228  115  117 1    
   229  115  236 1    
   230  116  237 1    
   231  116  238 1    
   232  116  239 1    
   233  117  118 2    
   234  117  119 am   BACKBONE|DICT|INTERRES
   235  119  120 1    
   236  119  240 1    
   237  120  121 1    
   238  120  124 1    
   239  120  241 1    
   240  121  122 am   BACKBONE|DICT|INTERRES
   241  121  123 2    
   242  122  242 1    
   243  122  243 1    
   244  124  125 1    
   245  124  244 1    
   246  124  245 1    
   247  125  126 1    
   248  126  246 1    
   249  126  247 1    
@<TRIPOS>SUBSTRUCTURE
     1 UNK         1 GROUP             0       ****    0 ROOT    
