@<TRIPOS>MOLECULE
3R540
247   249    1
SMALL
USER_CHARGES


@<TRIPOS>ATOM
      1 CA          2.0151  -11.9153  -52.4169 C.3       0 UNK        -0.1800 
      2 C           0.8781  -11.1458  -51.7488 C.2       0 UNK         0.5000 
      3 O           0.6561   -9.9850  -52.0878 O.2       0 UNK        -0.5000 
      4 N           0.1387  -11.7295  -50.7975 N.am      1 UNK        -0.5000 
      5 CA          0.2794  -13.0845  -50.2585 C.3       1 UNK         0.1400 
      6 C6         -0.8926  -14.0137  -50.6721 C.3       23 UNK        -0.0398 
      7 S7         -0.8051  -14.5126  -52.4226 S.3       23 UNK        -0.2404 
      8 C8          0.4174  -15.8648  -52.3561 C.3       23 UNK        -0.0205 
      9 C9         -0.1726  -17.1577  -51.8131 C.ar      23 UNK        -0.0193 
     10 C10        -0.8148  -18.0433  -52.6819 C.ar      23 UNK        -0.1150 
     11 C11        -1.3358  -19.2500  -52.2089 C.ar      23 UNK        -0.0193 
     12 C12        -1.2390  -19.5514  -50.8481 C.ar      23 UNK        -0.1150 
     13 C13        -0.6240  -18.6634  -49.9630 C.ar      23 UNK        -0.0193 
     14 C14        -0.0720  -17.4771  -50.4544 C.ar      23 UNK        -0.1150 
     15 C15        -0.6025  -18.9675  -48.4741 C.3       23 UNK        -0.0205 
     16 S16         0.8688  -19.9117  -47.9923 S.3       23 UNK        -0.2404 
     17 C17         0.4720  -20.2984  -46.2529 C.3       23 UNK        -0.0398 
     18 CA          0.0906  -21.7874  -46.0466 C.3       11 UNK         0.1400 
     19 N           0.5702  -22.2938  -44.7573 N.am      11 UNK        -0.5000 
     20 C           0.6426  -23.5884  -44.4218 C.2       10 UNK         0.5000 
     21 O           0.1748  -24.4962  -45.1068 O.2       10 UNK        -0.5000 
     22 CA          1.3400  -23.9236  -43.0968 C.3       10 UNK         0.1400 
     23 CB          2.8543  -23.6784  -43.1940 C.3       10 UNK        -0.1800 
     24 N           0.7823  -23.1274  -42.0099 N.am      10 UNK        -0.5000 
     25 C          -0.2690  -23.4994  -41.2685 C.2       9 UNK         0.5000 
     26 O          -0.8303  -24.5903  -41.3740 O.2       9 UNK        -0.5000 
     27 CA         -0.7939  -22.4796  -40.2389 C.3       9 UNK         0.1400 
     28 CB         -0.1739  -22.7429  -38.8582 C.3       9 UNK        -0.1800 
     29 N          -0.5579  -21.0818  -40.6084 N.am      9 UNK        -0.5000 
     30 C          -1.0818  -20.4781  -41.6835 C.2       8 UNK         0.5000 
     31 O          -1.7778  -21.0475  -42.5219 O.2       8 UNK        -0.5000 
     32 CA         -0.7239  -18.9970  -41.8804 C.3       8 UNK         0.1400 
     33 CB         -1.5243  -18.1297  -40.8965 C.3       8 UNK        -0.1800 
     34 N           0.7021  -18.6845  -41.7492 N.am      8 UNK        -0.5000 
     35 C           1.7230  -19.3241  -42.3423 C.2       7 UNK         0.5000 
     36 O           1.6049  -20.3789  -42.9680 O.2       7 UNK        -0.5000 
     37 CA          3.0994  -18.6471  -42.2367 C.3       7 UNK         0.1400 
     38 CB          4.0777  -19.1145  -43.3307 C.3       7 UNK        -0.1800 
     39 N           2.9377  -17.1970  -42.3220 N.am      7 UNK        -0.5000 
     40 C           3.5481  -16.3015  -41.5387 C.2       6 UNK         0.5000 
     41 O           4.3458  -16.6025  -40.6498 O.2       6 UNK        -0.5000 
     42 CA          3.2160  -14.8167  -41.7779 C.3       6 UNK         0.1400 
     43 CB          4.2596  -14.1768  -42.7065 C.3       6 UNK        -0.1800 
     44 N           1.8791  -14.5764  -42.3274 N.am      6 UNK        -0.5000 
     45 C           0.7311  -14.7514  -41.6571 C.2       5 UNK         0.5000 
     46 O           0.6682  -15.2469  -40.5321 O.2       5 UNK        -0.5000 
     47 CA         -0.5607  -14.3050  -42.3619 C.3       5 UNK         0.1400 
     48 CB         -0.6656  -12.7716  -42.3848 C.3       5 UNK        -0.1800 
     49 N          -0.5975  -14.8111  -43.7313 N.am      5 UNK        -0.5000 
     50 C          -1.4128  -15.7782  -44.1739 C.2       4 UNK         0.5000 
     51 O          -2.3124  -16.2776  -43.4993 O.2       4 UNK        -0.5000 
     52 CA         -1.1904  -16.2950  -45.6103 C.3       4 UNK         0.1400 
     53 CB         -2.2950  -15.7882  -46.5503 C.3       4 UNK        -0.1800 
     54 N           0.1186  -15.9410  -46.1652 N.am      4 UNK        -0.5000 
     55 C           1.2831  -16.4462  -45.7288 C.2       3 UNK         0.5000 
     56 O           1.3606  -17.2931  -44.8416 O.2       3 UNK        -0.5000 
     57 CA          2.5835  -15.8767  -46.3287 C.3       3 UNK         0.1400 
     58 CB          3.0849  -16.7836  -47.4615 C.3       3 UNK        -0.1800 
     59 N           2.4632  -14.5045  -46.8281 N.am      3 UNK        -0.5000 
     60 C           2.0780  -13.4368  -46.1124 C.2       2 UNK         0.5000 
     61 O           1.8237  -13.4803  -44.9087 O.2       2 UNK        -0.5000 
     62 CA          1.8728  -12.1171  -46.8831 C.3       2 UNK         0.1400 
     63 CB          3.1345  -11.2465  -46.7961 C.3       2 UNK        -0.1800 
     64 N           1.5070  -12.3004  -48.2937 N.am      2 UNK        -0.5000 
     65 C           0.4346  -12.9768  -48.7326 C.2       1 UNK         0.5000 
     66 O          -0.3842  -13.5092  -47.9824 O.2       1 UNK        -0.5000 
     67 C          -1.4130  -22.0539  -46.2851 C.2       11 UNK         0.5000 
     68 O          -1.8106  -22.3156  -47.4216 O.2       11 UNK        -0.5000 
     69 N          -2.2261  -22.0423  -45.2186 N.am      12 UNK        -0.5000 
     70 CA         -3.6475  -22.3928  -45.2842 C.3       12 UNK         0.1400 
     71 CB         -4.3639  -21.9118  -44.0145 C.3       12 UNK        -0.1800 
     72 C          -3.9001  -23.8971  -45.5025 C.2       12 UNK         0.5000 
     73 O          -4.9794  -24.2578  -45.9710 O.2       12 UNK        -0.5000 
     74 N          -2.9206  -24.7420  -45.1558 N.am      13 UNK        -0.5000 
     75 CA         -3.0107  -26.1961  -45.2474 C.3       13 UNK         0.1400 
     76 CB         -2.3654  -26.8205  -43.9986 C.3       13 UNK        -0.1800 
     77 C          -2.3457  -26.7173  -46.5300 C.2       13 UNK         0.5000 
     78 O          -2.9918  -27.4192  -47.3079 O.2       13 UNK        -0.5000 
     79 N          -1.0648  -26.3775  -46.7220 N.am      14 UNK        -0.5000 
     80 CA         -0.2166  -26.9082  -47.7882 C.3       14 UNK         0.1400 
     81 CB          1.2590  -26.7118  -47.4056 C.3       14 UNK        -0.1800 
     82 C          -0.5090  -26.2727  -49.1552 C.2       14 UNK         0.5000 
     83 O          -0.5609  -26.9878  -50.1565 O.2       14 UNK        -0.5000 
     84 N          -0.6959  -24.9470  -49.1695 N.am      15 UNK        -0.5000 
     85 CA         -0.9761  -24.1668  -50.3775 C.3       15 UNK         0.1400 
     86 CB         -0.1192  -22.8918  -50.3535 C.3       15 UNK        -0.1800 
     87 C          -2.4768  -23.8514  -50.5370 C.2       15 UNK         0.5000 
     88 O          -2.8603  -23.2677  -51.5481 O.2       15 UNK        -0.5000 
     89 N          -3.2966  -24.2622  -49.5566 N.am      16 UNK        -0.5000 
     90 CA         -4.7574  -24.1290  -49.4986 C.3       16 UNK         0.1400 
     91 CB         -5.4290  -24.9218  -50.6404 C.3       16 UNK        -0.1800 
     92 C          -5.2561  -22.6693  -49.4034 C.2       16 UNK         0.5000 
     93 O          -6.3857  -22.3891  -49.8093 O.2       16 UNK        -0.5000 
     94 N          -4.4200  -21.7859  -48.8334 N.am      17 UNK        -0.5000 
     95 CA         -4.6179  -20.3442  -48.6339 C.3       17 UNK         0.1400 
     96 CB         -5.8952  -20.0544  -47.8166 C.3       17 UNK        -0.1800 
     97 C          -4.5977  -19.5316  -49.9442 C.2       17 UNK         0.5000 
     98 O          -4.7063  -20.0853  -51.0385 O.2       17 UNK        -0.5000 
     99 N          -4.4664  -18.2035  -49.8078 N.am      18 UNK        -0.5000 
    100 CA        -4.3396  -17.2451  -50.9154 C.3       18 UNK         0.1400 
    101 CB        -4.1298  -15.8378  -50.3390 C.3       18 UNK        -0.1800 
    102 C         -5.5144  -17.2548  -51.9154 C.2       18 UNK         0.5000 
    103 O         -5.3259  -16.8972  -53.0784 O.2       18 UNK        -0.5000 
    104 N         -6.6891  -17.7151  -51.4625 N.am      19 UNK        -0.5000 
    105 CA        -7.8906  -17.9432  -52.2670 C.3       19 UNK         0.1400 
    106 CB        -9.0348  -18.3670  -51.3334 C.3       19 UNK        -0.1800 
    107 C         -7.7091  -18.9778  -53.3988 C.2       19 UNK         0.5000 
    108 O         -8.4477  -18.9201  -54.3825 O.2       19 UNK        -0.5000 
    109 N         -6.7278  -19.8840  -53.2658 N.am      20 UNK        -0.5000 
    110 CA        -6.3551  -20.8571  -54.2960 C.3       20 UNK         0.1400 
    111 CB        -5.6689  -22.0585  -53.6278 C.3       20 UNK        -0.1800 
    112 C         -5.4737  -20.2581  -55.4151 C.2       20 UNK         0.5000 
    113 O         -5.1829  -20.9605  -56.3844 O.2       20 UNK        -0.5000 
    114 N         -5.0617  -18.9878  -55.2726 N.am      21 UNK        -0.5000 
    115 CA        -4.2889  -18.1446  -56.1959 C.3       21 UNK         0.1400 
    116 CB        -5.0116  -17.9769  -57.5459 C.3       21 UNK        -0.1800 
    117 C         -2.8197  -18.5641  -56.3987 C.2       21 UNK         0.5000 
    118 O         -1.9476  -17.6954  -56.3888 O.2       21 UNK        -0.5000 
    119 N         -2.5659  -19.8701  -56.5539 N.am      22 UNK        -0.5000 
    120 CA        -1.2385  -20.4951  -56.7150 C.3       22 UNK         0.1400 
    121 C         -0.4877  -20.1005  -58.0271 C.2       22 UNK         0.5000 
    122 N         -1.1655  -19.5887  -59.0477 N.am      22 UNK        -0.7600 
    123 O          0.7199  -20.2919  -58.1446 O.2       22 UNK        -0.5000 
    124 C124       -0.3516  -20.3582  -55.4410 C.3       23 UNK        -0.0398 
    125 S125       -0.9756  -21.3428  -54.0351 S.3       23 UNK        -0.2404 
    126 C126       -2.0727  -20.1947  -53.1436 C.3       23 UNK        -0.0205 
    127 H127        1.6535  -12.8418  -52.8617 H         1 UNK         0.0600 
    128 H128        2.7985  -12.1504  -51.6966 H         1 UNK         0.0600 
    129 H129        2.4631  -11.3205  -53.2132 H         1 UNK         0.0600 
    130 H130       -0.5885  -11.1810  -50.3595 H         1 UNK         0.3000 
    131 H131        1.2078  -13.5449  -50.5949 H         1 UNK         0.0600 
    132 H132       -0.9226  -14.9169  -50.0642 H         1 UNK         0.0800 
    133 H133       -1.8488  -13.5164  -50.5022 H         1 UNK         0.0800 
    134 H134        0.7939  -16.0369  -53.3656 H         1 UNK         0.0800 
    135 H135        1.2834  -15.5659  -51.7652 H         1 UNK         0.0800 
    136 H136       -0.9181  -17.7818  -53.7249 H         1 UNK         0.1150 
    137 H137       -1.6757  -20.4660  -50.4731 H         1 UNK         0.1150 
    138 H138        0.4189  -16.7962  -49.7745 H         1 UNK         0.1150 
    139 H139       -0.6324  -18.0388  -47.9069 H         1 UNK         0.0800 
    140 H140       -1.4945  -19.5295  -48.2000 H         1 UNK         0.0800 
    141 H141        1.3751  -20.0613  -45.6883 H         1 UNK         0.0800 
    142 H142       -0.2918  -19.6243  -45.8623 H         1 UNK         0.0800 
    143 H143        0.6227  -22.3742  -46.7991 H         1 UNK         0.0600 
    144 H144        0.9534  -21.6024  -44.1147 H         1 UNK         0.3000 
    145 H145        1.1883  -24.9864  -42.8953 H         1 UNK         0.0600 
    146 H146        3.3575  -23.9670  -42.2712 H         1 UNK         0.0600 
    147 H147        3.2925  -24.2673  -44.0008 H         1 UNK         0.0600 
    148 H148        3.0890  -22.6313  -43.3877 H         1 UNK         0.0600 
    149 H149        1.1376  -22.1843  -41.9119 H         1 UNK         0.3000 
    150 H150       -1.8737  -22.6235  -40.1618 H         1 UNK         0.0600 
    151 H151       -0.3540  -23.7701  -38.5382 H         1 UNK         0.0600 
    152 H152       -0.6044  -22.0882  -38.1003 H         1 UNK         0.0600 
    153 H153        0.9055  -22.5858  -38.8659 H         1 UNK         0.0600 
    154 H154        0.0279  -20.5398  -39.9903 H         1 UNK         0.3000 
    155 H155       -1.0158  -18.7238  -42.8962 H         1 UNK         0.0600 
    156 H156       -1.3611  -17.0691  -41.0796 H         1 UNK         0.0600 
    157 H157       -1.2504  -18.3327  -39.8606 H         1 UNK         0.0600 
    158 H158       -2.5952  -18.3112  -40.9975 H         1 UNK         0.0600 
    159 H159        0.9194  -17.8334  -41.2498 H         1 UNK         0.3000 
    160 H160        3.5061  -18.9291  -41.2638 H         1 UNK         0.0600 
    161 H161        3.6910  -18.9030  -44.3286 H         1 UNK         0.0600 
    162 H162        4.2568  -20.1884  -43.2665 H         1 UNK         0.0600 
    163 H163        5.0435  -18.6187  -43.2335 H         1 UNK         0.0600 
    164 H164        2.2893  -16.8820  -43.0361 H         1 UNK         0.3000 
    165 H165        3.2725  -14.3125  -40.8108 H         1 UNK         0.0600 
    166 H166        4.2494  -14.6308  -43.6973 H         1 UNK         0.0600 
    167 H167        4.0784  -13.1085  -42.8270 H         1 UNK         0.0600 
    168 H168        5.2663  -14.2922  -42.3028 H         1 UNK         0.0600 
    169 H169        1.8494  -14.1490  -43.2508 H         1 UNK         0.3000 
    170 H170       -1.4046  -14.6884  -41.7850 H         1 UNK         0.0600 
    171 H171       -0.6291  -12.3626  -41.3743 H         1 UNK         0.0600 
    172 H172        0.1453  -12.3157  -42.9541 H         1 UNK         0.0600 
    173 H173       -1.6068  -12.4509  -42.8315 H         1 UNK         0.0600 
    174 H174        0.1177  -14.4578  -44.3560 H         1 UNK         0.3000 
    175 H175       -1.2556  -17.3838  -45.5704 H         1 UNK         0.0600 
    176 H176       -3.2757  -16.1345  -46.2220 H         1 UNK         0.0600 
    177 H177       -2.3275  -14.6987  -46.5802 H         1 UNK         0.0600 
    178 H178       -2.1467  -16.1467  -47.5684 H         1 UNK         0.0600 
    179 H179        0.1248  -15.2021  -46.8596 H         1 UNK         0.3000 
    180 H180        3.3329  -15.8762  -45.5355 H         1 UNK         0.0600 
    181 H181        2.3851  -16.8101  -48.2973 H         1 UNK         0.0600 
    182 H182        3.2139  -17.8091  -47.1118 H         1 UNK         0.0600 
    183 H183        4.0503  -16.4478  -47.8401 H         1 UNK         0.0600 
    184 H184        2.6573  -14.3672  -47.8084 H         1 UNK         0.3000 
    185 H185        1.0535  -11.5838  -46.3966 H         1 UNK         0.0600 
    186 H186        2.9728  -10.2699  -47.2529 H         1 UNK         0.0600 
    187 H187        3.4193  -11.0739  -45.7571 H         1 UNK         0.0600 
    188 H188        3.9831  -11.7157  -47.2955 H         1 UNK         0.0600 
    189 H189        2.1189  -11.8705  -48.9721 H         1 UNK         0.3000 
    190 H190       -1.8611  -21.8014  -44.3002 H         1 UNK         0.3000 
    191 H191       -4.0866  -21.8628  -46.1278 H         1 UNK         0.0600 
    192 H192       -5.4370  -22.0967  -44.0779 H         1 UNK         0.0600 
    193 H193       -4.2282  -20.8405  -43.8656 H         1 UNK         0.0600 
    194 H194       -3.9954  -22.4264  -43.1263 H         1 UNK         0.0600 
    195 H195       -2.0424  -24.3627  -44.8273 H         1 UNK         0.3000 
    196 H196       -4.0573  -26.5078  -45.2646 H         1 UNK         0.0600 
    197 H197       -2.4013  -27.9097  -44.0427 H         1 UNK         0.0600 
    198 H198       -2.8898  -26.5145  -43.0932 H         1 UNK         0.0600 
    199 H199       -1.3201  -26.5296  -43.8873 H         1 UNK         0.0600 
    200 H200       -0.6101  -25.7574  -46.0528 H         1 UNK         0.3000 
    201 H201       -0.4010  -27.9815  -47.8724 H         1 UNK         0.0600 
    202 H202        1.4908  -27.2090  -46.4636 H         1 UNK         0.0600 
    203 H203        1.5117  -25.6564  -47.2965 H         1 UNK         0.0600 
    204 H204        1.9190  -27.1309  -48.1662 H         1 UNK         0.0600 
    205 H205       -0.6539  -24.4337  -48.3001 H         1 UNK         0.3000 
    206 H206       -0.6830  -24.7327  -51.2641 H         1 UNK         0.0600 
    207 H207        0.9410  -23.1305  -50.2714 H         1 UNK         0.0600 
    208 H208       -0.2482  -22.3186  -51.2712 H         1 UNK         0.0600 
    209 H209       -0.3779  -22.2407  -49.5213 H         1 UNK         0.0600 
    210 H210       -2.8699  -24.7308  -48.7712 H         1 UNK         0.3000 
    211 H211       -5.0595  -24.6053  -48.5664 H         1 UNK         0.0600 
    212 H212       -5.2394  -24.4701  -51.6142 H         1 UNK         0.0600 
    213 H213       -6.5104  -24.9625  -50.5061 H         1 UNK         0.0600 
    214 H214       -5.0691  -25.9502  -50.6710 H         1 UNK         0.0600 
    215 H215       -3.5063  -22.1306  -48.5562 H         1 UNK         0.3000 
    216 H216       -3.7647  -20.0163  -48.0403 H         1 UNK         0.0600 
    217 H217       -5.9553  -20.6815  -46.9278 H         1 UNK         0.0600 
    218 H218       -5.9184  -19.0178  -47.4791 H         1 UNK         0.0600 
    219 H219       -6.8001  -20.2212  -48.4016 H         1 UNK         0.0600 
    220 H220       -4.4054  -17.8126  -48.8795 H         1 UNK         0.3000 
    221 H221       -3.4449  -17.5129  -51.4782 H         1 UNK         0.0600 
    222 H222       -4.9791  -15.5186  -49.7340 H         1 UNK         0.0600 
    223 H223       -3.2371  -15.7982  -49.7161 H         1 UNK         0.0600 
    224 H224       -3.9980  -15.1051  -51.1365 H         1 UNK         0.0600 
    225 H225       -6.7382  -17.9987  -50.4955 H         1 UNK         0.3000 
    226 H226       -8.1605  -16.9939  -52.7341 H         1 UNK         0.0600 
    227 H227       -8.8053  -19.2996  -50.8159 H         1 UNK         0.0600 
    228 H228       -9.2344  -17.6042  -50.5806 H         1 UNK         0.0600 
    229 H229       -9.9594  -18.5201  -51.8917 H         1 UNK         0.0600 
    230 H230       -6.1516  -19.8781  -52.4283 H         1 UNK         0.3000 
    231 H231       -7.2659  -21.2243  -54.7732 H         1 UNK         0.0600 
    232 H232       -5.4410  -22.8382  -54.3553 H         1 UNK         0.0600 
    233 H233       -6.3079  -22.5026  -52.8643 H         1 UNK         0.0600 
    234 H234       -4.7325  -21.7757  -53.1501 H         1 UNK         0.0600 
    235 H235       -5.3327  -18.5109  -54.4198 H         1 UNK         0.3000 
    236 H236       -4.2620  -17.1613  -55.7234 H         1 UNK         0.0600 
    237 H237       -6.0267  -17.6056  -57.4049 H         1 UNK         0.0600 
    238 H238       -4.4884  -17.2594  -58.1793 H         1 UNK         0.0600 
    239 H239       -5.0710  -18.9145  -58.0989 H         1 UNK         0.0600 
    240 H240       -3.3645  -20.4988  -56.5641 H         1 UNK         0.3000 
    241 H241       -1.4404  -21.5583  -56.8487 H         1 UNK         0.0600 
    242 H242       -2.1591  -19.4385  -58.9782 H         1 UNK         0.3800 
    243 H243       -0.6785  -19.3471  -59.8966 H         1 UNK         0.3800 
    244 H244        0.6543  -20.7336  -55.6332 H         1 UNK         0.0800 
    245 H245       -0.2199  -19.3163  -55.1583 H         1 UNK         0.0800 
    246 H246       -2.7636  -20.8006  -52.5605 H         1 UNK         0.0800 
    247 H247       -2.6928  -19.6285  -53.8326 H         1 UNK         0.0800 
@<TRIPOS>BOND
     1    1    2 1    
     2    1  127 1    
     3    1  128 1    
     4    1  129 1    
     5    2    3 2    
     6    2    4 am   BACKBONE|DICT|INTERRES
     7    4    5 1    
     8    4  130 1    
     9    5    6 1    
    10    5   65 1    
    11    5  131 1    
    12    6    7 1    
    13    6  132 1    
    14    6  133 1    
    15    7    8 1    
    16    8    9 1    
    17    8  134 1    
    18    8  135 1    
    19    9   10 ar   
    20    9   14 ar   
    21   10   11 ar   
    22   10  136 1    
    23   11   12 ar   
    24   11  126 1    
    25   12   13 ar   
    26   12  137 1    
    27   13   14 ar   
    28   13   15 1    
    29   14  138 1    
    30   15   16 1    
    31   15  139 1    
    32   15  140 1    
    33   16   17 1    
    34   17   18 1    
    35   17  141 1    
    36   17  142 1    
    37   18   19 1    
    38   18   67 1    
    39   18  143 1    
    40   19   20 am   BACKBONE|DICT|INTERRES
    41   19  144 1    
    42   20   21 2    
    43   20   22 1    
    44   22   23 1    
    45   22   24 1    
    46   22  145 1    
    47   23  146 1    
    48   23  147 1    
    49   23  148 1    
    50   24   25 am   BACKBONE|DICT|INTERRES
    51   24  149 1    
    52   25   26 2    
    53   25   27 1    
    54   27   28 1    
    55   27   29 1    
    56   27  150 1    
    57   28  151 1    
    58   28  152 1    
    59   28  153 1    
    60   29   30 am   BACKBONE|DICT|INTERRES
    61   29  154 1    
    62   30   31 2    
    63   30   32 1    
    64   32   33 1    
    65   32   34 1    
    66   32  155 1    
    67   33  156 1    
    68   33  157 1    
    69   33  158 1    
    70   34   35 am   BACKBONE|DICT|INTERRES
    71   34  159 1    
    72   35   36 2    
    73   35   37 1    
    74   37   38 1    
    75   37   39 1    
    76   37  160 1    
    77   38  161 1    
    78   38  162 1    
    79   38  163 1    
    80   39   40 am   BACKBONE|DICT|INTERRES
    81   39  164 1    
    82   40   41 2    
    83   40   42 1    
    84   42   43 1    
    85   42   44 1    
    86   42  165 1    
    87   43  166 1    
    88   43  167 1    
    89   43  168 1    
    90   44   45 am   BACKBONE|DICT|INTERRES
    91   44  169 1    
    92   45   46 2    
    93   45   47 1    
    94   47   48 1    
    95   47   49 1    
    96   47  170 1    
    97   48  171 1    
    98   48  172 1    
    99   48  173 1    
   100   49   50 am   BACKBONE|DICT|INTERRES
   101   49  174 1    
   102   50   51 2    
   103   50   52 1    
   104   52   53 1    
   105   52   54 1    
   106   52  175 1    
   107   53  176 1    
   108   53  177 1    
   109   53  178 1    
   110   54   55 am   BACKBONE|DICT|INTERRES
   111   54  179 1    
   112   55   56 2    
   113   55   57 1    
   114   57   58 1    
   115   57   59 1    
   116   57  180 1    
   117   58  181 1    
   118   58  182 1    
   119   58  183 1    
   120   59   60 am   BACKBONE|DICT|INTERRES
   121   59  184 1    
   122   60   61 2    
   123   60   62 1    
   124   62   63 1    
   125   62   64 1    
   126   62  185 1    
   127   63  186 1    
   128   63  187 1    
   129   63  188 1    
   130   64   65 am   BACKBONE|DICT|INTERRES
   131   64  189 1    
   132   65   66 2    
   133   67   68 2    
   134   67   69 am   BACKBONE|DICT|INTERRES
   135   69   70 1    
   136   69  190 1    
   137   70   71 1    
   138   70   72 1    
   139   70  191 1    
   140   71  192 1    
   141   71  193 1    
   142   71  194 1    
   143   72   73 2    
   144   72   74 am   BACKBONE|DICT|INTERRES
   145   74   75 1    
   146   74  195 1    
   147   75   76 1    
   148   75   77 1    
   149   75  196 1    
   150   76  197 1    
   151   76  198 1    
   152   76  199 1    
   153   77   78 2    
   154   77   79 am   BACKBONE|DICT|INTERRES
   155   79   80 1    
   156   79  200 1    
   157   80   81 1    
   158   80   82 1    
   159   80  201 1    
   160   81  202 1    
   161   81  203 1    
   162   81  204 1    
   163   82   83 2    
   164   82   84 am   BACKBONE|DICT|INTERRES
   165   84   85 1    
   166   84  205 1    
   167   85   86 1    
   168   85   87 1    
   169   85  206 1    
   170   86  207 1    
   171   86  208 1    
   172   86  209 1    
   173   87   88 2    
   174   87   89 am   BACKBONE|DICT|INTERRES
   175   89   90 1    
   176   89  210 1    
   177   90   91 1    
   178   90   92 1    
   179   90  211 1    
   180   91  212 1    
   181   91  213 1    
   182   91  214 1    
   183   92   93 2    
   184   92   94 am   BACKBONE|DICT|INTERRES
   185   94   95 1    
   186   94  215 1    
   187   95   96 1    
   188   95   97 1    
   189   95  216 1    
   190   96  217 1    
   191   96  218 1    
   192   96  219 1    
   193   97   98 2    
   194   97   99 am   BACKBONE|DICT|INTERRES
   195   99  100 1    
   196   99  220 1    
   197  100  101 1    
   198  100  102 1    
   199  100  221 1    
   200  101  222 1    
   201  101  223 1    
   202  101  224 1    
   203  102  103 2    
   204  102  104 am   BACKBONE|DICT|INTERRES
   205  104  105 1    
   206  104  225 1    
   207  105  106 1    
   208  105  107 1    
   209  105  226 1    
   210  106  227 1    
   211  106  228 1    
   212  106  229 1    
   213  107  108 2    
   214  107  109 am   BACKBONE|DICT|INTERRES
   215  109  110 1    
   216  109  230 1    
   217  110  111 1    
   218  110  112 1    
   219  110  231 1    
   220  111  232 1    
   221  111  233 1    
   222  111  234 1    
   223  112  113 2    
   224  112  114 am   BACKBONE|DICT|INTERRES
   225  114  115 1    
   226  114  235 1    
   227  115  116 1    
   228  115  117 1    
   229  115  236 1    
   230  116  237 1    
   231  116  238 1    
   232  116  239 1    
   233  117  118 2    
   234  117  119 am   BACKBONE|DICT|INTERRES
   235  119  120 1    
   236  119  240 1    
   237  120  121 1    
   238  120  124 1    
   239  120  241 1    
   240  121  122 am   BACKBONE|DICT|INTERRES
   241  121  123 2    
   242  122  242 1    
   243  122  243 1    
   244  124  125 1    
   245  124  244 1    
   246  124  245 1    
   247  125  126 1    
   248  126  246 1    
   249  126  247 1    
@<TRIPOS>SUBSTRUCTURE
     1 UNK         1 GROUP             0       ****    0 ROOT    
