@<TRIPOS>MOLECULE
3R540
247   249    1
SMALL
USER_CHARGES


@<TRIPOS>ATOM
      1 CA          1.9503  -12.3840  -50.3409 C.3       0 UNK        -0.1800 
      2 C           0.9329  -13.4716  -50.6797 C.2       0 UNK         0.5000 
      3 O           0.3765  -13.4449  -51.7747 O.2       0 UNK        -0.5000 
      4 N           0.6560  -14.4334  -49.7924 N.am      1 UNK        -0.5000 
      5 CA          1.1066  -14.5298  -48.4044 C.3       1 UNK         0.1400 
      6 C6          2.0152  -15.7623  -48.1691 C.3       23 UNK        -0.0398 
      7 S7          3.6819  -15.5425  -48.8680 S.3       23 UNK        -0.2404 
      8 C8          4.3075  -17.2591  -48.8647 C.3       23 UNK        -0.0205 
      9 C9          3.6558  -18.1741  -49.9004 C.ar      23 UNK        -0.0193 
     10 C10         3.3364  -17.7080  -51.1796 C.ar      23 UNK        -0.1150 
     11 C11         2.7662  -18.5564  -52.1332 C.ar      23 UNK        -0.0193 
     12 C12         2.5505  -19.8998  -51.8062 C.ar      23 UNK        -0.1150 
     13 C13         2.8833  -20.3933  -50.5396 C.ar      23 UNK        -0.0193 
     14 C14         3.4296  -19.5197  -49.5929 C.ar      23 UNK        -0.1150 
     15 C15         2.7575  -21.8819  -50.2180 C.3       23 UNK        -0.0205 
     16 S16         1.1598  -22.6351  -50.6837 S.3       23 UNK        -0.2404 
     17 C17         0.0909  -22.2561  -49.2563 C.3       23 UNK        -0.0398 
     18 CA         -0.0179  -23.4393  -48.2636 C.3       11 UNK         0.1400 
     19 N           1.2473  -23.7073  -47.5703 N.am      11 UNK        -0.5000 
     20 C           1.5246  -24.8492  -46.9257 C.2       10 UNK         0.5000 
     21 O           0.7459  -25.7998  -46.8603 O.2       10 UNK        -0.5000 
     22 CA          2.8776  -24.9297  -46.1933 C.3       10 UNK         0.1400 
     23 CB          3.9828  -25.3823  -47.1589 C.3       10 UNK        -0.1800 
     24 N           3.2761  -23.6699  -45.5625 N.am      10 UNK        -0.5000 
     25 C           2.5985  -23.0492  -44.5871 C.2       9 UNK         0.5000 
     26 O           1.5608  -23.4936  -44.0994 O.2       9 UNK        -0.5000 
     27 CA          3.1415  -21.6920  -44.0904 C.3       9 UNK         0.1400 
     28 CB          4.6387  -21.4781  -44.4044 C.3       9 UNK        -0.1800 
     29 N           2.3651  -20.5466  -44.5831 N.am      9 UNK        -0.5000 
     30 C           2.0649  -20.2634  -45.8586 C.2       8 UNK         0.5000 
     31 O           2.2910  -21.0347  -46.7919 O.2       8 UNK        -0.5000 
     32 CA          1.4118  -18.9005  -46.1678 C.3       8 UNK         0.1400 
     33 CB          0.3533  -19.0251  -47.2670 C.3       8 UNK        -0.1800 
     34 N           0.8175  -18.2039  -45.0240 N.am      8 UNK        -0.5000 
     35 C           1.4975  -17.4542  -44.1454 C.2       7 UNK         0.5000 
     36 O           2.7267  -17.3970  -44.1235 O.2       7 UNK        -0.5000 
     37 CA          0.6926  -16.6054  -43.1385 C.3       7 UNK         0.1400 
     38 CB          0.8216  -15.1143  -43.4810 C.3       7 UNK        -0.1800 
     39 N          -0.7303  -16.9396  -43.0844 N.am      7 UNK        -0.5000 
     40 C          -1.2411  -18.0150  -42.4702 C.2       6 UNK         0.5000 
     41 O          -0.5563  -18.8316  -41.8540 O.2       6 UNK        -0.5000 
     42 CA         -2.7681  -18.2241  -42.5619 C.3       6 UNK         0.1400 
     43 CB         -3.4426  -17.8034  -41.2472 C.3       6 UNK        -0.1800 
     44 N          -3.4139  -17.5103  -43.6659 N.am      6 UNK        -0.5000 
     45 C          -3.1632  -17.6775  -44.9727 C.2       5 UNK         0.5000 
     46 O          -2.3524  -18.4922  -45.4104 O.2       5 UNK        -0.5000 
     47 CA         -3.9221  -16.7553  -45.9492 C.3       5 UNK         0.1400 
     48 CB         -5.0869  -17.5133  -46.6058 C.3       5 UNK        -0.1800 
     49 N          -4.4353  -15.5230  -45.3335 N.am      5 UNK        -0.5000 
     50 C          -3.6706  -14.5548  -44.8121 C.2       4 UNK         0.5000 
     51 O          -2.4368  -14.6043  -44.7691 O.2       4 UNK        -0.5000 
     52 CA         -4.3977  -13.3458  -44.2068 C.3       4 UNK         0.1400 
     53 CB         -4.8728  -13.6471  -42.7761 C.3       4 UNK        -0.1800 
     54 N          -3.4450  -12.2463  -44.1818 N.am      4 UNK        -0.5000 
     55 C          -3.6975  -10.9601  -44.4416 C.2       3 UNK         0.5000 
     56 O          -4.8294  -10.4898  -44.5607 O.2       3 UNK        -0.5000 
     57 CA         -2.4615  -10.0565  -44.6409 C.3       3 UNK         0.1400 
     58 CB         -2.0758   -9.3697  -43.3220 C.3       3 UNK        -0.1800 
     59 N          -1.3001  -10.7924  -45.1584 N.am      3 UNK        -0.5000 
     60 C          -1.2343  -11.3485  -46.3771 C.2       2 UNK         0.5000 
     61 O          -2.1076  -11.2097  -47.2345 O.2       2 UNK        -0.5000 
     62 CA         -0.0321  -12.2544  -46.6863 C.3       2 UNK         0.1400 
     63 CB          1.1176  -12.1696  -45.6597 C.3       2 UNK        -0.1800 
     64 N          -0.5475  -13.6182  -46.7561 N.am      2 UNK        -0.5000 
     65 C          -0.1644  -14.6324  -47.5382 C.2       1 UNK         0.5000 
     66 O          -0.8185  -15.6707  -47.5751 O.2       1 UNK        -0.5000 
     67 C          -1.1608  -23.2166  -47.2518 C.2       11 UNK         0.5000 
     68 O          -2.2904  -23.6349  -47.5093 O.2       11 UNK        -0.5000 
     69 N          -0.8369  -22.6124  -46.0988 N.am      12 UNK        -0.5000 
     70 CA         -1.7559  -22.4281  -44.9772 C.3       12 UNK         0.1400 
     71 CB         -1.1639  -21.4280  -43.9756 C.3       12 UNK        -0.1800 
     72 C          -2.0855  -23.7612  -44.2855 C.2       12 UNK         0.5000 
     73 O          -3.2570  -24.0360  -44.0300 O.2       12 UNK        -0.5000 
     74 N          -1.0549  -24.5826  -44.0380 N.am      13 UNK        -0.5000 
     75 CA         -1.1601  -25.9197  -43.4478 C.3       13 UNK         0.1400 
     76 CB          0.2488  -26.4680  -43.1770 C.3       13 UNK        -0.1800 
     77 C          -1.9671  -26.9026  -44.3166 C.2       13 UNK         0.5000 
     78 O          -2.7197  -27.7150  -43.7783 O.2       13 UNK        -0.5000 
     79 N          -1.8280  -26.7819  -45.6437 N.am      14 UNK        -0.5000 
     80 CA         -2.6142  -27.5136  -46.6386 C.3       14 UNK         0.1400 
     81 CB         -1.9007  -27.4149  -47.9968 C.3       14 UNK        -0.1800 
     82 C          -4.0685  -27.0132  -46.7684 C.2       14 UNK         0.5000 
     83 O          -4.8753  -27.6932  -47.4038 O.2       14 UNK        -0.5000 
     84 N          -4.3681  -25.8333  -46.2004 N.am      15 UNK        -0.5000 
     85 CA         -5.6213  -25.0769  -46.3105 C.3       15 UNK         0.1400 
     86 CB         -6.7811  -25.8227  -45.6190 C.3       15 UNK        -0.1800 
     87 C          -5.9392  -24.6729  -47.7662 C.2       15 UNK         0.5000 
     88 O          -7.1060  -24.6093  -48.1589 O.2       15 UNK        -0.5000 
     89 N          -4.8840  -24.4136  -48.5463 N.am      16 UNK        -0.5000 
     90 CA         -4.9373  -24.0857  -49.9621 C.3       16 UNK         0.1400 
     91 CB         -3.7362  -24.7493  -50.6580 C.3       16 UNK        -0.1800 
     92 C          -4.9436  -22.5590  -50.1143 C.2       16 UNK         0.5000 
     93 O          -3.9093  -21.9623  -50.4147 O.2       16 UNK        -0.5000 
     94 N          -6.1117  -21.9458  -49.8825 N.am      17 UNK        -0.5000 
     95 CA         -6.3220  -20.4945  -49.9182 C.3       17 UNK         0.1400 
     96 CB         -7.7768  -20.1813  -49.5406 C.3       17 UNK        -0.1800 
     97 C          -5.9581  -19.8424  -51.2668 C.2       17 UNK         0.5000 
     98 O          -5.4103  -18.7412  -51.2800 O.2       17 UNK        -0.5000 
     99 N          -6.2219  -20.5519  -52.3730 N.am      18 UNK        -0.5000 
    100 CA        -5.8541  -20.1337  -53.7274 C.3       18 UNK         0.1400 
    101 CB        -6.5686  -21.0333  -54.7465 C.3       18 UNK        -0.1800 
    102 C         -4.3323  -20.1493  -53.9674 C.2       18 UNK         0.5000 
    103 O         -3.8248  -19.2920  -54.6923 O.2       18 UNK        -0.5000 
    104 N         -3.6324  -21.1063  -53.3409 N.am      19 UNK        -0.5000 
    105 CA        -2.1753  -21.2176  -53.3802 C.3       19 UNK         0.1400 
    106 CB        -1.7436  -22.6458  -53.0202 C.3       19 UNK        -0.1800 
    107 C         -1.5118  -20.1894  -52.4519 C.2       19 UNK         0.5000 
    108 O         -0.5034  -19.6076  -52.8374 O.2       19 UNK        -0.5000 
    109 N         -2.1185  -19.9348  -51.2838 N.am      20 UNK        -0.5000 
    110 CA        -1.7192  -18.8906  -50.3365 C.3       20 UNK         0.1400 
    111 CB        -2.5581  -19.0278  -49.0574 C.3       20 UNK        -0.1800 
    112 C         -1.8479  -17.4703  -50.9214 C.2       20 UNK         0.5000 
    113 O         -0.9926  -16.6240  -50.6681 O.2       20 UNK        -0.5000 
    114 N         -2.8951  -17.2520  -51.7289 N.am      21 UNK        -0.5000 
    115 CA        -3.1018  -16.0483  -52.5376 C.3       21 UNK         0.1400 
    116 CB        -4.5911  -15.9597  -52.9076 C.3       21 UNK        -0.1800 
    117 C         -2.2240  -16.0065  -53.8088 C.2       21 UNK         0.5000 
    118 O         -2.1988  -14.9790  -54.4882 O.2       21 UNK        -0.5000 
    119 N         -1.5340  -17.1138  -54.1088 N.am      22 UNK        -0.5000 
    120 CA        -0.6004  -17.3087  -55.2278 C.3       22 UNK         0.1400 
    121 C         -1.2768  -17.2654  -56.6292 C.2       22 UNK         0.5000 
    122 N         -2.5147  -17.7283  -56.7595 N.am      22 UNK        -0.7600 
    123 O         -0.6793  -16.8330  -57.6118 O.2       22 UNK        -0.5000 
    124 C124        0.6840  -16.4360  -55.1209 C.3       23 UNK        -0.0398 
    125 S125        1.4558  -16.4866  -53.4644 S.3       23 UNK        -0.2404 
    126 C126        2.4149  -18.0365  -53.5251 C.3       23 UNK        -0.0205 
    127 H127        1.5263  -11.6588  -49.6479 H         1 UNK         0.0600 
    128 H128        2.2452  -11.8478  -51.2431 H         1 UNK         0.0600 
    129 H129        2.8555  -12.8059  -49.9052 H         1 UNK         0.0600 
    130 H130        0.0003  -15.1663  -50.0627 H         1 UNK         0.3000 
    131 H131        1.6746  -13.6518  -48.1075 H         1 UNK         0.0600 
    132 H132        1.5613  -16.6586  -48.5962 H         1 UNK         0.0800 
    133 H133        2.1376  -15.9492  -47.1007 H         1 UNK         0.0800 
    134 H134        5.3791  -17.2331  -49.0650 H         1 UNK         0.0800 
    135 H135        4.1943  -17.6713  -47.8611 H         1 UNK         0.0800 
    136 H136        3.5285  -16.6767  -51.4387 H         1 UNK         0.1150 
    137 H137        2.1345  -20.5693  -52.5458 H         1 UNK         0.1150 
    138 H138        3.7132  -19.8971  -48.6211 H         1 UNK         0.1150 
    139 H139        3.5448  -22.4044  -50.7623 H         1 UNK         0.0800 
    140 H140        2.9518  -22.0700  -49.1623 H         1 UNK         0.0800 
    141 H141       -0.8934  -22.0008  -49.6536 H         1 UNK         0.0800 
    142 H142        0.4609  -21.3644  -48.7589 H         1 UNK         0.0800 
    143 H143       -0.2816  -24.3300  -48.8385 H         1 UNK         0.0600 
    144 H144        1.9017  -22.9350  -47.5070 H         1 UNK         0.3000 
    145 H145        2.7832  -25.6803  -45.4062 H         1 UNK         0.0600 
    146 H146        4.9288  -25.5262  -46.6367 H         1 UNK         0.0600 
    147 H147        3.7248  -26.3321  -47.6295 H         1 UNK         0.0600 
    148 H148        4.1448  -24.6547  -47.9552 H         1 UNK         0.0600 
    149 H149        4.1004  -23.2192  -45.9314 H         1 UNK         0.3000 
    150 H150        3.0298  -21.7000  -43.0052 H         1 UNK         0.0600 
    151 H151        5.2429  -22.3068  -44.0328 H         1 UNK         0.0600 
    152 H152        5.0083  -20.5725  -43.9230 H         1 UNK         0.0600 
    153 H153        4.8277  -21.3783  -45.4739 H         1 UNK         0.0600 
    154 H154        2.1097  -19.8604  -43.8875 H         1 UNK         0.3000 
    155 H155        2.2113  -18.2727  -46.5625 H         1 UNK         0.0600 
    156 H156       -0.3830  -19.7956  -47.0365 H         1 UNK         0.0600 
    157 H157        0.8192  -19.2612  -48.2226 H         1 UNK         0.0600 
    158 H158       -0.1802  -18.0889  -47.4053 H         1 UNK         0.0600 
    159 H159       -0.1952  -18.2106  -44.9778 H         1 UNK         0.3000 
    160 H160        1.1285  -16.7681  -42.1506 H         1 UNK         0.0600 
    161 H161        0.3991  -14.8993  -44.4618 H         1 UNK         0.0600 
    162 H162        1.8659  -14.7996  -43.4956 H         1 UNK         0.0600 
    163 H163        0.3044  -14.4927  -42.7499 H         1 UNK         0.0600 
    164 H164       -1.3582  -16.3189  -43.5800 H         1 UNK         0.3000 
    165 H165       -2.9480  -19.2889  -42.7111 H         1 UNK         0.0600 
    166 H166       -4.5097  -18.0262  -41.2611 H         1 UNK         0.0600 
    167 H167       -3.0128  -18.3366  -40.3981 H         1 UNK         0.0600 
    168 H168       -3.3239  -16.7355  -41.0588 H         1 UNK         0.0600 
    169 H169       -4.0969  -16.8145  -43.4077 H         1 UNK         0.3000 
    170 H170       -3.2181  -16.4701  -46.7327 H         1 UNK         0.0600 
    171 H171       -4.7440  -18.4438  -47.0598 H         1 UNK         0.0600 
    172 H172       -5.8595  -17.7703  -45.8802 H         1 UNK         0.0600 
    173 H173       -5.5484  -16.9202  -47.3955 H         1 UNK         0.0600 
    174 H174       -5.4393  -15.4128  -45.3248 H         1 UNK         0.3000 
    175 H175       -5.2500  -13.0929  -44.8409 H         1 UNK         0.0600 
    176 H176       -4.0429  -13.9324  -42.1281 H         1 UNK         0.0600 
    177 H177       -5.3584  -12.7776  -42.3328 H         1 UNK         0.0600 
    178 H178       -5.5962  -14.4632  -42.7653 H         1 UNK         0.0600 
    179 H179       -2.4815  -12.5514  -44.1397 H         1 UNK         0.3000 
    180 H180       -2.7281   -9.2844  -45.3657 H         1 UNK         0.0600 
    181 H181       -1.2453   -8.6782  -43.4652 H         1 UNK         0.0600 
    182 H182       -1.7839  -10.0940  -42.5605 H         1 UNK         0.0600 
    183 H183       -2.9120   -8.7935  -42.9234 H         1 UNK         0.0600 
    184 H184       -0.5371  -10.9427  -44.5143 H         1 UNK         0.3000 
    185 H185        0.3331  -11.9386  -47.6632 H         1 UNK         0.0600 
    186 H186        1.9474  -12.8211  -45.9322 H         1 UNK         0.0600 
    187 H187        1.5152  -11.1556  -45.6022 H         1 UNK         0.0600 
    188 H188        0.7962  -12.4585  -44.6590 H         1 UNK         0.0600 
    189 H189       -1.3623  -13.7878  -46.1751 H         1 UNK         0.3000 
    190 H190        0.1276  -22.3585  -45.9433 H         1 UNK         0.3000 
    191 H191       -2.6864  -22.0071  -45.3647 H         1 UNK         0.0600 
    192 H192       -1.8560  -21.2560  -43.1521 H         1 UNK         0.0600 
    193 H193       -0.9647  -20.4681  -44.4477 H         1 UNK         0.0600 
    194 H194       -0.2317  -21.7790  -43.5369 H         1 UNK         0.0600 
    195 H195       -0.1126  -24.2457  -44.2238 H         1 UNK         0.3000 
    196 H196       -1.6781  -25.8199  -42.4919 H         1 UNK         0.0600 
    197 H197        0.8226  -26.5724  -44.0982 H         1 UNK         0.0600 
    198 H198        0.8060  -25.8113  -42.5086 H         1 UNK         0.0600 
    199 H199        0.2024  -27.4502  -42.7049 H         1 UNK         0.0600 
    200 H200       -1.1271  -26.1430  -46.0034 H         1 UNK         0.3000 
    201 H201       -2.6526  -28.5649  -46.3463 H         1 UNK         0.0600 
    202 H202       -1.8242  -26.3808  -48.3351 H         1 UNK         0.0600 
    203 H203       -2.4373  -27.9723  -48.7656 H         1 UNK         0.0600 
    204 H204       -0.8924  -27.8256  -47.9438 H         1 UNK         0.0600 
    205 H205       -3.6378  -25.3639  -45.6795 H         1 UNK         0.3000 
    206 H206       -5.4609  -24.1441  -45.7685 H         1 UNK         0.0600 
    207 H207       -6.5204  -26.0913  -44.5953 H         1 UNK         0.0600 
    208 H208       -7.6738  -25.1981  -45.5724 H         1 UNK         0.0600 
    209 H209       -7.0502  -26.7369  -46.1484 H         1 UNK         0.0600 
    210 H210       -3.9617  -24.3719  -48.1200 H         1 UNK         0.3000 
    211 H211       -5.8488  -24.4830  -50.4137 H         1 UNK         0.0600 
    212 H212       -3.7409  -24.5388  -51.7276 H         1 UNK         0.0600 
    213 H213       -3.7663  -25.8327  -50.5408 H         1 UNK         0.0600 
    214 H214       -2.7862  -24.3999  -50.2512 H         1 UNK         0.0600 
    215 H215       -6.9026  -22.5121  -49.6063 H         1 UNK         0.3000 
    216 H216       -5.6759  -20.0550  -49.1564 H         1 UNK         0.0600 
    217 H217       -8.4809  -20.6284  -50.2434 H         1 UNK         0.0600 
    218 H218       -7.9557  -19.1051  -49.5352 H         1 UNK         0.0600 
    219 H219       -8.0145  -20.5534  -48.5438 H         1 UNK         0.0600 
    220 H220       -6.6775  -21.4473  -52.2758 H         1 UNK         0.3000 
    221 H221       -6.2016  -19.1088  -53.8743 H         1 UNK         0.0600 
    222 H222       -7.6513  -20.9718  -54.6359 H         1 UNK         0.0600 
    223 H223       -6.2776  -22.0787  -54.6363 H         1 UNK         0.0600 
    224 H224       -6.3297  -20.7319  -55.7674 H         1 UNK         0.0600 
    225 H225       -4.1146  -21.7274  -52.7074 H         1 UNK         0.3000 
    226 H226       -1.8417  -21.0162  -54.4007 H         1 UNK         0.0600 
    227 H227       -1.9307  -22.8726  -51.9714 H         1 UNK         0.0600 
    228 H228       -2.2640  -23.3859  -53.6278 H         1 UNK         0.0600 
    229 H229       -0.6748  -22.7772  -53.1921 H         1 UNK         0.0600 
    230 H230       -2.9096  -20.5157  -51.0172 H         1 UNK         0.3000 
    231 H231       -0.6688  -19.0520  -50.0879 H         1 UNK         0.0600 
    232 H232       -3.6207  -18.9156  -49.2647 H         1 UNK         0.0600 
    233 H233       -2.2933  -18.2601  -48.3305 H         1 UNK         0.0600 
    234 H234       -2.4087  -19.9979  -48.5829 H         1 UNK         0.0600 
    235 H235       -3.6024  -17.9748  -51.8102 H         1 UNK         0.3000 
    236 H236       -2.8447  -15.1748  -51.9348 H         1 UNK         0.0600 
    237 H237       -5.2185  -15.9386  -52.0164 H         1 UNK         0.0600 
    238 H238       -4.8022  -15.0528  -53.4753 H         1 UNK         0.0600 
    239 H239       -4.9025  -16.8093  -53.5165 H         1 UNK         0.0600 
    240 H240       -1.5899  -17.8959  -53.4707 H         1 UNK         0.3000 
    241 H241       -0.2712  -18.3433  -55.1397 H         1 UNK         0.0600 
    242 H242       -2.9608  -17.7092  -57.6623 H         1 UNK         0.3800 
    243 H243       -2.9965  -18.1479  -55.9675 H         1 UNK         0.3800 
    244 H244        0.4474  -15.3949  -55.3451 H         1 UNK         0.0800 
    245 H245        1.4227  -16.7465  -55.8614 H         1 UNK         0.0800 
    246 H246        3.3325  -17.8712  -54.0904 H         1 UNK         0.0800 
    247 H247        1.8419  -18.7884  -54.0686 H         1 UNK         0.0800 
@<TRIPOS>BOND
     1    1    2 1    
     2    1  127 1    
     3    1  128 1    
     4    1  129 1    
     5    2    3 2    
     6    2    4 am   BACKBONE|DICT|INTERRES
     7    4    5 1    
     8    4  130 1    
     9    5    6 1    
    10    5   65 1    
    11    5  131 1    
    12    6    7 1    
    13    6  132 1    
    14    6  133 1    
    15    7    8 1    
    16    8    9 1    
    17    8  134 1    
    18    8  135 1    
    19    9   10 ar   
    20    9   14 ar   
    21   10   11 ar   
    22   10  136 1    
    23   11   12 ar   
    24   11  126 1    
    25   12   13 ar   
    26   12  137 1    
    27   13   14 ar   
    28   13   15 1    
    29   14  138 1    
    30   15   16 1    
    31   15  139 1    
    32   15  140 1    
    33   16   17 1    
    34   17   18 1    
    35   17  141 1    
    36   17  142 1    
    37   18   19 1    
    38   18   67 1    
    39   18  143 1    
    40   19   20 am   BACKBONE|DICT|INTERRES
    41   19  144 1    
    42   20   21 2    
    43   20   22 1    
    44   22   23 1    
    45   22   24 1    
    46   22  145 1    
    47   23  146 1    
    48   23  147 1    
    49   23  148 1    
    50   24   25 am   BACKBONE|DICT|INTERRES
    51   24  149 1    
    52   25   26 2    
    53   25   27 1    
    54   27   28 1    
    55   27   29 1    
    56   27  150 1    
    57   28  151 1    
    58   28  152 1    
    59   28  153 1    
    60   29   30 am   BACKBONE|DICT|INTERRES
    61   29  154 1    
    62   30   31 2    
    63   30   32 1    
    64   32   33 1    
    65   32   34 1    
    66   32  155 1    
    67   33  156 1    
    68   33  157 1    
    69   33  158 1    
    70   34   35 am   BACKBONE|DICT|INTERRES
    71   34  159 1    
    72   35   36 2    
    73   35   37 1    
    74   37   38 1    
    75   37   39 1    
    76   37  160 1    
    77   38  161 1    
    78   38  162 1    
    79   38  163 1    
    80   39   40 am   BACKBONE|DICT|INTERRES
    81   39  164 1    
    82   40   41 2    
    83   40   42 1    
    84   42   43 1    
    85   42   44 1    
    86   42  165 1    
    87   43  166 1    
    88   43  167 1    
    89   43  168 1    
    90   44   45 am   BACKBONE|DICT|INTERRES
    91   44  169 1    
    92   45   46 2    
    93   45   47 1    
    94   47   48 1    
    95   47   49 1    
    96   47  170 1    
    97   48  171 1    
    98   48  172 1    
    99   48  173 1    
   100   49   50 am   BACKBONE|DICT|INTERRES
   101   49  174 1    
   102   50   51 2    
   103   50   52 1    
   104   52   53 1    
   105   52   54 1    
   106   52  175 1    
   107   53  176 1    
   108   53  177 1    
   109   53  178 1    
   110   54   55 am   BACKBONE|DICT|INTERRES
   111   54  179 1    
   112   55   56 2    
   113   55   57 1    
   114   57   58 1    
   115   57   59 1    
   116   57  180 1    
   117   58  181 1    
   118   58  182 1    
   119   58  183 1    
   120   59   60 am   BACKBONE|DICT|INTERRES
   121   59  184 1    
   122   60   61 2    
   123   60   62 1    
   124   62   63 1    
   125   62   64 1    
   126   62  185 1    
   127   63  186 1    
   128   63  187 1    
   129   63  188 1    
   130   64   65 am   BACKBONE|DICT|INTERRES
   131   64  189 1    
   132   65   66 2    
   133   67   68 2    
   134   67   69 am   BACKBONE|DICT|INTERRES
   135   69   70 1    
   136   69  190 1    
   137   70   71 1    
   138   70   72 1    
   139   70  191 1    
   140   71  192 1    
   141   71  193 1    
   142   71  194 1    
   143   72   73 2    
   144   72   74 am   BACKBONE|DICT|INTERRES
   145   74   75 1    
   146   74  195 1    
   147   75   76 1    
   148   75   77 1    
   149   75  196 1    
   150   76  197 1    
   151   76  198 1    
   152   76  199 1    
   153   77   78 2    
   154   77   79 am   BACKBONE|DICT|INTERRES
   155   79   80 1    
   156   79  200 1    
   157   80   81 1    
   158   80   82 1    
   159   80  201 1    
   160   81  202 1    
   161   81  203 1    
   162   81  204 1    
   163   82   83 2    
   164   82   84 am   BACKBONE|DICT|INTERRES
   165   84   85 1    
   166   84  205 1    
   167   85   86 1    
   168   85   87 1    
   169   85  206 1    
   170   86  207 1    
   171   86  208 1    
   172   86  209 1    
   173   87   88 2    
   174   87   89 am   BACKBONE|DICT|INTERRES
   175   89   90 1    
   176   89  210 1    
   177   90   91 1    
   178   90   92 1    
   179   90  211 1    
   180   91  212 1    
   181   91  213 1    
   182   91  214 1    
   183   92   93 2    
   184   92   94 am   BACKBONE|DICT|INTERRES
   185   94   95 1    
   186   94  215 1    
   187   95   96 1    
   188   95   97 1    
   189   95  216 1    
   190   96  217 1    
   191   96  218 1    
   192   96  219 1    
   193   97   98 2    
   194   97   99 am   BACKBONE|DICT|INTERRES
   195   99  100 1    
   196   99  220 1    
   197  100  101 1    
   198  100  102 1    
   199  100  221 1    
   200  101  222 1    
   201  101  223 1    
   202  101  224 1    
   203  102  103 2    
   204  102  104 am   BACKBONE|DICT|INTERRES
   205  104  105 1    
   206  104  225 1    
   207  105  106 1    
   208  105  107 1    
   209  105  226 1    
   210  106  227 1    
   211  106  228 1    
   212  106  229 1    
   213  107  108 2    
   214  107  109 am   BACKBONE|DICT|INTERRES
   215  109  110 1    
   216  109  230 1    
   217  110  111 1    
   218  110  112 1    
   219  110  231 1    
   220  111  232 1    
   221  111  233 1    
   222  111  234 1    
   223  112  113 2    
   224  112  114 am   BACKBONE|DICT|INTERRES
   225  114  115 1    
   226  114  235 1    
   227  115  116 1    
   228  115  117 1    
   229  115  236 1    
   230  116  237 1    
   231  116  238 1    
   232  116  239 1    
   233  117  118 2    
   234  117  119 am   BACKBONE|DICT|INTERRES
   235  119  120 1    
   236  119  240 1    
   237  120  121 1    
   238  120  124 1    
   239  120  241 1    
   240  121  122 am   BACKBONE|DICT|INTERRES
   241  121  123 2    
   242  122  242 1    
   243  122  243 1    
   244  124  125 1    
   245  124  244 1    
   246  124  245 1    
   247  125  126 1    
   248  126  246 1    
   249  126  247 1    
@<TRIPOS>SUBSTRUCTURE
     1 UNK         1 GROUP             0       ****    0 ROOT    
