@<TRIPOS>MOLECULE
3R540
247   249    1
SMALL
USER_CHARGES


@<TRIPOS>ATOM
      1 CA         -2.0669  -11.6912  -49.7751 C.3       0 UNK        -0.1800 
      2 C          -1.4621  -12.4765  -48.6207 C.2       0 UNK         0.5000 
      3 O          -1.6009  -12.0738  -47.4657 O.2       0 UNK        -0.5000 
      4 N          -0.8058  -13.6052  -48.9243 N.am      1 UNK        -0.5000 
      5 CA         -0.1118  -14.4724  -47.9593 C.3       1 UNK         0.1400 
      6 C6          0.7089  -15.5857  -48.6518 C.3       23 UNK        -0.0398 
      7 S7          1.9545  -14.9515  -49.8251 S.3       23 UNK        -0.2404 
      8 C8          1.6107  -15.9495  -51.3195 C.3       23 UNK        -0.0205 
      9 C9          1.6607  -17.4644  -51.1104 C.ar      23 UNK        -0.0193 
     10 C10         0.8032  -18.2842  -51.8516 C.ar      23 UNK        -0.1150 
     11 C11         0.8053  -19.6706  -51.6713 C.ar      23 UNK        -0.0193 
     12 C12         1.6829  -20.2414  -50.7454 C.ar      23 UNK        -0.1150 
     13 C13         2.5573  -19.4395  -50.0076 C.ar      23 UNK        -0.0193 
     14 C14         2.5462  -18.0554  -50.2006 C.ar      23 UNK        -0.1150 
     15 C15         3.5187  -20.0615  -49.0059 C.3       23 UNK        -0.0205 
     16 S16         2.6476  -20.7019  -47.5417 S.3       23 UNK        -0.2404 
     17 C17         2.7344  -22.5000  -47.8416 C.3       23 UNK        -0.0398 
     18 CA          1.7604  -23.3541  -46.9912 C.3       11 UNK         0.1400 
     19 N           1.9683  -23.1642  -45.5537 N.am      11 UNK        -0.5000 
     20 C           2.5138  -24.0608  -44.7244 C.2       10 UNK         0.5000 
     21 O           2.9338  -25.1624  -45.0859 O.2       10 UNK        -0.5000 
     22 CA          2.6118  -23.6379  -43.2445 C.3       10 UNK         0.1400 
     23 CB          3.2036  -24.7281  -42.3268 C.3       10 UNK        -0.1800 
     24 N           3.3274  -22.3707  -43.0846 N.am      10 UNK        -0.5000 
     25 C           4.6028  -22.0911  -43.3884 C.2       9 UNK         0.5000 
     26 O           5.4130  -22.9182  -43.8079 O.2       9 UNK        -0.5000 
     27 CA          5.0557  -20.6291  -43.1939 C.3       9 UNK         0.1400 
     28 CB          5.0466  -19.8882  -44.5392 C.3       9 UNK        -0.1800 
     29 N           4.2356  -19.8840  -42.2339 N.am      9 UNK        -0.5000 
     30 C           4.2599  -20.0659  -40.9055 C.2       8 UNK         0.5000 
     31 O           5.0200  -20.8503  -40.3366 O.2       8 UNK        -0.5000 
     32 CA          3.2434  -19.2571  -40.0759 C.3       8 UNK         0.1400 
     33 CB          3.7377  -17.8217  -39.8395 C.3       8 UNK        -0.1800 
     34 N           1.9203  -19.2207  -40.6995 N.am      8 UNK        -0.5000 
     35 C           1.1117  -20.2821  -40.8326 C.2       7 UNK         0.5000 
     36 O           1.3608  -21.3970  -40.3747 O.2       7 UNK        -0.5000 
     37 CA         -0.1652  -20.0765  -41.6652 C.3       7 UNK         0.1400 
     38 CB         -1.3063  -19.4959  -40.8165 C.3       7 UNK        -0.1800 
     39 N           0.0852  -19.2163  -42.8217 N.am      7 UNK        -0.5000 
     40 C           0.7581  -19.6120  -43.9106 C.2       6 UNK         0.5000 
     41 O           1.1598  -20.7612  -44.0805 O.2       6 UNK        -0.5000 
     42 CA          1.0416  -18.5563  -44.9884 C.3       6 UNK         0.1400 
     43 CB         -0.0454  -18.6101  -46.0609 C.3       6 UNK        -0.1800 
     44 N           1.1434  -17.1965  -44.4656 N.am      6 UNK        -0.5000 
     45 C           2.1492  -16.7572  -43.7005 C.2       5 UNK         0.5000 
     46 O           3.0994  -17.4588  -43.3551 O.2       5 UNK        -0.5000 
     47 CA          2.0385  -15.3116  -43.1841 C.3       5 UNK         0.1400 
     48 CB          2.4387  -14.3052  -44.2736 C.3       5 UNK        -0.1800 
     49 N           0.7044  -14.9812  -42.6748 N.am      5 UNK        -0.5000 
     50 C           0.0843  -15.6150  -41.6717 C.2       4 UNK         0.5000 
     51 O           0.5681  -16.5902  -41.0956 O.2       4 UNK        -0.5000 
     52 CA         -1.3078  -15.1164  -41.2319 C.3       4 UNK         0.1400 
     53 CB         -1.1999  -14.2556  -39.9594 C.3       4 UNK        -0.1800 
     54 N          -2.1142  -14.4401  -42.2586 N.am      4 UNK        -0.5000 
     55 C          -1.9194  -13.2612  -42.8644 C.2       3 UNK         0.5000 
     56 O          -0.9100  -12.5719  -42.7108 O.2       3 UNK        -0.5000 
     57 CA         -3.0386  -12.8052  -43.8272 C.3       3 UNK         0.1400 
     58 CB         -2.8673  -11.3455  -44.2831 C.3       3 UNK        -0.1800 
     59 N          -3.1090  -13.6613  -45.0104 N.am      3 UNK        -0.5000 
     60 C          -3.5914  -14.9125  -45.0433 C.2       2 UNK         0.5000 
     61 O          -4.1372  -15.4508  -44.0787 O.2       2 UNK        -0.5000 
     62 CA         -3.4086  -15.7142  -46.3499 C.3       2 UNK         0.1400 
     63 CB         -4.7253  -15.7643  -47.1401 C.3       2 UNK        -0.1800 
     64 N          -2.3510  -15.2050  -47.2273 N.am      2 UNK        -0.5000 
     65 C          -1.0529  -15.0988  -46.9067 C.2       1 UNK         0.5000 
     66 O          -0.5934  -15.4524  -45.8212 O.2       1 UNK        -0.5000 
     67 C           0.2770  -23.1382  -47.3560 C.2       11 UNK         0.5000 
     68 O          -0.5029  -22.6489  -46.5347 O.2       11 UNK        -0.5000 
     69 N          -0.0887  -23.5389  -48.5843 N.am      12 UNK        -0.5000 
     70 CA         -1.4605  -23.6717  -49.0937 C.3       12 UNK         0.1400 
     71 CB         -1.4085  -24.1290  -50.5601 C.3       12 UNK        -0.1800 
     72 C          -2.3612  -22.4306  -48.9631 C.2       12 UNK         0.5000 
     73 O          -3.5770  -22.5826  -48.8393 O.2       12 UNK        -0.5000 
     74 N          -1.7703  -21.2277  -48.9609 N.am      13 UNK        -0.5000 
     75 CA         -2.4816  -19.9633  -48.7533 C.3       13 UNK         0.1400 
     76 CB         -1.5708  -18.7788  -49.1091 C.3       13 UNK        -0.1800 
     77 C          -3.1419  -19.8189  -47.3674 C.2       13 UNK         0.5000 
     78 O          -4.0570  -19.0085  -47.2293 O.2       13 UNK        -0.5000 
     79 N          -2.7468  -20.6505  -46.3907 N.am      14 UNK        -0.5000 
     80 CA         -3.4074  -20.7808  -45.0887 C.3       14 UNK         0.1400 
     81 CB         -2.5916  -21.7373  -44.2079 C.3       14 UNK        -0.1800 
     82 C          -4.8699  -21.2685  -45.1865 C.2       14 UNK         0.5000 
     83 O          -5.6600  -20.9867  -44.2858 O.2       14 UNK        -0.5000 
     84 N          -5.2124  -21.9652  -46.2814 N.am      15 UNK        -0.5000 
     85 CA         -6.5682  -22.4181  -46.5991 C.3       15 UNK         0.1400 
     86 CB         -6.4742  -23.6844  -47.4667 C.3       15 UNK        -0.1800 
     87 C          -7.4197  -21.3393  -47.3031 C.2       15 UNK         0.5000 
     88 O          -8.5684  -21.6204  -47.6461 O.2       15 UNK        -0.5000 
     89 N          -6.8493  -20.1487  -47.5493 N.am      16 UNK        -0.5000 
     90 CA         -7.4208  -18.9579  -48.1969 C.3       16 UNK         0.1400 
     91 CB         -8.6661  -18.4465  -47.4488 C.3       16 UNK        -0.1800 
     92 C          -7.6938  -19.1046  -49.7081 C.2       16 UNK         0.5000 
     93 O          -7.4901  -18.1404  -50.4460 O.2       16 UNK        -0.5000 
     94 N          -8.1112  -20.2974  -50.1549 N.am      17 UNK        -0.5000 
     95 CA         -8.2780  -20.6645  -51.5660 C.3       17 UNK         0.1400 
     96 CB         -8.9840  -22.0256  -51.6521 C.3       17 UNK        -0.1800 
     97 C          -6.9383  -20.7019  -52.3278 C.2       17 UNK         0.5000 
     98 O          -6.8985  -20.3991  -53.5219 O.2       17 UNK        -0.5000 
     99 N          -5.8651  -21.0533  -51.6027 N.am      18 UNK        -0.5000 
    100 CA        -4.4547  -20.9266  -51.9774 C.3       18 UNK         0.1400 
    101 CB        -4.0835  -19.4327  -52.0981 C.3       18 UNK        -0.1800 
    102 C         -4.0192  -21.7332  -53.2141 C.2       18 UNK         0.5000 
    103 O         -2.9839  -21.4134  -53.7927 O.2       18 UNK        -0.5000 
    104 N         -4.8049  -22.7441  -53.6147 N.am      19 UNK        -0.5000 
    105 CA        -4.5993  -23.5809  -54.8051 C.3       19 UNK         0.1400 
    106 CB        -3.4009  -24.5296  -54.5880 C.3       19 UNK        -0.1800 
    107 C         -4.4790  -22.7447  -56.1011 C.2       19 UNK         0.5000 
    108 O         -3.5862  -22.9884  -56.9145 O.2       19 UNK        -0.5000 
    109 N         -5.3632  -21.7416  -56.2314 N.am      20 UNK        -0.5000 
    110 CA        -5.3732  -20.6999  -57.2660 C.3       20 UNK         0.1400 
    111 CB        -5.6059  -21.2971  -58.6703 C.3       20 UNK        -0.1800 
    112 C         -4.1229  -19.7990  -57.1785 C.2       20 UNK         0.5000 
    113 O         -3.4093  -19.6132  -58.1672 O.2       20 UNK        -0.5000 
    114 N         -3.8769  -19.2796  -55.9653 N.am      21 UNK        -0.5000 
    115 CA        -2.7749  -18.3860  -55.5797 C.3       21 UNK         0.1400 
    116 CB        -2.9727  -16.9928  -56.2116 C.3       21 UNK        -0.1800 
    117 C         -1.3711  -18.9706  -55.8505 C.2       21 UNK         0.5000 
    118 O         -0.4366  -18.2203  -56.1368 O.2       21 UNK        -0.5000 
    119 N         -1.2564  -20.3022  -55.7602 N.am      22 UNK        -0.5000 
    120 CA        -0.0601  -21.1056  -56.0554 C.3       22 UNK         0.1400 
    121 C          0.4580  -20.9793  -57.5241 C.2       22 UNK         0.5000 
    122 N         -0.3646  -20.5603  -58.4805 N.am      22 UNK        -0.7600 
    123 O          1.6072  -21.2988  -57.8171 O.2       22 UNK        -0.5000 
    124 C124        1.0445  -20.9329  -54.9701 C.3       23 UNK        -0.0398 
    125 S125        0.6208  -21.8298  -53.4365 S.3       23 UNK        -0.2404 
    126 C126       -0.1832  -20.5441  -52.4284 C.3       23 UNK        -0.0205 
    127 H127       -1.6483  -10.6852  -49.8034 H         1 UNK         0.0600 
    128 H128       -1.8723  -12.1679  -50.7362 H         1 UNK         0.0600 
    129 H129       -3.1463  -11.6091  -49.6478 H         1 UNK         0.0600 
    130 H130       -0.7130  -13.8744  -49.8933 H         1 UNK         0.3000 
    131 H131        0.5864  -13.8380  -47.4091 H         1 UNK         0.0600 
    132 H132        0.0428  -16.2801  -49.1658 H         1 UNK         0.0800 
    133 H133        1.2523  -16.1732  -47.9099 H         1 UNK         0.0800 
    134 H134        2.3365  -15.6841  -52.0889 H         1 UNK         0.0800 
    135 H135        0.6327  -15.6570  -51.7049 H         1 UNK         0.0800 
    136 H136        0.1178  -17.8392  -52.5594 H         1 UNK         0.1150 
    137 H137        1.6808  -21.3116  -50.5994 H         1 UNK         0.1150 
    138 H138        3.2258  -17.4372  -49.6320 H         1 UNK         0.1150 
    139 H139        4.0935  -20.8517  -49.4905 H         1 UNK         0.0800 
    140 H140        4.2488  -19.3232  -48.6712 H         1 UNK         0.0800 
    141 H141        3.7571  -22.8161  -47.6309 H         1 UNK         0.0800 
    142 H142        2.5843  -22.6968  -48.9035 H         1 UNK         0.0800 
    143 H143        1.9588  -24.3984  -47.2407 H         1 UNK         0.0600 
    144 H144        1.6080  -22.2930  -45.1701 H         1 UNK         0.3000 
    145 H145        1.5897  -23.4516  -42.9108 H         1 UNK         0.0600 
    146 H146        3.2266  -24.3961  -41.2887 H         1 UNK         0.0600 
    147 H147        2.6009  -25.6361  -42.3643 H         1 UNK         0.0600 
    148 H148        4.2195  -24.9992  -42.6148 H         1 UNK         0.0600 
    149 H149        2.7386  -21.5885  -42.8302 H         1 UNK         0.3000 
    150 H150        6.0828  -20.6489  -42.8238 H         1 UNK         0.0600 
    151 H151        5.6757  -20.3948  -45.2720 H         1 UNK         0.0600 
    152 H152        5.4221  -18.8703  -44.4339 H         1 UNK         0.0600 
    153 H153        4.0410  -19.8332  -44.9546 H         1 UNK         0.0600 
    154 H154        3.6402  -19.1536  -42.6153 H         1 UNK         0.3000 
    155 H155        3.1442  -19.7441  -39.1035 H         1 UNK         0.0600 
    156 H156        3.8461  -17.2707  -40.7738 H         1 UNK         0.0600 
    157 H157        4.7087  -17.8207  -39.3429 H         1 UNK         0.0600 
    158 H158        3.0460  -17.2672  -39.2050 H         1 UNK         0.0600 
    159 H159        1.6107  -18.3252  -41.0632 H         1 UNK         0.3000 
    160 H160       -0.4847  -21.0568  -42.0243 H         1 UNK         0.0600 
    161 H161       -2.2124  -19.3687  -41.4091 H         1 UNK         0.0600 
    162 H162       -1.0464  -18.5291  -40.3866 H         1 UNK         0.0600 
    163 H163       -1.5502  -20.1637  -39.9895 H         1 UNK         0.0600 
    164 H164       -0.1691  -18.2433  -42.7357 H         1 UNK         0.3000 
    165 H165        1.9947  -18.8043  -45.4551 H         1 UNK         0.0600 
    166 H166        0.1921  -17.9385  -46.8816 H         1 UNK         0.0600 
    167 H167       -0.1256  -19.6156  -46.4753 H         1 UNK         0.0600 
    168 H168       -1.0213  -18.3295  -45.6632 H         1 UNK         0.0600 
    169 H169        0.4198  -16.5389  -44.7508 H         1 UNK         0.3000 
    170 H170        2.7396  -15.2079  -42.3535 H         1 UNK         0.0600 
    171 H171        3.4376  -14.5201  -44.6556 H         1 UNK         0.0600 
    172 H172        2.4518  -13.2876  -43.8831 H         1 UNK         0.0600 
    173 H173        1.7519  -14.3291  -45.1194 H         1 UNK         0.0600 
    174 H174        0.2489  -14.1627  -43.0626 H         1 UNK         0.3000 
    175 H175       -1.8740  -16.0112  -40.9691 H         1 UNK         0.0600 
    176 H176       -2.1853  -13.9719  -39.5899 H         1 UNK         0.0600 
    177 H177       -0.6994  -14.8039  -39.1601 H         1 UNK         0.0600 
    178 H178       -0.6295  -13.3426  -40.1325 H         1 UNK         0.0600 
    179 H179       -2.9403  -14.9520  -42.5546 H         1 UNK         0.3000 
    180 H180       -3.9852  -12.8739  -43.2872 H         1 UNK         0.0600 
    181 H181       -1.9412  -11.2031  -44.8414 H         1 UNK         0.0600 
    182 H182       -2.8433  -10.6692  -43.4278 H         1 UNK         0.0600 
    183 H183       -3.6932  -11.0324  -44.9221 H         1 UNK         0.0600 
    184 H184       -2.6495  -13.3051  -45.8396 H         1 UNK         0.3000 
    185 H185       -3.1368  -16.7324  -46.0654 H         1 UNK         0.0600 
    186 H186       -5.0458  -14.7698  -47.4525 H         1 UNK         0.0600 
    187 H187       -4.6271  -16.3830  -48.0324 H         1 UNK         0.0600 
    188 H188       -5.5256  -16.1956  -46.5370 H         1 UNK         0.0600 
    189 H189       -2.6422  -14.8710  -48.1341 H         1 UNK         0.3000 
    190 H190        0.6244  -23.9191  -49.1892 H         1 UNK         0.3000 
    191 H191       -1.9373  -24.4624  -48.5112 H         1 UNK         0.0600 
    192 H192       -0.9145  -25.0960  -50.6554 H         1 UNK         0.0600 
    193 H193       -0.8710  -23.4162  -51.1855 H         1 UNK         0.0600 
    194 H194       -2.4111  -24.2380  -50.9768 H         1 UNK         0.0600 
    195 H195       -0.7643  -21.1842  -49.0307 H         1 UNK         0.3000 
    196 H196       -3.3179  -19.9386  -49.4490 H         1 UNK         0.0600 
    197 H197       -1.9208  -17.8487  -48.6595 H         1 UNK         0.0600 
    198 H198       -1.5537  -18.6228  -50.1869 H         1 UNK         0.0600 
    199 H199       -0.5418  -18.9425  -48.7931 H         1 UNK         0.0600 
    200 H200       -1.9877  -21.3015  -46.5722 H         1 UNK         0.3000 
    201 H201       -3.4125  -19.7955  -44.6179 H         1 UNK         0.0600 
    202 H202       -1.5507  -21.4257  -44.1471 H         1 UNK         0.0600 
    203 H203       -2.6067  -22.7549  -44.6004 H         1 UNK         0.0600 
    204 H204       -2.9857  -21.7680  -43.1914 H         1 UNK         0.0600 
    205 H205       -4.5070  -22.1505  -46.9862 H         1 UNK         0.3000 
    206 H206       -7.0819  -22.6829  -45.6727 H         1 UNK         0.0600 
    207 H207       -5.8575  -24.4464  -46.9899 H         1 UNK         0.0600 
    208 H208       -7.4599  -24.1222  -47.6290 H         1 UNK         0.0600 
    209 H209       -6.0474  -23.4720  -48.4473 H         1 UNK         0.0600 
    210 H210       -5.8876  -20.0264  -47.2526 H         1 UNK         0.3000 
    211 H211       -6.6522  -18.1891  -48.1020 H         1 UNK         0.0600 
    212 H212       -9.5024  -19.1422  -47.5208 H         1 UNK         0.0600 
    213 H213       -9.0013  -17.4941  -47.8614 H         1 UNK         0.0600 
    214 H214       -8.4520  -18.2852  -46.3923 H         1 UNK         0.0600 
    215 H215       -8.3159  -21.0077  -49.4585 H         1 UNK         0.3000 
    216 H216       -8.9114  -19.9136  -52.0424 H         1 UNK         0.0600 
    217 H217       -9.1374  -22.3219  -52.6907 H         1 UNK         0.0600 
    218 H218       -9.9646  -21.9905  -51.1769 H         1 UNK         0.0600 
    219 H219       -8.4051  -22.8123  -51.1665 H         1 UNK         0.0600 
    220 H220       -6.0314  -21.3239  -50.6442 H         1 UNK         0.3000 
    221 H221       -3.8848  -21.3492  -51.1546 H         1 UNK         0.0600 
    222 H222       -4.5567  -18.9714  -52.9646 H         1 UNK         0.0600 
    223 H223       -4.4017  -18.8710  -51.2200 H         1 UNK         0.0600 
    224 H224       -3.0067  -19.2964  -52.1952 H         1 UNK         0.0600 
    225 H225       -5.6457  -22.9230  -53.0849 H         1 UNK         0.3000 
    226 H226       -5.4940  -24.1949  -54.9165 H         1 UNK         0.0600 
    227 H227       -3.5217  -25.1150  -53.6766 H         1 UNK         0.0600 
    228 H228       -3.3045  -25.2338  -55.4151 H         1 UNK         0.0600 
    229 H229       -2.4595  -23.9838  -54.5118 H         1 UNK         0.0600 
    230 H230       -6.0305  -21.6097  -55.4817 H         1 UNK         0.3000 
    231 H231       -6.2267  -20.0578  -57.0432 H         1 UNK         0.0600 
    232 H232       -6.5024  -21.9166  -58.6915 H         1 UNK         0.0600 
    233 H233       -4.7668  -21.9090  -59.0017 H         1 UNK         0.0600 
    234 H234       -5.7403  -20.5062  -59.4090 H         1 UNK         0.0600 
    235 H235       -4.5012  -19.5415  -55.2160 H         1 UNK         0.3000 
    236 H236       -2.8382  -18.2649  -54.4987 H         1 UNK         0.0600 
    237 H237       -2.2419  -16.2797  -55.8284 H         1 UNK         0.0600 
    238 H238       -2.8637  -17.0228  -57.2962 H         1 UNK         0.0600 
    239 H239       -3.9612  -16.5937  -55.9845 H         1 UNK         0.0600 
    240 H240       -2.0564  -20.8246  -55.4164 H         1 UNK         0.3000 
    241 H241       -0.4007  -22.1406  -56.0070 H         1 UNK         0.0600 
    242 H242       -0.0300  -20.4924  -59.4284 H         1 UNK         0.3800 
    243 H243       -1.3191  -20.2980  -58.2646 H         1 UNK         0.3800 
    244 H244        1.9959  -21.3466  -55.3059 H         1 UNK         0.0800 
    245 H245        1.2369  -19.8812  -54.7548 H         1 UNK         0.0800 
    246 H246       -0.8292  -19.9381  -53.0617 H         1 UNK         0.0800 
    247 H247       -0.8422  -21.0283  -51.7081 H         1 UNK         0.0800 
@<TRIPOS>BOND
     1    1    2 1    
     2    1  127 1    
     3    1  128 1    
     4    1  129 1    
     5    2    3 2    
     6    2    4 am   BACKBONE|DICT|INTERRES
     7    4    5 1    
     8    4  130 1    
     9    5    6 1    
    10    5   65 1    
    11    5  131 1    
    12    6    7 1    
    13    6  132 1    
    14    6  133 1    
    15    7    8 1    
    16    8    9 1    
    17    8  134 1    
    18    8  135 1    
    19    9   10 ar   
    20    9   14 ar   
    21   10   11 ar   
    22   10  136 1    
    23   11   12 ar   
    24   11  126 1    
    25   12   13 ar   
    26   12  137 1    
    27   13   14 ar   
    28   13   15 1    
    29   14  138 1    
    30   15   16 1    
    31   15  139 1    
    32   15  140 1    
    33   16   17 1    
    34   17   18 1    
    35   17  141 1    
    36   17  142 1    
    37   18   19 1    
    38   18   67 1    
    39   18  143 1    
    40   19   20 am   BACKBONE|DICT|INTERRES
    41   19  144 1    
    42   20   21 2    
    43   20   22 1    
    44   22   23 1    
    45   22   24 1    
    46   22  145 1    
    47   23  146 1    
    48   23  147 1    
    49   23  148 1    
    50   24   25 am   BACKBONE|DICT|INTERRES
    51   24  149 1    
    52   25   26 2    
    53   25   27 1    
    54   27   28 1    
    55   27   29 1    
    56   27  150 1    
    57   28  151 1    
    58   28  152 1    
    59   28  153 1    
    60   29   30 am   BACKBONE|DICT|INTERRES
    61   29  154 1    
    62   30   31 2    
    63   30   32 1    
    64   32   33 1    
    65   32   34 1    
    66   32  155 1    
    67   33  156 1    
    68   33  157 1    
    69   33  158 1    
    70   34   35 am   BACKBONE|DICT|INTERRES
    71   34  159 1    
    72   35   36 2    
    73   35   37 1    
    74   37   38 1    
    75   37   39 1    
    76   37  160 1    
    77   38  161 1    
    78   38  162 1    
    79   38  163 1    
    80   39   40 am   BACKBONE|DICT|INTERRES
    81   39  164 1    
    82   40   41 2    
    83   40   42 1    
    84   42   43 1    
    85   42   44 1    
    86   42  165 1    
    87   43  166 1    
    88   43  167 1    
    89   43  168 1    
    90   44   45 am   BACKBONE|DICT|INTERRES
    91   44  169 1    
    92   45   46 2    
    93   45   47 1    
    94   47   48 1    
    95   47   49 1    
    96   47  170 1    
    97   48  171 1    
    98   48  172 1    
    99   48  173 1    
   100   49   50 am   BACKBONE|DICT|INTERRES
   101   49  174 1    
   102   50   51 2    
   103   50   52 1    
   104   52   53 1    
   105   52   54 1    
   106   52  175 1    
   107   53  176 1    
   108   53  177 1    
   109   53  178 1    
   110   54   55 am   BACKBONE|DICT|INTERRES
   111   54  179 1    
   112   55   56 2    
   113   55   57 1    
   114   57   58 1    
   115   57   59 1    
   116   57  180 1    
   117   58  181 1    
   118   58  182 1    
   119   58  183 1    
   120   59   60 am   BACKBONE|DICT|INTERRES
   121   59  184 1    
   122   60   61 2    
   123   60   62 1    
   124   62   63 1    
   125   62   64 1    
   126   62  185 1    
   127   63  186 1    
   128   63  187 1    
   129   63  188 1    
   130   64   65 am   BACKBONE|DICT|INTERRES
   131   64  189 1    
   132   65   66 2    
   133   67   68 2    
   134   67   69 am   BACKBONE|DICT|INTERRES
   135   69   70 1    
   136   69  190 1    
   137   70   71 1    
   138   70   72 1    
   139   70  191 1    
   140   71  192 1    
   141   71  193 1    
   142   71  194 1    
   143   72   73 2    
   144   72   74 am   BACKBONE|DICT|INTERRES
   145   74   75 1    
   146   74  195 1    
   147   75   76 1    
   148   75   77 1    
   149   75  196 1    
   150   76  197 1    
   151   76  198 1    
   152   76  199 1    
   153   77   78 2    
   154   77   79 am   BACKBONE|DICT|INTERRES
   155   79   80 1    
   156   79  200 1    
   157   80   81 1    
   158   80   82 1    
   159   80  201 1    
   160   81  202 1    
   161   81  203 1    
   162   81  204 1    
   163   82   83 2    
   164   82   84 am   BACKBONE|DICT|INTERRES
   165   84   85 1    
   166   84  205 1    
   167   85   86 1    
   168   85   87 1    
   169   85  206 1    
   170   86  207 1    
   171   86  208 1    
   172   86  209 1    
   173   87   88 2    
   174   87   89 am   BACKBONE|DICT|INTERRES
   175   89   90 1    
   176   89  210 1    
   177   90   91 1    
   178   90   92 1    
   179   90  211 1    
   180   91  212 1    
   181   91  213 1    
   182   91  214 1    
   183   92   93 2    
   184   92   94 am   BACKBONE|DICT|INTERRES
   185   94   95 1    
   186   94  215 1    
   187   95   96 1    
   188   95   97 1    
   189   95  216 1    
   190   96  217 1    
   191   96  218 1    
   192   96  219 1    
   193   97   98 2    
   194   97   99 am   BACKBONE|DICT|INTERRES
   195   99  100 1    
   196   99  220 1    
   197  100  101 1    
   198  100  102 1    
   199  100  221 1    
   200  101  222 1    
   201  101  223 1    
   202  101  224 1    
   203  102  103 2    
   204  102  104 am   BACKBONE|DICT|INTERRES
   205  104  105 1    
   206  104  225 1    
   207  105  106 1    
   208  105  107 1    
   209  105  226 1    
   210  106  227 1    
   211  106  228 1    
   212  106  229 1    
   213  107  108 2    
   214  107  109 am   BACKBONE|DICT|INTERRES
   215  109  110 1    
   216  109  230 1    
   217  110  111 1    
   218  110  112 1    
   219  110  231 1    
   220  111  232 1    
   221  111  233 1    
   222  111  234 1    
   223  112  113 2    
   224  112  114 am   BACKBONE|DICT|INTERRES
   225  114  115 1    
   226  114  235 1    
   227  115  116 1    
   228  115  117 1    
   229  115  236 1    
   230  116  237 1    
   231  116  238 1    
   232  116  239 1    
   233  117  118 2    
   234  117  119 am   BACKBONE|DICT|INTERRES
   235  119  120 1    
   236  119  240 1    
   237  120  121 1    
   238  120  124 1    
   239  120  241 1    
   240  121  122 am   BACKBONE|DICT|INTERRES
   241  121  123 2    
   242  122  242 1    
   243  122  243 1    
   244  124  125 1    
   245  124  244 1    
   246  124  245 1    
   247  125  126 1    
   248  126  246 1    
   249  126  247 1    
@<TRIPOS>SUBSTRUCTURE
     1 UNK         1 GROUP             0       ****    0 ROOT    
