@<TRIPOS>MOLECULE
3R540
247   249    1
SMALL
USER_CHARGES


@<TRIPOS>ATOM
      1 CA         -3.3367  -15.9040  -50.5761 C.3       0 UNK        -0.1800 
      2 C          -2.6127  -14.9792  -49.6110 C.2       0 UNK         0.5000 
      3 O          -3.2397  -14.1247  -48.9854 O.2       0 UNK        -0.5000 
      4 N          -1.2935  -15.1621  -49.4687 N.am      1 UNK        -0.5000 
      5 CA         -0.4255  -14.3591  -48.5912 C.3       1 UNK         0.1400 
      6 C6          1.0510  -14.3527  -49.0608 C.3       23 UNK        -0.0398 
      7 S7          1.2142  -13.8011  -50.7971 S.3       23 UNK        -0.2404 
      8 C8          2.1692  -15.1486  -51.5684 C.3       23 UNK        -0.0205 
      9 C9          1.5133  -16.5134  -51.4100 C.ar      23 UNK        -0.0193 
     10 C10         0.3260  -16.8179  -52.0822 C.ar      23 UNK        -0.1150 
     11 C11        -0.2660  -18.0770  -51.9405 C.ar      23 UNK        -0.0193 
     12 C12         0.3286  -19.0292  -51.1064 C.ar      23 UNK        -0.1150 
     13 C13         1.5276  -18.7423  -50.4478 C.ar      23 UNK        -0.0193 
     14 C14         2.1134  -17.4842  -50.6044 C.ar      23 UNK        -0.1150 
     15 C15         2.2159  -19.7982  -49.5963 C.3       23 UNK        -0.0205 
     16 S16         2.2937  -19.3316  -47.8389 S.3       23 UNK        -0.2404 
     17 C17         0.5429  -19.4682  -47.3482 C.3       23 UNK        -0.0398 
     18 CA          0.1537  -20.9170  -46.9753 C.3       11 UNK         0.1400 
     19 N           0.9851  -21.4744  -45.9029 N.am      11 UNK        -0.5000 
     20 C           1.0483  -22.7748  -45.5908 C.2       10 UNK         0.5000 
     21 O           0.3075  -23.6220  -46.0931 O.2       10 UNK        -0.5000 
     22 CA          2.0878  -23.2025  -44.5455 C.3       10 UNK         0.1400 
     23 CB          3.4701  -23.3728  -45.1960 C.3       10 UNK        -0.1800 
     24 N           2.1822  -22.2614  -43.4262 N.am      10 UNK        -0.5000 
     25 C           2.3523  -22.6332  -42.1481 C.2       9 UNK         0.5000 
     26 O           2.4450  -23.8084  -41.7899 O.2       9 UNK        -0.5000 
     27 CA          2.4455  -21.5274  -41.0734 C.3       9 UNK         0.1400 
     28 CB          3.9119  -21.2813  -40.6857 C.3       9 UNK        -0.1800 
     29 N           1.8509  -20.2502  -41.4618 N.am      9 UNK        -0.5000 
     30 C           0.5577  -20.0397  -41.7374 C.2       8 UNK         0.5000 
     31 O          -0.3112  -20.9044  -41.6348 O.2       8 UNK        -0.5000 
     32 CA          0.1713  -18.6342  -42.2403 C.3       8 UNK         0.1400 
     33 CB         -0.3867  -17.8120  -41.0687 C.3       8 UNK        -0.1800 
     34 N           1.2539  -17.8752  -42.8813 N.am      8 UNK        -0.5000 
     35 C           2.0452  -18.2864  -43.8843 C.2       7 UNK         0.5000 
     36 O           2.0036  -19.4169  -44.3683 O.2       7 UNK        -0.5000 
     37 CA          3.0845  -17.2819  -44.4047 C.3       7 UNK         0.1400 
     38 CB          2.4496  -16.3147  -45.4125 C.3       7 UNK        -0.1800 
     39 N           3.6789  -16.5156  -43.3119 N.am      7 UNK        -0.5000 
     40 C           4.6619  -16.9619  -42.5184 C.2       6 UNK         0.5000 
     41 O           5.2040  -18.0593  -42.6508 O.2       6 UNK        -0.5000 
     42 CA          5.1081  -16.0272  -41.3776 C.3       6 UNK         0.1400 
     43 CB          6.2248  -15.0874  -41.8572 C.3       6 UNK        -0.1800 
     44 N           4.0065  -15.2273  -40.8394 N.am      6 UNK        -0.5000 
     45 C           3.0067  -15.7221  -40.0968 C.2       5 UNK         0.5000 
     46 O           2.9390  -16.8979  -39.7383 O.2       5 UNK        -0.5000 
     47 CA          1.8782  -14.7443  -39.7129 C.3       5 UNK         0.1400 
     48 CB          2.1762  -14.0866  -38.3572 C.3       5 UNK        -0.1800 
     49 N           1.6191  -13.6977  -40.7095 N.am      5 UNK        -0.5000 
     50 C           1.2153  -13.9245  -41.9660 C.2       4 UNK         0.5000 
     51 O           1.1138  -15.0506  -42.4559 O.2       4 UNK        -0.5000 
     52 CA          0.9126  -12.6946  -42.8366 C.3       4 UNK         0.1400 
     53 CB          2.0383  -12.4682  -43.8573 C.3       4 UNK        -0.1800 
     54 N          -0.3494  -12.8881  -43.5464 N.am      4 UNK        -0.5000 
     55 C          -1.5599  -12.7272  -42.9901 C.2       3 UNK         0.5000 
     56 O          -1.7330  -12.2694  -41.8596 O.2       3 UNK        -0.5000 
     57 CA         -2.7865  -13.1582  -43.8229 C.3       3 UNK         0.1400 
     58 CB         -3.3552  -11.9638  -44.6039 C.3       3 UNK        -0.1800 
     59 N          -2.4829  -14.2378  -44.7614 N.am      3 UNK        -0.5000 
     60 C          -2.1408  -15.4835  -44.4075 C.2       2 UNK         0.5000 
     61 O          -2.2411  -15.9061  -43.2569 O.2       2 UNK        -0.5000 
     62 CA         -1.5932  -16.4222  -45.5048 C.3       2 UNK         0.1400 
     63 CB         -2.5562  -17.6000  -45.7185 C.3       2 UNK        -0.1800 
     64 N          -1.3339  -15.8086  -46.8126 N.am      2 UNK        -0.5000 
     65 C          -0.5323  -14.7725  -47.1051 C.2       1 UNK         0.5000 
     66 O           0.0865  -14.1327  -46.2552 O.2       1 UNK        -0.5000 
     67 C          -1.3530  -21.0158  -46.6813 C.2       11 UNK         0.5000 
     68 O          -2.1432  -21.0360  -47.6215 O.2       11 UNK        -0.5000 
     69 N          -1.7222  -21.1015  -45.3947 N.am      12 UNK        -0.5000 
     70 CA         -3.0940  -21.3374  -44.9444 C.3       12 UNK         0.1400 
     71 CB         -3.1748  -21.1095  -43.4283 C.3       12 UNK        -0.1800 
     72 C          -3.6065  -22.7449  -45.3061 C.2       12 UNK         0.5000 
     73 O          -4.8106  -22.9161  -45.4937 O.2       12 UNK        -0.5000 
     74 N          -2.6905  -23.7195  -45.3986 N.am      13 UNK        -0.5000 
     75 CA         -2.9845  -25.0906  -45.8039 C.3       13 UNK         0.1400 
     76 CB         -2.0286  -26.0548  -45.0843 C.3       13 UNK        -0.1800 
     77 C          -2.8817  -25.2567  -47.3280 C.2       13 UNK         0.5000 
     78 O          -3.7392  -25.9197  -47.9126 O.2       13 UNK        -0.5000 
     79 N          -1.8477  -24.6535  -47.9377 N.am      14 UNK        -0.5000 
     80 CA         -1.5186  -24.7180  -49.3663 C.3       14 UNK         0.1400 
     81 CB         -0.2445  -23.8990  -49.6274 C.3       14 UNK        -0.1800 
     82 C          -2.6796  -24.2480  -50.2650 C.2       14 UNK         0.5000 
     83 O          -2.9053  -23.0438  -50.4023 O.2       14 UNK        -0.5000 
     84 N          -3.4384  -25.2214  -50.7911 N.am      15 UNK        -0.5000 
     85 CA         -4.6834  -25.0658  -51.5541 C.3       15 UNK         0.1400 
     86 CB         -4.3920  -24.4852  -52.9516 C.3       15 UNK        -0.1800 
     87 C          -5.7676  -24.2641  -50.8004 C.2       15 UNK         0.5000 
     88 O          -6.5651  -23.5719  -51.4315 O.2       15 UNK        -0.5000 
     89 N          -5.7464  -24.3276  -49.4595 N.am      16 UNK        -0.5000 
     90 CA         -6.5624  -23.5355  -48.5308 C.3       16 UNK         0.1400 
     91 CB         -8.0355  -23.9910  -48.5852 C.3       16 UNK        -0.1800 
     92 C          -6.3991  -22.0063  -48.7176 C.2       16 UNK         0.5000 
     93 O          -7.3503  -21.2571  -48.4896 O.2       16 UNK        -0.5000 
     94 N          -5.2030  -21.5795  -49.1540 N.am      17 UNK        -0.5000 
     95 CA         -4.8094  -20.2112  -49.5040 C.3       17 UNK         0.1400 
     96 CB         -4.9200  -19.2590  -48.2932 C.3       17 UNK        -0.1800 
     97 C          -5.5205  -19.6526  -50.7554 C.2       17 UNK         0.5000 
     98 O          -5.5860  -18.4323  -50.9122 O.2       17 UNK        -0.5000 
     99 N          -6.0298  -20.5264  -51.6387 N.am      18 UNK        -0.5000 
    100 CA        -6.6282  -20.1411  -52.9175 C.3       18 UNK         0.1400 
    101 CB        -7.3187  -21.3529  -53.5613 C.3       18 UNK        -0.1800 
    102 C         -5.5657  -19.5562  -53.8632 C.2       18 UNK         0.5000 
    103 O         -4.6701  -20.2857  -54.2940 O.2       18 UNK        -0.5000 
    104 N         -5.6917  -18.2584  -54.1707 N.am      19 UNK        -0.5000 
    105 CA        -4.7427  -17.4660  -54.9613 C.3       19 UNK         0.1400 
    106 CB        -5.1804  -15.9940  -54.9295 C.3       19 UNK        -0.1800 
    107 C         -4.5475  -17.9431  -56.4146 C.2       19 UNK         0.5000 
    108 O         -3.5319  -17.6191  -57.0304 O.2       19 UNK        -0.5000 
    109 N         -5.5162  -18.7057  -56.9349 N.am      20 UNK        -0.5000 
    110 CA        -5.4692  -19.3314  -58.2547 C.3       20 UNK         0.1400 
    111 CB        -6.9071  -19.6643  -58.6849 C.3       20 UNK        -0.1800 
    112 C         -4.5873  -20.5970  -58.3059 C.2       20 UNK         0.5000 
    113 O         -4.2826  -21.0567  -59.4077 O.2       20 UNK        -0.5000 
    114 N         -4.2200  -21.1547  -57.1431 N.am      21 UNK        -0.5000 
    115 CA        -3.4980  -22.4201  -57.0222 C.3       21 UNK         0.1400 
    116 CB        -4.4359  -23.4745  -56.4121 C.3       21 UNK        -0.1800 
    117 C         -2.2146  -22.2630  -56.1939 C.2       21 UNK         0.5000 
    118 O         -1.1321  -22.5580  -56.7034 O.2       21 UNK        -0.5000 
    119 N         -2.3562  -21.7991  -54.9452 N.am      22 UNK        -0.5000 
    120 CA        -1.2848  -21.6487  -53.9443 C.3       22 UNK         0.1400 
    121 C         -0.5330  -22.9810  -53.6173 C.2       22 UNK         0.5000 
    122 N          0.7093  -22.9373  -53.1500 N.am      22 UNK        -0.7600 
    123 O         -1.0830  -24.0727  -53.7371 O.2       22 UNK        -0.5000 
    124 C124       -0.3369  -20.4564  -54.2667 C.3       23 UNK        -0.0398 
    125 S125       -1.2098  -18.8630  -54.4347 S.3       23 UNK        -0.2404 
    126 C126       -1.5402  -18.4110  -52.7003 C.3       23 UNK        -0.0205 
    127 H127       -4.4042  -15.9279  -50.3562 H         1 UNK         0.0600 
    128 H128       -2.9586  -16.9230  -50.4962 H         1 UNK         0.0600 
    129 H129       -3.2079  -15.5583  -51.6016 H         1 UNK         0.0600 
    130 H130       -0.8209  -15.8604  -50.0264 H         1 UNK         0.3000 
    131 H131       -0.7747  -13.3252  -48.6364 H         1 UNK         0.0600 
    132 H132        1.5008  -15.3366  -48.9273 H         1 UNK         0.0800 
    133 H133        1.6410  -13.6709  -48.4456 H         1 UNK         0.0800 
    134 H134        3.1754  -15.1518  -51.1464 H         1 UNK         0.0800 
    135 H135        2.2871  -14.9322  -52.6310 H         1 UNK         0.0800 
    136 H136       -0.1307  -16.0776  -52.7246 H         1 UNK         0.1150 
    137 H137       -0.1278  -20.0028  -50.9927 H         1 UNK         0.1150 
    138 H138        3.0410  -17.2644  -50.0944 H         1 UNK         0.1150 
    139 H139        1.7239  -20.7666  -49.6966 H         1 UNK         0.0800 
    140 H140        3.2333  -19.9363  -49.9645 H         1 UNK         0.0800 
    141 H141       -0.0834  -19.0912  -48.1584 H         1 UNK         0.0800 
    142 H142        0.3751  -18.7998  -46.5032 H         1 UNK         0.0800 
    143 H143        0.3316  -21.5330  -47.8561 H         1 UNK         0.0600 
    144 H144        1.5885  -20.8036  -45.4323 H         1 UNK         0.3000 
    145 H145        1.7620  -24.1789  -44.1803 H         1 UNK         0.0600 
    146 H146        4.1913  -23.7793  -44.4869 H         1 UNK         0.0600 
    147 H147        3.4235  -24.0596  -46.0422 H         1 UNK         0.0600 
    148 H148        3.8603  -22.4226  -45.5631 H         1 UNK         0.0600 
    149 H149        2.1114  -21.2724  -43.6426 H         1 UNK         0.3000 
    150 H150        1.9122  -21.8865  -40.1910 H         1 UNK         0.0600 
    151 H151        4.3916  -22.2042  -40.3570 H         1 UNK         0.0600 
    152 H152        3.9892  -20.5663  -39.8662 H         1 UNK         0.0600 
    153 H153        4.4884  -20.8915  -41.5260 H         1 UNK         0.0600 
    154 H154        2.4865  -19.4738  -41.5762 H         1 UNK         0.3000 
    155 H155       -0.6175  -18.7552  -42.9848 H         1 UNK         0.0600 
    156 H156        0.3467  -17.7082  -40.2689 H         1 UNK         0.0600 
    157 H157       -1.2707  -18.2888  -40.6435 H         1 UNK         0.0600 
    158 H158       -0.6787  -16.8108  -41.3819 H         1 UNK         0.0600 
    159 H159        1.3338  -16.9034  -42.5910 H         1 UNK         0.3000 
    160 H160        3.8674  -17.8428  -44.9199 H         1 UNK         0.0600 
    161 H161        1.6651  -15.7193  -44.9487 H         1 UNK         0.0600 
    162 H162        2.0001  -16.8487  -46.2490 H         1 UNK         0.0600 
    163 H163        3.1897  -15.6294  -45.8252 H         1 UNK         0.0600 
    164 H164        3.2413  -15.6319  -43.0928 H         1 UNK         0.3000 
    165 H165        5.5075  -16.6497  -40.5740 H         1 UNK         0.0600 
    166 H166        6.5971  -14.4684  -41.0407 H         1 UNK         0.0600 
    167 H167        7.0717  -15.6546  -42.2457 H         1 UNK         0.0600 
    168 H168        5.8810  -14.4246  -42.6524 H         1 UNK         0.0600 
    169 H169        3.9898  -14.2469  -41.0783 H         1 UNK         0.3000 
    170 H170        0.9631  -15.3309  -39.6105 H         1 UNK         0.0600 
    171 H171        2.3493  -14.8396  -37.5870 H         1 UNK         0.0600 
    172 H172        3.0634  -13.4538  -38.4029 H         1 UNK         0.0600 
    173 H173        1.3402  -13.4711  -38.0245 H         1 UNK         0.0600 
    174 H174        1.6924  -12.7443  -40.3846 H         1 UNK         0.3000 
    175 H175        0.8374  -11.8085  -42.2028 H         1 UNK         0.0600 
    176 H176        2.1588  -13.3228  -44.5239 H         1 UNK         0.0600 
    177 H177        1.8385  -11.5921  -44.4744 H         1 UNK         0.0600 
    178 H178        2.9935  -12.3037  -43.3573 H         1 UNK         0.0600 
    179 H179       -0.2827  -13.3168  -44.4645 H         1 UNK         0.3000 
    180 H180       -3.5520  -13.5130  -43.1297 H         1 UNK         0.0600 
    181 H181       -2.6359  -11.5769  -45.3269 H         1 UNK         0.0600 
    182 H182       -3.6170  -11.1464  -43.9308 H         1 UNK         0.0600 
    183 H183       -4.2601  -12.2409  -45.1451 H         1 UNK         0.0600 
    184 H184       -2.3792  -13.9787  -45.7312 H         1 UNK         0.3000 
    185 H185       -0.6432  -16.8148  -45.1384 H         1 UNK         0.0600 
    186 H186       -2.6716  -18.1835  -44.8046 H         1 UNK         0.0600 
    187 H187       -3.5479  -17.2569  -46.0164 H         1 UNK         0.0600 
    188 H188       -2.1954  -18.2739  -46.4933 H         1 UNK         0.0600 
    189 H189       -1.8220  -16.2244  -47.5915 H         1 UNK         0.3000 
    190 H190       -1.0045  -21.0874  -44.6851 H         1 UNK         0.3000 
    191 H191       -3.7450  -20.6098  -45.4306 H         1 UNK         0.0600 
    192 H192       -2.8461  -20.1062  -43.1574 H         1 UNK         0.0600 
    193 H193       -2.5587  -21.8244  -42.8818 H         1 UNK         0.0600 
    194 H194       -4.1995  -21.2220  -43.0721 H         1 UNK         0.0600 
    195 H195       -1.7138  -23.4875  -45.2739 H         1 UNK         0.3000 
    196 H196       -4.0028  -25.3501  -45.5055 H         1 UNK         0.0600 
    197 H197       -2.2484  -27.0898  -45.3495 H         1 UNK         0.0600 
    198 H198       -2.1256  -25.9695  -44.0019 H         1 UNK         0.0600 
    199 H199       -0.9863  -25.8657  -45.3424 H         1 UNK         0.0600 
    200 H200       -1.1857  -24.1513  -47.3566 H         1 UNK         0.3000 
    201 H201       -1.2948  -25.7608  -49.5996 H         1 UNK         0.0600 
    202 H202        0.5609  -24.1803  -48.9487 H         1 UNK         0.0600 
    203 H203       -0.4237  -22.8300  -49.5185 H         1 UNK         0.0600 
    204 H204        0.1138  -24.0647  -50.6428 H         1 UNK         0.0600 
    205 H205       -3.1970  -26.1759  -50.5627 H         1 UNK         0.3000 
    206 H206       -5.0894  -26.0690  -51.6897 H         1 UNK         0.0600 
    207 H207       -3.6392  -25.0740  -53.4750 H         1 UNK         0.0600 
    208 H208       -5.2906  -24.4911  -53.5687 H         1 UNK         0.0600 
    209 H209       -4.0351  -23.4559  -52.8977 H         1 UNK         0.0600 
    210 H210       -5.0464  -24.9233  -49.0262 H         1 UNK         0.3000 
    211 H211       -6.1878  -23.7639  -47.5336 H         1 UNK         0.0600 
    212 H212       -8.5025  -23.7386  -49.5376 H         1 UNK         0.0600 
    213 H213       -8.6213  -23.5157  -47.7976 H         1 UNK         0.0600 
    214 H214       -8.1204  -25.0685  -48.4445 H         1 UNK         0.0600 
    215 H215       -4.4879  -22.2734  -49.3493 H         1 UNK         0.3000 
    216 H216       -3.7533  -20.2747  -49.7700 H         1 UNK         0.0600 
    217 H217       -4.4257  -18.3087  -48.4978 H         1 UNK         0.0600 
    218 H218       -4.4458  -19.6832  -47.4110 H         1 UNK         0.0600 
    219 H219       -5.9574  -19.0384  -48.0419 H         1 UNK         0.0600 
    220 H220       -5.9685  -21.5202  -51.4500 H         1 UNK         0.3000 
    221 H221       -7.3918  -19.3852  -52.7224 H         1 UNK         0.0600 
    222 H222       -6.6127  -22.1586  -53.7665 H         1 UNK         0.0600 
    223 H223       -8.1005  -21.7505  -52.9140 H         1 UNK         0.0600 
    224 H224       -7.7871  -21.0796  -54.5075 H         1 UNK         0.0600 
    225 H225       -6.4528  -17.7417  -53.7540 H         1 UNK         0.3000 
    226 H226       -3.7737  -17.5353  -54.4697 H         1 UNK         0.0600 
    227 H227       -5.2191  -15.6159  -53.9076 H         1 UNK         0.0600 
    228 H228       -4.4793  -15.3647  -55.4796 H         1 UNK         0.0600 
    229 H229       -6.1655  -15.8581  -55.3776 H         1 UNK         0.0600 
    230 H230       -6.3197  -18.9134  -56.3609 H         1 UNK         0.3000 
    231 H231       -5.0573  -18.6154  -58.9691 H         1 UNK         0.0600 
    232 H232       -7.5289  -18.7692  -58.7107 H         1 UNK         0.0600 
    233 H233       -7.3742  -20.3797  -58.0068 H         1 UNK         0.0600 
    234 H234       -6.9264  -20.0994  -59.6849 H         1 UNK         0.0600 
    235 H235       -4.4588  -20.6898  -56.2736 H         1 UNK         0.3000 
    236 H236       -3.1906  -22.7852  -58.0044 H         1 UNK         0.0600 
    237 H237       -3.9036  -24.4025  -56.1990 H         1 UNK         0.0600 
    238 H238       -4.8788  -23.1224  -55.4807 H         1 UNK         0.0600 
    239 H239       -5.2507  -23.7143  -57.0952 H         1 UNK         0.0600 
    240 H240       -3.2776  -21.5063  -54.6340 H         1 UNK         0.3000 
    241 H241       -1.8046  -21.4133  -53.0156 H         1 UNK         0.0600 
    242 H242        1.1740  -23.8071  -52.9429 H         1 UNK         0.3800 
    243 H243        1.2089  -22.0721  -53.0288 H         1 UNK         0.3800 
    244 H244        0.4325  -20.3369  -53.5060 H         1 UNK         0.0800 
    245 H245        0.1972  -20.6460  -55.1986 H         1 UNK         0.0800 
    246 H246       -2.1973  -17.5423  -52.6963 H         1 UNK         0.0800 
    247 H247       -2.0946  -19.2089  -52.2045 H         1 UNK         0.0800 
@<TRIPOS>BOND
     1    1    2 1    
     2    1  127 1    
     3    1  128 1    
     4    1  129 1    
     5    2    3 2    
     6    2    4 am   BACKBONE|DICT|INTERRES
     7    4    5 1    
     8    4  130 1    
     9    5    6 1    
    10    5   65 1    
    11    5  131 1    
    12    6    7 1    
    13    6  132 1    
    14    6  133 1    
    15    7    8 1    
    16    8    9 1    
    17    8  134 1    
    18    8  135 1    
    19    9   10 ar   
    20    9   14 ar   
    21   10   11 ar   
    22   10  136 1    
    23   11   12 ar   
    24   11  126 1    
    25   12   13 ar   
    26   12  137 1    
    27   13   14 ar   
    28   13   15 1    
    29   14  138 1    
    30   15   16 1    
    31   15  139 1    
    32   15  140 1    
    33   16   17 1    
    34   17   18 1    
    35   17  141 1    
    36   17  142 1    
    37   18   19 1    
    38   18   67 1    
    39   18  143 1    
    40   19   20 am   BACKBONE|DICT|INTERRES
    41   19  144 1    
    42   20   21 2    
    43   20   22 1    
    44   22   23 1    
    45   22   24 1    
    46   22  145 1    
    47   23  146 1    
    48   23  147 1    
    49   23  148 1    
    50   24   25 am   BACKBONE|DICT|INTERRES
    51   24  149 1    
    52   25   26 2    
    53   25   27 1    
    54   27   28 1    
    55   27   29 1    
    56   27  150 1    
    57   28  151 1    
    58   28  152 1    
    59   28  153 1    
    60   29   30 am   BACKBONE|DICT|INTERRES
    61   29  154 1    
    62   30   31 2    
    63   30   32 1    
    64   32   33 1    
    65   32   34 1    
    66   32  155 1    
    67   33  156 1    
    68   33  157 1    
    69   33  158 1    
    70   34   35 am   BACKBONE|DICT|INTERRES
    71   34  159 1    
    72   35   36 2    
    73   35   37 1    
    74   37   38 1    
    75   37   39 1    
    76   37  160 1    
    77   38  161 1    
    78   38  162 1    
    79   38  163 1    
    80   39   40 am   BACKBONE|DICT|INTERRES
    81   39  164 1    
    82   40   41 2    
    83   40   42 1    
    84   42   43 1    
    85   42   44 1    
    86   42  165 1    
    87   43  166 1    
    88   43  167 1    
    89   43  168 1    
    90   44   45 am   BACKBONE|DICT|INTERRES
    91   44  169 1    
    92   45   46 2    
    93   45   47 1    
    94   47   48 1    
    95   47   49 1    
    96   47  170 1    
    97   48  171 1    
    98   48  172 1    
    99   48  173 1    
   100   49   50 am   BACKBONE|DICT|INTERRES
   101   49  174 1    
   102   50   51 2    
   103   50   52 1    
   104   52   53 1    
   105   52   54 1    
   106   52  175 1    
   107   53  176 1    
   108   53  177 1    
   109   53  178 1    
   110   54   55 am   BACKBONE|DICT|INTERRES
   111   54  179 1    
   112   55   56 2    
   113   55   57 1    
   114   57   58 1    
   115   57   59 1    
   116   57  180 1    
   117   58  181 1    
   118   58  182 1    
   119   58  183 1    
   120   59   60 am   BACKBONE|DICT|INTERRES
   121   59  184 1    
   122   60   61 2    
   123   60   62 1    
   124   62   63 1    
   125   62   64 1    
   126   62  185 1    
   127   63  186 1    
   128   63  187 1    
   129   63  188 1    
   130   64   65 am   BACKBONE|DICT|INTERRES
   131   64  189 1    
   132   65   66 2    
   133   67   68 2    
   134   67   69 am   BACKBONE|DICT|INTERRES
   135   69   70 1    
   136   69  190 1    
   137   70   71 1    
   138   70   72 1    
   139   70  191 1    
   140   71  192 1    
   141   71  193 1    
   142   71  194 1    
   143   72   73 2    
   144   72   74 am   BACKBONE|DICT|INTERRES
   145   74   75 1    
   146   74  195 1    
   147   75   76 1    
   148   75   77 1    
   149   75  196 1    
   150   76  197 1    
   151   76  198 1    
   152   76  199 1    
   153   77   78 2    
   154   77   79 am   BACKBONE|DICT|INTERRES
   155   79   80 1    
   156   79  200 1    
   157   80   81 1    
   158   80   82 1    
   159   80  201 1    
   160   81  202 1    
   161   81  203 1    
   162   81  204 1    
   163   82   83 2    
   164   82   84 am   BACKBONE|DICT|INTERRES
   165   84   85 1    
   166   84  205 1    
   167   85   86 1    
   168   85   87 1    
   169   85  206 1    
   170   86  207 1    
   171   86  208 1    
   172   86  209 1    
   173   87   88 2    
   174   87   89 am   BACKBONE|DICT|INTERRES
   175   89   90 1    
   176   89  210 1    
   177   90   91 1    
   178   90   92 1    
   179   90  211 1    
   180   91  212 1    
   181   91  213 1    
   182   91  214 1    
   183   92   93 2    
   184   92   94 am   BACKBONE|DICT|INTERRES
   185   94   95 1    
   186   94  215 1    
   187   95   96 1    
   188   95   97 1    
   189   95  216 1    
   190   96  217 1    
   191   96  218 1    
   192   96  219 1    
   193   97   98 2    
   194   97   99 am   BACKBONE|DICT|INTERRES
   195   99  100 1    
   196   99  220 1    
   197  100  101 1    
   198  100  102 1    
   199  100  221 1    
   200  101  222 1    
   201  101  223 1    
   202  101  224 1    
   203  102  103 2    
   204  102  104 am   BACKBONE|DICT|INTERRES
   205  104  105 1    
   206  104  225 1    
   207  105  106 1    
   208  105  107 1    
   209  105  226 1    
   210  106  227 1    
   211  106  228 1    
   212  106  229 1    
   213  107  108 2    
   214  107  109 am   BACKBONE|DICT|INTERRES
   215  109  110 1    
   216  109  230 1    
   217  110  111 1    
   218  110  112 1    
   219  110  231 1    
   220  111  232 1    
   221  111  233 1    
   222  111  234 1    
   223  112  113 2    
   224  112  114 am   BACKBONE|DICT|INTERRES
   225  114  115 1    
   226  114  235 1    
   227  115  116 1    
   228  115  117 1    
   229  115  236 1    
   230  116  237 1    
   231  116  238 1    
   232  116  239 1    
   233  117  118 2    
   234  117  119 am   BACKBONE|DICT|INTERRES
   235  119  120 1    
   236  119  240 1    
   237  120  121 1    
   238  120  124 1    
   239  120  241 1    
   240  121  122 am   BACKBONE|DICT|INTERRES
   241  121  123 2    
   242  122  242 1    
   243  122  243 1    
   244  124  125 1    
   245  124  244 1    
   246  124  245 1    
   247  125  126 1    
   248  126  246 1    
   249  126  247 1    
@<TRIPOS>SUBSTRUCTURE
     1 UNK         1 GROUP             0       ****    0 ROOT    
