@<TRIPOS>MOLECULE
3R540
247   249    1
SMALL
USER_CHARGES


@<TRIPOS>ATOM
      1 CA          4.3243  -11.2592  -47.2994 C.3       0 UNK        -0.1800 
      2 C           3.2146  -12.1501  -46.7466 C.2       0 UNK         0.5000 
      3 O           2.0948  -11.6746  -46.5718 O.2       0 UNK        -0.5000 
      4 N           3.4712  -13.4316  -46.4624 N.am      1 UNK        -0.5000 
      5 CA          4.7512  -14.1297  -46.5785 C.3       1 UNK         0.1400 
      6 C6          4.8989  -14.8536  -47.9414 C.3       23 UNK        -0.0398 
      7 S7          3.6677  -16.1675  -48.2615 S.3       23 UNK        -0.2404 
      8 C8          2.3882  -15.2639  -49.2023 C.3       23 UNK        -0.0205 
      9 C9          1.4256  -16.1679  -49.9710 C.ar      23 UNK        -0.0193 
     10 C10         0.0838  -15.7935  -50.1206 C.ar      23 UNK        -0.1150 
     11 C11        -0.7842  -16.5500  -50.9179 C.ar      23 UNK        -0.0193 
     12 C12        -0.3066  -17.7015  -51.5453 C.ar      23 UNK        -0.1150 
     13 C13         1.0208  -18.1009  -51.3883 C.ar      23 UNK        -0.0193 
     14 C14         1.8821  -17.3270  -50.6095 C.ar      23 UNK        -0.1150 
     15 C15         1.5382  -19.3467  -52.0878 C.3       23 UNK        -0.0205 
     16 S16         1.5876  -20.7771  -50.9664 S.3       23 UNK        -0.2404 
     17 C17        -0.1861  -21.1494  -50.7701 C.3       23 UNK        -0.0398 
     18 CA         -0.6058  -21.2764  -49.2901 C.3       11 UNK         0.1400 
     19 N          -0.3660  -20.0635  -48.4965 N.am      11 UNK        -0.5000 
     20 C          -0.2980  -20.0762  -47.1576 C.2       10 UNK         0.5000 
     21 O          -0.4456  -21.0951  -46.4837 O.2       10 UNK        -0.5000 
     22 CA         -0.0783  -18.7340  -46.4404 C.3       10 UNK         0.1400 
     23 CB          1.4052  -18.3568  -46.4492 C.3       10 UNK        -0.1800 
     24 N          -0.8733  -17.6203  -46.9536 N.am      10 UNK        -0.5000 
     25 C          -2.2118  -17.6076  -47.0066 C.2       9 UNK         0.5000 
     26 O          -2.9121  -18.5964  -46.7825 O.2       9 UNK        -0.5000 
     27 CA         -2.8608  -16.2530  -47.3210 C.3       9 UNK         0.1400 
     28 CB         -4.3945  -16.2558  -47.1778 C.3       9 UNK        -0.1800 
     29 N          -2.2840  -15.2237  -46.4635 N.am      9 UNK        -0.5000 
     30 C          -2.0614  -13.9586  -46.8402 C.2       8 UNK         0.5000 
     31 O          -2.3408  -13.5224  -47.9578 O.2       8 UNK        -0.5000 
     32 CA         -1.4254  -13.0075  -45.8061 C.3       8 UNK         0.1400 
     33 CB         -2.4916  -12.0759  -45.2089 C.3       8 UNK        -0.1800 
     34 N          -0.7228  -13.6780  -44.7105 N.am      8 UNK        -0.5000 
     35 C           0.3777  -14.4283  -44.8491 C.2       7 UNK         0.5000 
     36 O           0.8943  -14.6979  -45.9326 O.2       7 UNK        -0.5000 
     37 CA          0.9938  -14.9870  -43.5564 C.3       7 UNK         0.1400 
     38 CB          1.9366  -13.9503  -42.9235 C.3       7 UNK        -0.1800 
     39 N           0.0370  -15.4190  -42.5378 N.am      7 UNK        -0.5000 
     40 C          -0.9783  -16.2771  -42.6949 C.2       6 UNK         0.5000 
     41 O          -1.3742  -16.6915  -43.7855 O.2       6 UNK        -0.5000 
     42 CA         -1.5975  -16.7984  -41.3829 C.3       6 UNK         0.1400 
     43 CB         -2.8229  -17.6966  -41.6163 C.3       6 UNK        -0.1800 
     44 N          -0.5908  -17.5571  -40.6383 N.am      6 UNK        -0.5000 
     45 C           0.3479  -17.0301  -39.8392 C.2       5 UNK         0.5000 
     46 O           0.3920  -15.8373  -39.5354 O.2       5 UNK        -0.5000 
     47 CA          1.4589  -17.9854  -39.3620 C.3       5 UNK         0.1400 
     48 CB          1.0227  -18.7379  -38.0958 C.3       5 UNK        -0.1800 
     49 N           1.8436  -18.9513  -40.3967 N.am      5 UNK        -0.5000 
     50 C           2.4747  -18.6300  -41.5350 C.2       4 UNK         0.5000 
     51 O           2.8750  -17.4944  -41.8034 O.2       4 UNK        -0.5000 
     52 CA          2.6500  -19.7641  -42.5548 C.3       4 UNK         0.1400 
     53 CB          1.2988  -20.1231  -43.1991 C.3       4 UNK        -0.1800 
     54 N           3.5981  -19.3413  -43.5823 N.am      4 UNK        -0.5000 
     55 C           4.3816  -20.1587  -44.2966 C.2       3 UNK         0.5000 
     56 O           4.3237  -21.3867  -44.2213 O.2       3 UNK        -0.5000 
     57 CA          5.4193  -19.5181  -45.2449 C.3       3 UNK         0.1400 
     58 CB          4.9988  -19.6655  -46.7161 C.3       3 UNK        -0.1800 
     59 N           5.6971  -18.1062  -44.9739 N.am      3 UNK        -0.5000 
     60 C           6.3464  -17.6353  -43.9010 C.2       2 UNK         0.5000 
     61 O           6.7901  -18.3659  -43.0138 O.2       2 UNK        -0.5000 
     62 CA          6.5532  -16.1061  -43.7936 C.3       2 UNK         0.1400 
     63 CB          8.0128  -15.7661  -43.4443 C.3       2 UNK        -0.1800 
     64 N           6.1752  -15.3348  -44.9852 N.am      2 UNK        -0.5000 
     65 C           4.9210  -15.0773  -45.3758 C.2       1 UNK         0.5000 
     66 O           3.9336  -15.5711  -44.8327 O.2       1 UNK        -0.5000 
     67 C          -2.0626  -21.7698  -49.1890 C.2       11 UNK         0.5000 
     68 O          -2.3045  -22.9521  -49.4333 O.2       11 UNK        -0.5000 
     69 N          -3.0048  -20.8905  -48.8219 N.am      12 UNK        -0.5000 
     70 CA         -4.3848  -21.2728  -48.5319 C.3       12 UNK         0.1400 
     71 CB         -5.3115  -20.0595  -48.6662 C.3       12 UNK        -0.1800 
     72 C          -4.4919  -21.9029  -47.1363 C.2       12 UNK         0.5000 
     73 O          -5.1376  -22.9394  -46.9889 O.2       12 UNK        -0.5000 
     74 N          -3.8073  -21.3008  -46.1536 N.am      13 UNK        -0.5000 
     75 CA         -3.6985  -21.7926  -44.7789 C.3       13 UNK         0.1400 
     76 CB         -2.9740  -20.7426  -43.9256 C.3       13 UNK        -0.1800 
     77 C          -2.9952  -23.1605  -44.6854 C.2       13 UNK         0.5000 
     78 O          -3.4322  -24.0201  -43.9199 O.2       13 UNK        -0.5000 
     79 N          -1.9485  -23.3506  -45.4998 N.am      14 UNK        -0.5000 
     80 CA         -1.2267  -24.6145  -45.6621 C.3       14 UNK         0.1400 
     81 CB          0.1392  -24.3200  -46.3026 C.3       14 UNK        -0.1800 
     82 C          -1.9904  -25.6622  -46.5005 C.2       14 UNK         0.5000 
     83 O          -1.5685  -26.8186  -46.5330 O.2       14 UNK        -0.5000 
     84 N          -3.0717  -25.2428  -47.1777 N.am      15 UNK        -0.5000 
     85 CA         -3.9052  -26.0175  -48.1056 C.3       15 UNK         0.1400 
     86 CB         -4.6573  -27.1428  -47.3662 C.3       15 UNK        -0.1800 
     87 C          -3.1331  -26.5152  -49.3478 C.2       15 UNK         0.5000 
     88 O          -3.4500  -27.5721  -49.8960 O.2       15 UNK        -0.5000 
     89 N          -2.1345  -25.7323  -49.7711 N.am      16 UNK        -0.5000 
     90 CA         -1.2851  -25.9904  -50.9300 C.3       16 UNK         0.1400 
     91 CB          0.1207  -25.4399  -50.6423 C.3       16 UNK        -0.1800 
     92 C          -1.8581  -25.3595  -52.2107 C.2       16 UNK         0.5000 
     93 O          -1.6725  -25.9204  -53.2912 O.2       16 UNK        -0.5000 
     94 N          -2.5428  -24.2155  -52.0739 N.am      17 UNK        -0.5000 
     95 CA         -3.1403  -23.4642  -53.1799 C.3       17 UNK         0.1400 
     96 CB         -2.1042  -22.5035  -53.7918 C.3       17 UNK        -0.1800 
     97 C          -4.4301  -22.7522  -52.7366 C.2       17 UNK         0.5000 
     98 O          -4.7305  -21.6570  -53.2223 O.2       17 UNK        -0.5000 
     99 N          -5.1786  -23.3934  -51.8282 N.am      18 UNK        -0.5000 
    100 CA        -6.4838  -22.9418  -51.3477 C.3       18 UNK         0.1400 
    101 CB        -6.9665  -23.8727  -50.2245 C.3       18 UNK        -0.1800 
    102 C         -7.5104  -22.8790  -52.4917 C.2       18 UNK         0.5000 
    103 O         -7.7421  -23.8893  -53.1583 O.2       18 UNK        -0.5000 
    104 N         -8.0631  -21.6798  -52.7071 N.am      19 UNK        -0.5000 
    105 CA        -8.9806  -21.2801  -53.7786 C.3       19 UNK         0.1400 
    106 CB       -10.2756  -22.1188  -53.7584 C.3       19 UNK        -0.1800 
    107 C         -8.3293  -21.2275  -55.1783 C.2       19 UNK         0.5000 
    108 O         -9.0459  -21.0392  -56.1630 O.2       19 UNK        -0.5000 
    109 N         -6.9978  -21.3613  -55.2508 N.am      20 UNK        -0.5000 
    110 CA        -6.2105  -21.2463  -56.4762 C.3       20 UNK         0.1400 
    111 CB        -5.3126  -22.4843  -56.6374 C.3       20 UNK        -0.1800 
    112 C         -5.3855  -19.9524  -56.4447 C.2       20 UNK         0.5000 
    113 O         -5.5046  -19.1385  -57.3615 O.2       20 UNK        -0.5000 
    114 N         -4.5854  -19.7727  -55.3849 N.am      21 UNK        -0.5000 
    115 CA        -3.7746  -18.5741  -55.1650 C.3       21 UNK         0.1400 
    116 CB        -2.4330  -18.9771  -54.5360 C.3       21 UNK        -0.1800 
    117 C         -4.4982  -17.5615  -54.2638 C.2       21 UNK         0.5000 
    118 O         -4.3973  -16.3569  -54.4992 O.2       21 UNK        -0.5000 
    119 N         -5.2100  -18.0659  -53.2516 N.am      22 UNK        -0.5000 
    120 CA        -5.9193  -17.2905  -52.2276 C.3       22 UNK         0.1400 
    121 C         -6.9134  -18.1830  -51.4386 C.2       22 UNK         0.5000 
    122 N         -7.7584  -17.6003  -50.5997 N.am      22 UNK        -0.7600 
    123 O         -6.9426  -19.4027  -51.5849 O.2       22 UNK        -0.5000 
    124 C124       -4.9762  -16.4573  -51.3054 C.3       23 UNK        -0.0398 
    125 S125       -3.4685  -17.3227  -50.7262 S.3       23 UNK        -0.2404 
    126 C126       -2.2093  -16.0838  -51.1827 C.3       23 UNK        -0.0205 
    127 H127        4.8305  -11.7326  -48.1402 H         1 UNK         0.0600 
    128 H128        5.0578  -11.0366  -46.5245 H         1 UNK         0.0600 
    129 H129        3.9137  -10.3132  -47.6530 H         1 UNK         0.0600 
    130 H130        2.7145  -14.0201  -46.1212 H         1 UNK         0.3000 
    131 H131        5.5607  -13.4030  -46.4960 H         1 UNK         0.0600 
    132 H132        4.8628  -14.1257  -48.7521 H         1 UNK         0.0800 
    133 H133        5.8887  -15.3070  -48.0128 H         1 UNK         0.0800 
    134 H134        2.8681  -14.6012  -49.9229 H         1 UNK         0.0800 
    135 H135        1.8359  -14.6268  -48.5102 H         1 UNK         0.0800 
    136 H136       -0.2734  -14.8860  -49.6533 H         1 UNK         0.1150 
    137 H137       -0.9710  -18.2762  -52.1720 H         1 UNK         0.1150 
    138 H138        2.9172  -17.6239  -50.5199 H         1 UNK         0.1150 
    139 H139        0.9278  -19.5844  -52.9607 H         1 UNK         0.0800 
    140 H140        2.5451  -19.1603  -52.4642 H         1 UNK         0.0800 
    141 H141       -0.3644  -22.0897  -51.2940 H         1 UNK         0.0800 
    142 H142       -0.7967  -20.4033  -51.2768 H         1 UNK         0.0800 
    143 H143        0.0097  -22.0702  -48.8617 H         1 UNK         0.0600 
    144 H144       -0.2272  -19.1972  -48.9976 H         1 UNK         0.3000 
    145 H145       -0.3909  -18.8727  -45.4056 H         1 UNK         0.0600 
    146 H146        1.7648  -18.2004  -47.4658 H         1 UNK         0.0600 
    147 H147        1.5950  -17.4486  -45.8767 H         1 UNK         0.0600 
    148 H148        2.0035  -19.1521  -46.0065 H         1 UNK         0.0600 
    149 H149       -0.3748  -16.7592  -47.1320 H         1 UNK         0.3000 
    150 H150       -2.6094  -16.0311  -48.3565 H         1 UNK         0.0600 
    151 H151       -4.8483  -16.9799  -47.8543 H         1 UNK         0.0600 
    152 H152       -4.8159  -15.2809  -47.4229 H         1 UNK         0.0600 
    153 H153       -4.7013  -16.5103  -46.1628 H         1 UNK         0.0600 
    154 H154       -1.9878  -15.5292  -45.5417 H         1 UNK         0.3000 
    155 H155       -0.6957  -12.3949  -46.3398 H         1 UNK         0.0600 
    156 H156       -3.0177  -11.5295  -45.9930 H         1 UNK         0.0600 
    157 H157       -2.0435  -11.3361  -44.5454 H         1 UNK         0.0600 
    158 H158       -3.2373  -12.6324  -44.6398 H         1 UNK         0.0600 
    159 H159       -1.0870  -13.5330  -43.7805 H         1 UNK         0.3000 
    160 H160        1.5758  -15.8679  -43.8311 H         1 UNK         0.0600 
    161 H161        1.3855  -13.1085  -42.5030 H         1 UNK         0.0600 
    162 H162        2.6348  -13.5461  -43.6567 H         1 UNK         0.0600 
    163 H163        2.5301  -14.3987  -42.1264 H         1 UNK         0.0600 
    164 H164        0.2819  -15.1808  -41.5840 H         1 UNK         0.3000 
    165 H165       -1.9198  -15.9345  -40.7978 H         1 UNK         0.0600 
    166 H166       -3.2818  -17.9894  -40.6719 H         1 UNK         0.0600 
    167 H167       -3.5842  -17.1812  -42.2034 H         1 UNK         0.0600 
    168 H168       -2.5503  -18.6052  -42.1506 H         1 UNK         0.0600 
    169 H169       -0.5256  -18.5396  -40.8575 H         1 UNK         0.3000 
    170 H170        2.3348  -17.3812  -39.1157 H         1 UNK         0.0600 
    171 H171        0.7489  -18.0404  -37.3030 H         1 UNK         0.0600 
    172 H172        0.1595  -19.3780  -38.2823 H         1 UNK         0.0600 
    173 H173        1.8286  -19.3637  -37.7119 H         1 UNK         0.0600 
    174 H174        1.5625  -19.9093  -40.2443 H         1 UNK         0.3000 
    175 H175        3.0513  -20.6344  -42.0311 H         1 UNK         0.0600 
    176 H176        0.7968  -19.2305  -43.5696 H         1 UNK         0.0600 
    177 H177        1.4159  -20.8183  -44.0310 H         1 UNK         0.0600 
    178 H178        0.6311  -20.5943  -42.4775 H         1 UNK         0.0600 
    179 H179        3.7275  -18.3384  -43.6480 H         1 UNK         0.3000 
    180 H180        6.3498  -20.0732  -45.1086 H         1 UNK         0.0600 
    181 H181        4.1433  -19.0367  -46.9581 H         1 UNK         0.0600 
    182 H182        4.7287  -20.6960  -46.9506 H         1 UNK         0.0600 
    183 H183        5.8125  -19.3847  -47.3851 H         1 UNK         0.0600 
    184 H184        5.3255  -17.4368  -45.6320 H         1 UNK         0.3000 
    185 H185        5.9256  -15.7700  -42.9653 H         1 UNK         0.0600 
    186 H186        8.6984  -16.0919  -44.2275 H         1 UNK         0.0600 
    187 H187        8.1462  -14.6931  -43.3051 H         1 UNK         0.0600 
    188 H188        8.3215  -16.2484  -42.5160 H         1 UNK         0.0600 
    189 H189        6.9417  -14.9256  -45.5000 H         1 UNK         0.3000 
    190 H190       -2.7365  -19.9448  -48.5837 H         1 UNK         0.3000 
    191 H191       -4.6967  -22.0162  -49.2654 H         1 UNK         0.0600 
    192 H192       -5.1388  -19.5468  -49.6100 H         1 UNK         0.0600 
    193 H193       -6.3579  -20.3656  -48.6456 H         1 UNK         0.0600 
    194 H194       -5.1667  -19.3388  -47.8627 H         1 UNK         0.0600 
    195 H195       -3.3357  -20.4242  -46.3613 H         1 UNK         0.3000 
    196 H196       -4.7113  -21.9108  -44.3886 H         1 UNK         0.0600 
    197 H197       -2.9360  -21.0480  -42.8794 H         1 UNK         0.0600 
    198 H198       -3.4901  -19.7834  -43.9709 H         1 UNK         0.0600 
    199 H199       -1.9485  -20.5840  -44.2599 H         1 UNK         0.0600 
    200 H200       -1.5933  -22.5561  -46.0260 H         1 UNK         0.3000 
    201 H201       -1.0556  -25.0455  -44.6736 H         1 UNK         0.0600 
    202 H202        0.7095  -23.6056  -45.7082 H         1 UNK         0.0600 
    203 H203        0.0298  -23.9098  -47.3066 H         1 UNK         0.0600 
    204 H204        0.7395  -25.2271  -46.3832 H         1 UNK         0.0600 
    205 H205       -3.3521  -24.2780  -47.0593 H         1 UNK         0.3000 
    206 H206       -4.6536  -25.3212  -48.4830 H         1 UNK         0.0600 
    207 H207       -3.9801  -27.9218  -47.0151 H         1 UNK         0.0600 
    208 H208       -5.1976  -26.7530  -46.5035 H         1 UNK         0.0600 
    209 H209       -5.3906  -27.6176  -48.0190 H         1 UNK         0.0600 
    210 H210       -2.0065  -24.8364  -49.3113 H         1 UNK         0.3000 
    211 H211       -1.2021  -27.0673  -51.0917 H         1 UNK         0.0600 
    212 H212        0.7901  -25.6151  -51.4855 H         1 UNK         0.0600 
    213 H213        0.5608  -25.9253  -49.7709 H         1 UNK         0.0600 
    214 H214        0.1045  -24.3665  -50.4521 H         1 UNK         0.0600 
    215 H215       -2.6345  -23.8079  -51.1475 H         1 UNK         0.3000 
    216 H216       -3.4484  -24.1655  -53.9581 H         1 UNK         0.0600 
    217 H217       -2.4897  -22.0409  -54.7004 H         1 UNK         0.0600 
    218 H218       -1.1862  -23.0246  -54.0630 H         1 UNK         0.0600 
    219 H219       -1.8457  -21.7030  -53.1011 H         1 UNK         0.0600 
    220 H220       -4.8829  -24.3110  -51.5314 H         1 UNK         0.3000 
    221 H221       -6.3595  -21.9412  -50.9303 H         1 UNK         0.0600 
    222 H222       -7.0525  -24.9055  -50.5644 H         1 UNK         0.0600 
    223 H223       -6.2873  -23.8537  -49.3738 H         1 UNK         0.0600 
    224 H224       -7.9469  -23.5645  -49.8590 H         1 UNK         0.0600 
    225 H225       -7.7235  -20.8992  -52.1434 H         1 UNK         0.3000 
    226 H226       -9.2591  -20.2508  -53.5480 H         1 UNK         0.0600 
    227 H227      -10.7143  -22.1443  -52.7609 H         1 UNK         0.0600 
    228 H228      -11.0244  -21.6963  -54.4293 H         1 UNK         0.0600 
    229 H229      -10.1009  -23.1468  -54.0765 H         1 UNK         0.0600 
    230 H230       -6.4784  -21.4879  -54.3905 H         1 UNK         0.3000 
    231 H231       -6.8626  -21.1993  -57.3508 H         1 UNK         0.0600 
    232 H232       -4.6233  -22.6051  -55.8034 H         1 UNK         0.0600 
    233 H233       -4.7160  -22.4160  -57.5478 H         1 UNK         0.0600 
    234 H234       -5.9103  -23.3931  -56.7076 H         1 UNK         0.0600 
    235 H235       -4.5601  -20.4799  -54.6552 H         1 UNK         0.3000 
    236 H236       -3.5608  -18.0849  -56.1177 H         1 UNK         0.0600 
    237 H237       -1.8895  -19.6727  -55.1751 H         1 UNK         0.0600 
    238 H238       -1.7959  -18.1034  -54.3940 H         1 UNK         0.0600 
    239 H239       -2.5725  -19.4478  -53.5623 H         1 UNK         0.0600 
    240 H240       -5.2647  -19.0677  -53.1207 H         1 UNK         0.3000 
    241 H241       -6.5556  -16.5884  -52.7695 H         1 UNK         0.0600 
    242 H242       -8.4077  -18.1772  -50.0892 H         1 UNK         0.3800 
    243 H243       -7.7824  -16.6012  -50.4714 H         1 UNK         0.3800 
    244 H244       -5.5049  -16.0770  -50.4306 H         1 UNK         0.0800 
    245 H245       -4.6748  -15.5633  -51.8522 H         1 UNK         0.0800 
    246 H246       -2.3024  -15.8573  -52.2460 H         1 UNK         0.0800 
    247 H247       -2.4153  -15.1546  -50.6486 H         1 UNK         0.0800 
@<TRIPOS>BOND
     1    1    2 1    
     2    1  127 1    
     3    1  128 1    
     4    1  129 1    
     5    2    3 2    
     6    2    4 am   BACKBONE|DICT|INTERRES
     7    4    5 1    
     8    4  130 1    
     9    5    6 1    
    10    5   65 1    
    11    5  131 1    
    12    6    7 1    
    13    6  132 1    
    14    6  133 1    
    15    7    8 1    
    16    8    9 1    
    17    8  134 1    
    18    8  135 1    
    19    9   10 ar   
    20    9   14 ar   
    21   10   11 ar   
    22   10  136 1    
    23   11   12 ar   
    24   11  126 1    
    25   12   13 ar   
    26   12  137 1    
    27   13   14 ar   
    28   13   15 1    
    29   14  138 1    
    30   15   16 1    
    31   15  139 1    
    32   15  140 1    
    33   16   17 1    
    34   17   18 1    
    35   17  141 1    
    36   17  142 1    
    37   18   19 1    
    38   18   67 1    
    39   18  143 1    
    40   19   20 am   BACKBONE|DICT|INTERRES
    41   19  144 1    
    42   20   21 2    
    43   20   22 1    
    44   22   23 1    
    45   22   24 1    
    46   22  145 1    
    47   23  146 1    
    48   23  147 1    
    49   23  148 1    
    50   24   25 am   BACKBONE|DICT|INTERRES
    51   24  149 1    
    52   25   26 2    
    53   25   27 1    
    54   27   28 1    
    55   27   29 1    
    56   27  150 1    
    57   28  151 1    
    58   28  152 1    
    59   28  153 1    
    60   29   30 am   BACKBONE|DICT|INTERRES
    61   29  154 1    
    62   30   31 2    
    63   30   32 1    
    64   32   33 1    
    65   32   34 1    
    66   32  155 1    
    67   33  156 1    
    68   33  157 1    
    69   33  158 1    
    70   34   35 am   BACKBONE|DICT|INTERRES
    71   34  159 1    
    72   35   36 2    
    73   35   37 1    
    74   37   38 1    
    75   37   39 1    
    76   37  160 1    
    77   38  161 1    
    78   38  162 1    
    79   38  163 1    
    80   39   40 am   BACKBONE|DICT|INTERRES
    81   39  164 1    
    82   40   41 2    
    83   40   42 1    
    84   42   43 1    
    85   42   44 1    
    86   42  165 1    
    87   43  166 1    
    88   43  167 1    
    89   43  168 1    
    90   44   45 am   BACKBONE|DICT|INTERRES
    91   44  169 1    
    92   45   46 2    
    93   45   47 1    
    94   47   48 1    
    95   47   49 1    
    96   47  170 1    
    97   48  171 1    
    98   48  172 1    
    99   48  173 1    
   100   49   50 am   BACKBONE|DICT|INTERRES
   101   49  174 1    
   102   50   51 2    
   103   50   52 1    
   104   52   53 1    
   105   52   54 1    
   106   52  175 1    
   107   53  176 1    
   108   53  177 1    
   109   53  178 1    
   110   54   55 am   BACKBONE|DICT|INTERRES
   111   54  179 1    
   112   55   56 2    
   113   55   57 1    
   114   57   58 1    
   115   57   59 1    
   116   57  180 1    
   117   58  181 1    
   118   58  182 1    
   119   58  183 1    
   120   59   60 am   BACKBONE|DICT|INTERRES
   121   59  184 1    
   122   60   61 2    
   123   60   62 1    
   124   62   63 1    
   125   62   64 1    
   126   62  185 1    
   127   63  186 1    
   128   63  187 1    
   129   63  188 1    
   130   64   65 am   BACKBONE|DICT|INTERRES
   131   64  189 1    
   132   65   66 2    
   133   67   68 2    
   134   67   69 am   BACKBONE|DICT|INTERRES
   135   69   70 1    
   136   69  190 1    
   137   70   71 1    
   138   70   72 1    
   139   70  191 1    
   140   71  192 1    
   141   71  193 1    
   142   71  194 1    
   143   72   73 2    
   144   72   74 am   BACKBONE|DICT|INTERRES
   145   74   75 1    
   146   74  195 1    
   147   75   76 1    
   148   75   77 1    
   149   75  196 1    
   150   76  197 1    
   151   76  198 1    
   152   76  199 1    
   153   77   78 2    
   154   77   79 am   BACKBONE|DICT|INTERRES
   155   79   80 1    
   156   79  200 1    
   157   80   81 1    
   158   80   82 1    
   159   80  201 1    
   160   81  202 1    
   161   81  203 1    
   162   81  204 1    
   163   82   83 2    
   164   82   84 am   BACKBONE|DICT|INTERRES
   165   84   85 1    
   166   84  205 1    
   167   85   86 1    
   168   85   87 1    
   169   85  206 1    
   170   86  207 1    
   171   86  208 1    
   172   86  209 1    
   173   87   88 2    
   174   87   89 am   BACKBONE|DICT|INTERRES
   175   89   90 1    
   176   89  210 1    
   177   90   91 1    
   178   90   92 1    
   179   90  211 1    
   180   91  212 1    
   181   91  213 1    
   182   91  214 1    
   183   92   93 2    
   184   92   94 am   BACKBONE|DICT|INTERRES
   185   94   95 1    
   186   94  215 1    
   187   95   96 1    
   188   95   97 1    
   189   95  216 1    
   190   96  217 1    
   191   96  218 1    
   192   96  219 1    
   193   97   98 2    
   194   97   99 am   BACKBONE|DICT|INTERRES
   195   99  100 1    
   196   99  220 1    
   197  100  101 1    
   198  100  102 1    
   199  100  221 1    
   200  101  222 1    
   201  101  223 1    
   202  101  224 1    
   203  102  103 2    
   204  102  104 am   BACKBONE|DICT|INTERRES
   205  104  105 1    
   206  104  225 1    
   207  105  106 1    
   208  105  107 1    
   209  105  226 1    
   210  106  227 1    
   211  106  228 1    
   212  106  229 1    
   213  107  108 2    
   214  107  109 am   BACKBONE|DICT|INTERRES
   215  109  110 1    
   216  109  230 1    
   217  110  111 1    
   218  110  112 1    
   219  110  231 1    
   220  111  232 1    
   221  111  233 1    
   222  111  234 1    
   223  112  113 2    
   224  112  114 am   BACKBONE|DICT|INTERRES
   225  114  115 1    
   226  114  235 1    
   227  115  116 1    
   228  115  117 1    
   229  115  236 1    
   230  116  237 1    
   231  116  238 1    
   232  116  239 1    
   233  117  118 2    
   234  117  119 am   BACKBONE|DICT|INTERRES
   235  119  120 1    
   236  119  240 1    
   237  120  121 1    
   238  120  124 1    
   239  120  241 1    
   240  121  122 am   BACKBONE|DICT|INTERRES
   241  121  123 2    
   242  122  242 1    
   243  122  243 1    
   244  124  125 1    
   245  124  244 1    
   246  124  245 1    
   247  125  126 1    
   248  126  246 1    
   249  126  247 1    
@<TRIPOS>SUBSTRUCTURE
     1 UNK         1 GROUP             0       ****    0 ROOT    
