@<TRIPOS>MOLECULE
3R540
247   249    1
SMALL
USER_CHARGES


@<TRIPOS>ATOM
      1 CA          9.5072  -13.2645  -48.5926 C.3       0 UNK        -0.1800 
      2 C           8.7212  -13.4920  -47.3091 C.2       0 UNK         0.5000 
      3 O           9.3020  -13.4816  -46.2239 O.2       0 UNK        -0.5000 
      4 N           7.4022  -13.6903  -47.4270 N.am      1 UNK        -0.5000 
      5 CA          6.4823  -13.9327  -46.3073 C.3       1 UNK         0.1400 
      6 C6          5.2506  -14.7558  -46.7643 C.3       23 UNK        -0.0398 
      7 S7          4.1290  -13.8685  -47.9082 S.3       23 UNK        -0.2404 
      8 C8          2.5517  -14.7276  -47.6092 C.3       23 UNK        -0.0205 
      9 C9          2.3733  -15.9106  -48.5484 C.ar      23 UNK        -0.0193 
     10 C10         1.4847  -15.8202  -49.6234 C.ar      23 UNK        -0.1150 
     11 C11         1.3104  -16.8979  -50.4957 C.ar      23 UNK        -0.0193 
     12 C12         2.0460  -18.0692  -50.2972 C.ar      23 UNK        -0.1150 
     13 C13         2.9452  -18.1696  -49.2308 C.ar      23 UNK        -0.0193 
     14 C14         3.0918  -17.0937  -48.3502 C.ar      23 UNK        -0.1150 
     15 C15         3.7830  -19.4274  -49.0497 C.3       23 UNK        -0.0205 
     16 S16         3.1329  -20.5120  -47.7436 S.3       23 UNK        -0.2404 
     17 C17         1.5146  -20.9684  -48.4454 C.3       23 UNK        -0.0398 
     18 CA          0.8600  -22.1450  -47.6880 C.3       11 UNK         0.1400 
     19 N           0.4931  -21.8004  -46.3115 N.am      11 UNK        -0.5000 
     20 C           0.0452  -22.6744  -45.3996 C.2       10 UNK         0.5000 
     21 O          -0.0606  -23.8834  -45.6058 O.2       10 UNK        -0.5000 
     22 CA         -0.4185  -22.0964  -44.0506 C.3       10 UNK         0.1400 
     23 CB          0.7775  -21.7984  -43.1342 C.3       10 UNK        -0.1800 
     24 N          -1.2409  -20.8959  -44.2113 N.am      10 UNK        -0.5000 
     25 C          -2.4385  -20.8818  -44.8148 C.2       9 UNK         0.5000 
     26 O          -2.9920  -21.8902  -45.2523 O.2       9 UNK        -0.5000 
     27 CA         -3.1205  -19.5139  -44.9950 C.3       9 UNK         0.1400 
     28 CB         -3.8373  -19.0909  -43.7044 C.3       9 UNK        -0.1800 
     29 N          -2.1928  -18.4629  -45.4129 N.am      9 UNK        -0.5000 
     30 C          -1.5144  -18.4569  -46.5697 C.2       8 UNK         0.5000 
     31 O          -1.6277  -19.3259  -47.4331 O.2       8 UNK        -0.5000 
     32 CA         -0.4909  -17.3235  -46.7681 C.3       8 UNK         0.1400 
     33 CB         -1.1880  -16.0196  -47.1837 C.3       8 UNK        -0.1800 
     34 N           0.3293  -17.0890  -45.5776 N.am      8 UNK        -0.5000 
     35 C           1.1147  -18.0158  -45.0087 C.2       7 UNK         0.5000 
     36 O           1.2482  -19.1587  -45.4393 O.2       7 UNK        -0.5000 
     37 CA          1.8117  -17.6271  -43.6964 C.3       7 UNK         0.1400 
     38 CB          3.0537  -16.7632  -43.9574 C.3       7 UNK        -0.1800 
     39 N           0.8967  -16.9356  -42.7902 N.am      7 UNK        -0.5000 
     40 C          -0.1358  -17.5284  -42.1729 C.2       6 UNK         0.5000 
     41 O          -0.3904  -18.7294  -42.2629 O.2       6 UNK        -0.5000 
     42 CA         -1.0639  -16.6154  -41.3519 C.3       6 UNK         0.1400 
     43 CB         -0.4872  -16.3746  -39.9489 C.3       6 UNK        -0.1800 
     44 N          -1.3048  -15.3288  -42.0065 N.am      6 UNK        -0.5000 
     45 C          -1.9676  -15.1804  -43.1624 C.2       5 UNK         0.5000 
     46 O          -2.4787  -16.1117  -43.7816 O.2       5 UNK        -0.5000 
     47 CA         -2.0334  -13.7588  -43.7465 C.3       5 UNK         0.1400 
     48 CB         -3.2506  -13.0034  -43.1930 C.3       5 UNK        -0.1800 
     49 N          -0.8209  -12.9759  -43.4983 N.am      5 UNK        -0.5000 
     50 C           0.3901  -13.2732  -43.9865 C.2       4 UNK         0.5000 
     51 O           0.6306  -14.2727  -44.6684 O.2       4 UNK        -0.5000 
     52 CA          1.5270  -12.3010  -43.6285 C.3       4 UNK         0.1400 
     53 CB          2.5641  -12.9804  -42.7220 C.3       4 UNK        -0.1800 
     54 N           2.1895  -11.7859  -44.8243 N.am      4 UNK        -0.5000 
     55 C           1.6169  -10.9616  -45.7149 C.2       3 UNK         0.5000 
     56 O           0.4640  -10.5410  -45.6011 O.2       3 UNK        -0.5000 
     57 CA          2.4704  -10.5313  -46.9293 C.3       3 UNK         0.1400 
     58 CB          2.0319   -9.1755  -47.5214 C.3       3 UNK        -0.1800 
     59 N           3.9139  -10.5419  -46.6682 N.am      3 UNK        -0.5000 
     60 C           4.5932   -9.8206  -45.7616 C.2       2 UNK         0.5000 
     61 O           4.0781   -8.9685  -45.0361 O.2       2 UNK        -0.5000 
     62 CA          6.1065  -10.1167  -45.6502 C.3       2 UNK         0.1400 
     63 CB          6.6673   -9.8340  -44.2407 C.3       2 UNK        -0.1800 
     64 N           6.4675  -11.4706  -46.0954 N.am      2 UNK        -0.5000 
     65 C           6.0640  -12.6390  -45.5683 C.2       1 UNK         0.5000 
     66 O           5.3383  -12.7236  -44.5773 O.2       1 UNK        -0.5000 
     67 C          -0.3444  -22.6915  -48.4781 C.2       11 UNK         0.5000 
     68 O          -0.2073  -23.7153  -49.1454 O.2       11 UNK        -0.5000 
     69 N          -1.5054  -22.0321  -48.3608 N.am      12 UNK        -0.5000 
     70 CA         -2.7652  -22.4449  -48.9803 C.3       12 UNK         0.1400 
     71 CB         -3.8237  -21.3591  -48.7444 C.3       12 UNK        -0.1800 
     72 C          -3.2631  -23.8142  -48.4833 C.2       12 UNK         0.5000 
     73 O          -3.7414  -24.6124  -49.2874 O.2       12 UNK        -0.5000 
     74 N          -3.1147  -24.0789  -47.1787 N.am      13 UNK        -0.5000 
     75 CA         -3.4144  -25.3714  -46.5650 C.3       13 UNK         0.1400 
     76 CB         -3.3950  -25.2341  -45.0352 C.3       13 UNK        -0.1800 
     77 C          -2.4541  -26.4808  -47.0332 C.2       13 UNK         0.5000 
     78 O          -2.9110  -27.5793  -47.3501 O.2       13 UNK        -0.5000 
     79 N          -1.1506  -26.1712  -47.0878 N.am      14 UNK        -0.5000 
     80 CA         -0.0929  -27.0882  -47.5174 C.3       14 UNK         0.1400 
     81 CB          1.2785  -26.4841  -47.1783 C.3       14 UNK        -0.1800 
     82 C          -0.1727  -27.4511  -49.0118 C.2       14 UNK         0.5000 
     83 O          -0.0165  -28.6219  -49.3612 O.2       14 UNK        -0.5000 
     84 N          -0.4224  -26.4482  -49.8640 N.am      15 UNK        -0.5000 
     85 CA         -0.5649  -26.6029  -51.3142 C.3       15 UNK         0.1400 
     86 CB         -0.3817  -25.2304  -51.9809 C.3       15 UNK        -0.1800 
     87 C          -1.9114  -27.2225  -51.7367 C.2       15 UNK         0.5000 
     88 O          -2.0128  -27.7187  -52.8599 O.2       15 UNK        -0.5000 
     89 N          -2.9045  -27.1705  -50.8373 N.am      16 UNK        -0.5000 
     90 CA         -4.3163  -27.5196  -51.0144 C.3       16 UNK         0.1400 
     91 CB         -4.4896  -28.9738  -51.5038 C.3       16 UNK        -0.1800 
     92 C          -5.0711  -26.4998  -51.8941 C.2       16 UNK         0.5000 
     93 O          -4.4762  -25.5502  -52.4100 O.2       16 UNK        -0.5000 
     94 N          -6.3934  -26.7002  -52.0088 N.am      17 UNK        -0.5000 
     95 CA         -7.3674  -25.7923  -52.6303 C.3       17 UNK         0.1400 
     96 CB         -7.1210  -25.6428  -54.1466 C.3       17 UNK        -0.1800 
     97 C          -7.4394  -24.4408  -51.8893 C.2       17 UNK         0.5000 
     98 O          -7.4551  -23.3780  -52.5131 O.2       17 UNK        -0.5000 
     99 N          -7.4903  -24.5099  -50.5510 N.am      18 UNK        -0.5000 
    100 CA        -7.4675  -23.3648  -49.6352 C.3       18 UNK         0.1400 
    101 CB        -7.3158  -23.8779  -48.1951 C.3       18 UNK        -0.1800 
    102 C         -8.6711  -22.4070  -49.7580 C.2       18 UNK         0.5000 
    103 O         -8.5875  -21.2749  -49.2834 O.2       18 UNK        -0.5000 
    104 N         -9.7519  -22.8558  -50.4117 N.am      19 UNK        -0.5000 
    105 CA       -10.8896  -22.0233  -50.8056 C.3       19 UNK         0.1400 
    106 CB       -12.0424  -22.9307  -51.2615 C.3       19 UNK        -0.1800 
    107 C        -10.5296  -21.0078  -51.9106 C.2       19 UNK         0.5000 
    108 O        -11.1004  -19.9167  -51.9343 O.2       19 UNK        -0.5000 
    109 N         -9.5884  -21.3762  -52.7920 N.am      20 UNK        -0.5000 
    110 CA        -9.0154  -20.4986  -53.8122 C.3       20 UNK         0.1400 
    111 CB        -8.6798  -21.3209  -55.0670 C.3       20 UNK        -0.1800 
    112 C         -7.7637  -19.7853  -53.2729 C.2       20 UNK         0.5000 
    113 O         -7.6079  -18.5857  -53.5024 O.2       20 UNK        -0.5000 
    114 N         -6.9220  -20.5336  -52.5426 N.am      21 UNK        -0.5000 
    115 CA        -5.6760  -20.1034  -51.9028 C.3       21 UNK         0.1400 
    116 CB        -5.9685  -19.1106  -50.7531 C.3       21 UNK        -0.1800 
    117 C         -4.6303  -19.6045  -52.9252 C.2       21 UNK         0.5000 
    118 O         -4.4556  -20.2422  -53.9660 O.2       21 UNK        -0.5000 
    119 N         -3.9304  -18.5107  -52.5987 N.am      22 UNK        -0.5000 
    120 CA        -2.9171  -17.8499  -53.4349 C.3       22 UNK         0.1400 
    121 C         -3.4839  -17.3606  -54.7984 C.2       22 UNK         0.5000 
    122 N         -2.7914  -17.6229  -55.8986 N.am      22 UNK        -0.7600 
    123 O         -4.5186  -16.7007  -54.8592 O.2       22 UNK        -0.5000 
    124 C124       -2.2629  -16.6633  -52.6826 C.3       23 UNK        -0.0398 
    125 S125       -1.3589  -17.1703  -51.1775 S.3       23 UNK        -0.2404 
    126 C126        0.3495  -16.7784  -51.6672 C.3       23 UNK        -0.0205 
    127 H127        9.9896  -12.2874  -48.5692 H         1 UNK         0.0600 
    128 H128        8.8662  -13.3066  -49.4736 H         1 UNK         0.0600 
    129 H129       10.2805  -14.0252  -48.6986 H         1 UNK         0.0600 
    130 H130        6.9764  -13.6863  -48.3439 H         1 UNK         0.3000 
    131 H131        7.0095  -14.5407  -45.5689 H         1 UNK         0.0600 
    132 H132        5.5857  -15.6716  -47.2524 H         1 UNK         0.0800 
    133 H133        4.6875  -15.0783  -45.8878 H         1 UNK         0.0800 
    134 H134        2.4777  -15.0589  -46.5745 H         1 UNK         0.0800 
    135 H135        1.7401  -14.0118  -47.7463 H         1 UNK         0.0800 
    136 H136        0.9231  -14.9104  -49.7823 H         1 UNK         0.1150 
    137 H137        1.9250  -18.8992  -50.9790 H         1 UNK         0.1150 
    138 H138        3.7755  -17.1764  -47.5182 H         1 UNK         0.1150 
    139 H139        3.8482  -19.9852  -49.9851 H         1 UNK         0.0800 
    140 H140        4.8056  -19.1457  -48.7945 H         1 UNK         0.0800 
    141 H141        1.6669  -21.2260  -49.4953 H         1 UNK         0.0800 
    142 H142        0.8641  -20.0921  -48.4301 H         1 UNK         0.0800 
    143 H143        1.5913  -22.9542  -47.6318 H         1 UNK         0.0600 
    144 H144        0.6045  -20.8243  -46.0450 H         1 UNK         0.3000 
    145 H145       -1.0333  -22.8549  -43.5617 H         1 UNK         0.0600 
    146 H146        0.4463  -21.4563  -42.1537 H         1 UNK         0.0600 
    147 H147        1.3817  -22.6931  -42.9800 H         1 UNK         0.0600 
    148 H148        1.4289  -21.0317  -43.5528 H         1 UNK         0.0600 
    149 H149       -0.8611  -20.0296  -43.8460 H         1 UNK         0.3000 
    150 H150       -3.8728  -19.6200  -45.7788 H         1 UNK         0.0600 
    151 H151       -4.5404  -19.8581  -43.3777 H         1 UNK         0.0600 
    152 H152       -4.4048  -18.1720  -43.8526 H         1 UNK         0.0600 
    153 H153       -3.1329  -18.9208  -42.8897 H         1 UNK         0.0600 
    154 H154       -2.0798  -17.6798  -44.7744 H         1 UNK         0.3000 
    155 H155        0.1799  -17.6248  -47.5748 H         1 UNK         0.0600 
    156 H156       -0.4691  -15.2144  -47.3310 H         1 UNK         0.0600 
    157 H157       -1.9088  -15.6905  -46.4360 H         1 UNK         0.0600 
    158 H158       -1.7260  -16.1519  -48.1231 H         1 UNK         0.0600 
    159 H159        0.2934  -16.1596  -45.1702 H         1 UNK         0.3000 
    160 H160        2.1420  -18.5475  -43.2098 H         1 UNK         0.0600 
    161 H161        3.5916  -16.5556  -43.0324 H         1 UNK         0.0600 
    162 H162        2.7925  -15.8101  -44.4128 H         1 UNK         0.0600 
    163 H163        3.7457  -17.2704  -44.6310 H         1 UNK         0.0600 
    164 H164        1.0034  -15.9357  -42.7096 H         1 UNK         0.3000 
    165 H165       -2.0233  -17.1261  -41.2445 H         1 UNK         0.0600 
    166 H166       -1.1746  -15.7924  -39.3349 H         1 UNK         0.0600 
    167 H167       -0.3123  -17.3193  -39.4323 H         1 UNK         0.0600 
    168 H168        0.4632  -15.8408  -39.9882 H         1 UNK         0.0600 
    169 H169       -0.9198  -14.5082  -41.5630 H         1 UNK         0.3000 
    170 H170       -2.1536  -13.8513  -44.8276 H         1 UNK         0.0600 
    171 H171       -4.1719  -13.5558  -43.3834 H         1 UNK         0.0600 
    172 H172       -3.1758  -12.8509  -42.1156 H         1 UNK         0.0600 
    173 H173       -3.3563  -12.0263  -43.6648 H         1 UNK         0.0600 
    174 H174       -0.9359  -12.1311  -42.9571 H         1 UNK         0.3000 
    175 H175        1.1102  -11.4517  -43.0830 H         1 UNK         0.0600 
    176 H176        3.0738  -13.7969  -43.2328 H         1 UNK         0.0600 
    177 H177        3.3248  -12.2703  -42.3969 H         1 UNK         0.0600 
    178 H178        2.0968  -13.3905  -41.8259 H         1 UNK         0.0600 
    179 H179        3.1432  -12.0880  -44.9757 H         1 UNK         0.3000 
    180 H180        2.2979  -11.2898  -47.6939 H         1 UNK         0.0600 
    181 H181        2.6450   -8.9037  -48.3807 H         1 UNK         0.0600 
    182 H182        2.1039   -8.3709  -46.7893 H         1 UNK         0.0600 
    183 H183        0.9971   -9.2134  -47.8635 H         1 UNK         0.0600 
    184 H184        4.4393  -11.2208  -47.2011 H         1 UNK         0.3000 
    185 H185        6.5968   -9.4300  -46.3414 H         1 UNK         0.0600 
    186 H186        7.7327  -10.0583  -44.1879 H         1 UNK         0.0600 
    187 H187        6.5451   -8.7836  -43.9742 H         1 UNK         0.0600 
    188 H188        6.1614  -10.4243  -43.4762 H         1 UNK         0.0600 
    189 H189        7.0515  -11.5177  -46.9184 H         1 UNK         0.3000 
    190 H190       -1.5280  -21.1643  -47.8299 H         1 UNK         0.3000 
    191 H191       -2.5948  -22.5271  -50.0557 H         1 UNK         0.0600 
    192 H192       -4.7717  -21.6253  -49.2065 H         1 UNK         0.0600 
    193 H193       -3.5069  -20.4072  -49.1698 H         1 UNK         0.0600 
    194 H194       -4.0129  -21.2042  -47.6826 H         1 UNK         0.0600 
    195 H195       -2.7769  -23.3452  -46.5627 H         1 UNK         0.3000 
    196 H196       -4.4247  -25.6592  -46.8631 H         1 UNK         0.0600 
    197 H197       -2.4186  -24.9151  -44.6699 H         1 UNK         0.0600 
    198 H198       -4.1313  -24.5046  -44.6972 H         1 UNK         0.0600 
    199 H199       -3.6324  -26.1838  -44.5545 H         1 UNK         0.0600 
    200 H200       -0.8519  -25.2545  -46.7669 H         1 UNK         0.3000 
    201 H201       -0.2025  -28.0129  -46.9472 H         1 UNK         0.0600 
    202 H202        1.4361  -25.5324  -47.6867 H         1 UNK         0.0600 
    203 H203        2.0861  -27.1542  -47.4754 H         1 UNK         0.0600 
    204 H204        1.3777  -26.3100  -46.1068 H         1 UNK         0.0600 
    205 H205       -0.4842  -25.4976  -49.5035 H         1 UNK         0.3000 
    206 H206        0.2286  -27.2628  -51.6711 H         1 UNK         0.0600 
    207 H207        0.5861  -24.7951  -51.7315 H         1 UNK         0.0600 
    208 H208       -0.4323  -25.3123  -53.0673 H         1 UNK         0.0600 
    209 H209       -1.1566  -24.5287  -51.6683 H         1 UNK         0.0600 
    210 H210       -2.7048  -26.6782  -49.9768 H         1 UNK         0.3000 
    211 H211       -4.7526  -27.4497  -50.0168 H         1 UNK         0.0600 
    212 H212       -5.5231  -29.3045  -51.3998 H         1 UNK         0.0600 
    213 H213       -3.8743  -29.6611  -50.9230 H         1 UNK         0.0600 
    214 H214       -4.2197  -29.0865  -52.5541 H         1 UNK         0.0600 
    215 H215       -6.7903  -27.5137  -51.5596 H         1 UNK         0.3000 
    216 H216       -8.3456  -26.2588  -52.5058 H         1 UNK         0.0600 
    217 H217       -7.9289  -25.0812  -54.6172 H         1 UNK         0.0600 
    218 H218       -6.1927  -25.1130  -54.3611 H         1 UNK         0.0600 
    219 H219       -7.0735  -26.6154  -54.6362 H         1 UNK         0.0600 
    220 H220       -7.4769  -25.4225  -50.1203 H         1 UNK         0.3000 
    221 H221       -6.5808  -22.7815  -49.8829 H         1 UNK         0.0600 
    222 H222       -6.4130  -24.4787  -48.0836 H         1 UNK         0.0600 
    223 H223       -8.1674  -24.4893  -47.8947 H         1 UNK         0.0600 
    224 H224       -7.2394  -23.0493  -47.4897 H         1 UNK         0.0600 
    225 H225       -9.7462  -23.8079  -50.7452 H         1 UNK         0.3000 
    226 H226      -11.2222  -21.4604  -49.9309 H         1 UNK         0.0600 
    227 H227      -11.7636  -23.5329  -52.1271 H         1 UNK         0.0600 
    228 H228      -12.3499  -23.6083  -50.4648 H         1 UNK         0.0600 
    229 H229      -12.9163  -22.3403  -51.5401 H         1 UNK         0.0600 
    230 H230       -9.1280  -22.2707  -52.6699 H         1 UNK         0.3000 
    231 H231       -9.7440  -19.7367  -54.0975 H         1 UNK         0.0600 
    232 H232       -7.9451  -22.0997  -54.8604 H         1 UNK         0.0600 
    233 H233       -8.2684  -20.6831  -55.8503 H         1 UNK         0.0600 
    234 H234       -9.5707  -21.8008  -55.4722 H         1 UNK         0.0600 
    235 H235       -7.1127  -21.5307  -52.4892 H         1 UNK         0.3000 
    236 H236       -5.2472  -21.0033  -51.4616 H         1 UNK         0.0600 
    237 H237       -5.0718  -18.8880  -50.1748 H         1 UNK         0.0600 
    238 H238       -6.3685  -18.1653  -51.1211 H         1 UNK         0.0600 
    239 H239       -6.6957  -19.5254  -50.0561 H         1 UNK         0.0600 
    240 H240       -4.1405  -18.0502  -51.7261 H         1 UNK         0.3000 
    241 H241       -2.1412  -18.5908  -53.6375 H         1 UNK         0.0600 
    242 H242       -3.1405  -17.2953  -56.7861 H         1 UNK         0.3800 
    243 H243       -1.9370  -18.1580  -55.8725 H         1 UNK         0.3800 
    244 H244       -3.0214  -15.9341  -52.3924 H         1 UNK         0.0800 
    245 H245       -1.5787  -16.1289  -53.3442 H         1 UNK         0.0800 
    246 H246        0.3934  -15.7628  -52.0637 H         1 UNK         0.0800 
    247 H247        0.6540  -17.4407  -52.4791 H         1 UNK         0.0800 
@<TRIPOS>BOND
     1    1    2 1    
     2    1  127 1    
     3    1  128 1    
     4    1  129 1    
     5    2    3 2    
     6    2    4 am   BACKBONE|DICT|INTERRES
     7    4    5 1    
     8    4  130 1    
     9    5    6 1    
    10    5   65 1    
    11    5  131 1    
    12    6    7 1    
    13    6  132 1    
    14    6  133 1    
    15    7    8 1    
    16    8    9 1    
    17    8  134 1    
    18    8  135 1    
    19    9   10 ar   
    20    9   14 ar   
    21   10   11 ar   
    22   10  136 1    
    23   11   12 ar   
    24   11  126 1    
    25   12   13 ar   
    26   12  137 1    
    27   13   14 ar   
    28   13   15 1    
    29   14  138 1    
    30   15   16 1    
    31   15  139 1    
    32   15  140 1    
    33   16   17 1    
    34   17   18 1    
    35   17  141 1    
    36   17  142 1    
    37   18   19 1    
    38   18   67 1    
    39   18  143 1    
    40   19   20 am   BACKBONE|DICT|INTERRES
    41   19  144 1    
    42   20   21 2    
    43   20   22 1    
    44   22   23 1    
    45   22   24 1    
    46   22  145 1    
    47   23  146 1    
    48   23  147 1    
    49   23  148 1    
    50   24   25 am   BACKBONE|DICT|INTERRES
    51   24  149 1    
    52   25   26 2    
    53   25   27 1    
    54   27   28 1    
    55   27   29 1    
    56   27  150 1    
    57   28  151 1    
    58   28  152 1    
    59   28  153 1    
    60   29   30 am   BACKBONE|DICT|INTERRES
    61   29  154 1    
    62   30   31 2    
    63   30   32 1    
    64   32   33 1    
    65   32   34 1    
    66   32  155 1    
    67   33  156 1    
    68   33  157 1    
    69   33  158 1    
    70   34   35 am   BACKBONE|DICT|INTERRES
    71   34  159 1    
    72   35   36 2    
    73   35   37 1    
    74   37   38 1    
    75   37   39 1    
    76   37  160 1    
    77   38  161 1    
    78   38  162 1    
    79   38  163 1    
    80   39   40 am   BACKBONE|DICT|INTERRES
    81   39  164 1    
    82   40   41 2    
    83   40   42 1    
    84   42   43 1    
    85   42   44 1    
    86   42  165 1    
    87   43  166 1    
    88   43  167 1    
    89   43  168 1    
    90   44   45 am   BACKBONE|DICT|INTERRES
    91   44  169 1    
    92   45   46 2    
    93   45   47 1    
    94   47   48 1    
    95   47   49 1    
    96   47  170 1    
    97   48  171 1    
    98   48  172 1    
    99   48  173 1    
   100   49   50 am   BACKBONE|DICT|INTERRES
   101   49  174 1    
   102   50   51 2    
   103   50   52 1    
   104   52   53 1    
   105   52   54 1    
   106   52  175 1    
   107   53  176 1    
   108   53  177 1    
   109   53  178 1    
   110   54   55 am   BACKBONE|DICT|INTERRES
   111   54  179 1    
   112   55   56 2    
   113   55   57 1    
   114   57   58 1    
   115   57   59 1    
   116   57  180 1    
   117   58  181 1    
   118   58  182 1    
   119   58  183 1    
   120   59   60 am   BACKBONE|DICT|INTERRES
   121   59  184 1    
   122   60   61 2    
   123   60   62 1    
   124   62   63 1    
   125   62   64 1    
   126   62  185 1    
   127   63  186 1    
   128   63  187 1    
   129   63  188 1    
   130   64   65 am   BACKBONE|DICT|INTERRES
   131   64  189 1    
   132   65   66 2    
   133   67   68 2    
   134   67   69 am   BACKBONE|DICT|INTERRES
   135   69   70 1    
   136   69  190 1    
   137   70   71 1    
   138   70   72 1    
   139   70  191 1    
   140   71  192 1    
   141   71  193 1    
   142   71  194 1    
   143   72   73 2    
   144   72   74 am   BACKBONE|DICT|INTERRES
   145   74   75 1    
   146   74  195 1    
   147   75   76 1    
   148   75   77 1    
   149   75  196 1    
   150   76  197 1    
   151   76  198 1    
   152   76  199 1    
   153   77   78 2    
   154   77   79 am   BACKBONE|DICT|INTERRES
   155   79   80 1    
   156   79  200 1    
   157   80   81 1    
   158   80   82 1    
   159   80  201 1    
   160   81  202 1    
   161   81  203 1    
   162   81  204 1    
   163   82   83 2    
   164   82   84 am   BACKBONE|DICT|INTERRES
   165   84   85 1    
   166   84  205 1    
   167   85   86 1    
   168   85   87 1    
   169   85  206 1    
   170   86  207 1    
   171   86  208 1    
   172   86  209 1    
   173   87   88 2    
   174   87   89 am   BACKBONE|DICT|INTERRES
   175   89   90 1    
   176   89  210 1    
   177   90   91 1    
   178   90   92 1    
   179   90  211 1    
   180   91  212 1    
   181   91  213 1    
   182   91  214 1    
   183   92   93 2    
   184   92   94 am   BACKBONE|DICT|INTERRES
   185   94   95 1    
   186   94  215 1    
   187   95   96 1    
   188   95   97 1    
   189   95  216 1    
   190   96  217 1    
   191   96  218 1    
   192   96  219 1    
   193   97   98 2    
   194   97   99 am   BACKBONE|DICT|INTERRES
   195   99  100 1    
   196   99  220 1    
   197  100  101 1    
   198  100  102 1    
   199  100  221 1    
   200  101  222 1    
   201  101  223 1    
   202  101  224 1    
   203  102  103 2    
   204  102  104 am   BACKBONE|DICT|INTERRES
   205  104  105 1    
   206  104  225 1    
   207  105  106 1    
   208  105  107 1    
   209  105  226 1    
   210  106  227 1    
   211  106  228 1    
   212  106  229 1    
   213  107  108 2    
   214  107  109 am   BACKBONE|DICT|INTERRES
   215  109  110 1    
   216  109  230 1    
   217  110  111 1    
   218  110  112 1    
   219  110  231 1    
   220  111  232 1    
   221  111  233 1    
   222  111  234 1    
   223  112  113 2    
   224  112  114 am   BACKBONE|DICT|INTERRES
   225  114  115 1    
   226  114  235 1    
   227  115  116 1    
   228  115  117 1    
   229  115  236 1    
   230  116  237 1    
   231  116  238 1    
   232  116  239 1    
   233  117  118 2    
   234  117  119 am   BACKBONE|DICT|INTERRES
   235  119  120 1    
   236  119  240 1    
   237  120  121 1    
   238  120  124 1    
   239  120  241 1    
   240  121  122 am   BACKBONE|DICT|INTERRES
   241  121  123 2    
   242  122  242 1    
   243  122  243 1    
   244  124  125 1    
   245  124  244 1    
   246  124  245 1    
   247  125  126 1    
   248  126  246 1    
   249  126  247 1    
@<TRIPOS>SUBSTRUCTURE
     1 UNK         1 GROUP             0       ****    0 ROOT    
