@<TRIPOS>MOLECULE
3R540
247   249    1
SMALL
USER_CHARGES


@<TRIPOS>ATOM
      1 CA         -0.0226  -10.2498  -50.3582 C.3       0 UNK        -0.1800 
      2 C          -0.2601  -11.7064  -49.9858 C.2       0 UNK         0.5000 
      3 O           0.6498  -12.5258  -50.1106 O.2       0 UNK        -0.5000 
      4 N          -1.4779  -12.0276  -49.5306 N.am      1 UNK        -0.5000 
      5 CA         -1.9009  -13.3726  -49.1146 C.3       1 UNK         0.1400 
      6 C6         -3.4362  -13.4546  -48.9298 C.3       23 UNK        -0.0398 
      7 S7         -4.3264  -13.2062  -50.5045 S.3       23 UNK        -0.2404 
      8 C8         -4.7829  -14.9143  -50.9462 C.3       23 UNK        -0.0205 
      9 C9         -3.5621  -15.8005  -51.1433 C.ar      23 UNK        -0.0193 
     10 C10        -2.8356  -15.7474  -52.3352 C.ar      23 UNK        -0.1150 
     11 C11        -1.7159  -16.5646  -52.5233 C.ar      23 UNK        -0.0193 
     12 C12        -1.3155  -17.4276  -51.4968 C.ar      23 UNK        -0.1150 
     13 C13        -2.0261  -17.4788  -50.2940 C.ar      23 UNK        -0.0193 
     14 C14        -3.1520  -16.6685  -50.1285 C.ar      23 UNK        -0.1150 
     15 C15        -1.5494  -18.3539  -49.1445 C.3       23 UNK        -0.0205 
     16 S16        -2.7797  -19.6104  -48.6584 S.3       23 UNK        -0.2404 
     17 C17        -2.2354  -19.9627  -46.9516 C.3       23 UNK        -0.0398 
     18 CA         -1.6331  -21.3823  -46.7853 C.3       11 UNK         0.1400 
     19 N          -0.4534  -21.3773  -45.9130 N.am      11 UNK        -0.5000 
     20 C           0.3510  -22.4291  -45.7032 C.2       10 UNK         0.5000 
     21 O           0.2173  -23.5146  -46.2660 O.2       10 UNK        -0.5000 
     22 CA          1.4579  -22.2584  -44.6473 C.3       10 UNK         0.1400 
     23 CB          2.6828  -21.5540  -45.2486 C.3       10 UNK        -0.1800 
     24 N           0.9964  -21.5342  -43.4611 N.am      10 UNK        -0.5000 
     25 C           0.0415  -21.9778  -42.6304 C.2       9 UNK         0.5000 
     26 O          -0.5057  -23.0726  -42.7471 O.2       9 UNK        -0.5000 
     27 CA         -0.4228  -21.0257  -41.5145 C.3       9 UNK         0.1400 
     28 CB          0.5330  -21.0842  -40.3147 C.3       9 UNK        -0.1800 
     29 N          -0.5642  -19.6430  -41.9705 N.am      9 UNK        -0.5000 
     30 C          -1.4154  -19.2331  -42.9225 C.2       8 UNK         0.5000 
     31 O          -2.2055  -19.9773  -43.5044 O.2       8 UNK        -0.5000 
     32 CA         -1.3234  -17.7530  -43.3349 C.3       8 UNK         0.1400 
     33 CB         -2.0598  -16.8510  -42.3331 C.3       8 UNK        -0.1800 
     34 N           0.0645  -17.3109  -43.4712 N.am      8 UNK        -0.5000 
     35 C           0.9106  -17.7668  -44.4061 C.2       7 UNK         0.5000 
     36 O           0.5946  -18.5703  -45.2837 O.2       7 UNK        -0.5000 
     37 CA          2.3682  -17.2874  -44.3025 C.3       7 UNK         0.1400 
     38 CB          2.5335  -15.8908  -44.9182 C.3       7 UNK        -0.1800 
     39 N           2.8401  -17.2753  -42.9169 N.am      7 UNK        -0.5000 
     40 C           3.0843  -18.3845  -42.2024 C.2       6 UNK         0.5000 
     41 O           2.9576  -19.5227  -42.6509 O.2       6 UNK        -0.5000 
     42 CA          3.5063  -18.2006  -40.7321 C.3       6 UNK         0.1400 
     43 CB          5.0322  -18.0640  -40.6261 C.3       6 UNK        -0.1800 
     44 N           2.8771  -17.0494  -40.0863 N.am      6 UNK        -0.5000 
     45 C           1.5581  -16.8797  -39.9159 C.2       5 UNK         0.5000 
     46 O           0.7141  -17.7103  -40.2501 O.2       5 UNK        -0.5000 
     47 CA          1.1053  -15.5323  -39.3201 C.3       5 UNK         0.1400 
     48 CB          0.8943  -15.6593  -37.8043 C.3       5 UNK        -0.1800 
     49 N           2.0398  -14.4330  -39.5891 N.am      5 UNK        -0.5000 
     50 C           2.3369  -13.9743  -40.8115 C.2       4 UNK         0.5000 
     51 O           1.8525  -14.4329  -41.8515 O.2       4 UNK        -0.5000 
     52 CA          3.4007  -12.8666  -40.8920 C.3       4 UNK         0.1400 
     53 CB          4.8038  -13.4872  -40.9801 C.3       4 UNK        -0.1800 
     54 N           3.1674  -12.0568  -42.0835 N.am      4 UNK        -0.5000 
     55 C           2.2701  -11.0657  -42.1541 C.2       3 UNK         0.5000 
     56 O           1.7005  -10.5756  -41.1786 O.2       3 UNK        -0.5000 
     57 CA          1.8814  -10.6258  -43.5678 C.3       3 UNK         0.1400 
     58 CB          3.0661  -10.0251  -44.3470 C.3       3 UNK        -0.1800 
     59 N           1.3407  -11.7947  -44.2560 N.am      3 UNK        -0.5000 
     60 C           0.4444  -11.7594  -45.2437 C.2       2 UNK         0.5000 
     61 O           0.0198  -10.7184  -45.7549 O.2       2 UNK        -0.5000 
     62 CA         -0.0740  -13.1210  -45.7280 C.3       2 UNK         0.1400 
     63 CB         -0.9390  -13.8139  -44.6553 C.3       2 UNK        -0.1800 
     64 N          -0.8376  -12.9134  -46.9507 N.am      2 UNK        -0.5000 
     65 C          -1.1798  -13.8534  -47.8373 C.2       1 UNK         0.5000 
     66 O          -0.9390  -15.0511  -47.6880 O.2       1 UNK        -0.5000 
     67 C          -2.6980  -22.3894  -46.2994 C.2       11 UNK         0.5000 
     68 O          -3.2301  -23.1566  -47.1035 O.2       11 UNK        -0.5000 
     69 N          -2.9568  -22.3906  -44.9834 N.am      12 UNK        -0.5000 
     70 CA         -3.8684  -23.3147  -44.3103 C.3       12 UNK         0.1400 
     71 CB         -4.0925  -22.8561  -42.8618 C.3       12 UNK        -0.1800 
     72 C          -3.3793  -24.7733  -44.3603 C.2       12 UNK         0.5000 
     73 O          -4.1751  -25.6641  -44.6565 O.2       12 UNK        -0.5000 
     74 N          -2.0778  -24.9922  -44.1225 N.am      13 UNK        -0.5000 
     75 CA         -1.4146  -26.2969  -44.2187 C.3       13 UNK         0.1400 
     76 CB          0.0251  -26.1832  -43.6964 C.3       13 UNK        -0.1800 
     77 C          -1.4298  -26.8748  -45.6467 C.2       13 UNK         0.5000 
     78 O          -1.5764  -28.0859  -45.8129 O.2       13 UNK        -0.5000 
     79 N          -1.3300  -25.9922  -46.6493 N.am      14 UNK        -0.5000 
     80 CA         -1.4893  -26.3036  -48.0698 C.3       14 UNK         0.1400 
     81 CB         -0.8279  -25.1885  -48.8990 C.3       14 UNK        -0.1800 
     82 C          -2.9603  -26.4933  -48.4976 C.2       14 UNK         0.5000 
     83 O          -3.2008  -26.7790  -49.6691 O.2       14 UNK        -0.5000 
     84 N          -3.9207  -26.2979  -47.5798 N.am      15 UNK        -0.5000 
     85 CA         -5.3724  -26.3662  -47.7874 C.3       15 UNK         0.1400 
     86 CB         -5.8130  -27.8178  -48.0684 C.3       15 UNK        -0.1800 
     87 C          -5.8695  -25.3648  -48.8519 C.2       15 UNK         0.5000 
     88 O          -6.7672  -25.6832  -49.6334 O.2       15 UNK        -0.5000 
     89 N          -5.2437  -24.1784  -48.8715 N.am      16 UNK        -0.5000 
     90 CA         -5.4391  -23.0748  -49.8140 C.3       16 UNK         0.1400 
     91 CB         -6.8729  -22.5123  -49.7337 C.3       16 UNK        -0.1800 
     92 C          -5.0033  -23.3883  -51.2619 C.2       16 UNK         0.5000 
     93 O          -5.3398  -22.6235  -52.1666 O.2       16 UNK        -0.5000 
     94 N          -4.2131  -24.4541  -51.4770 N.am      17 UNK        -0.5000 
     95 CA         -3.6362  -24.7848  -52.7859 C.3       17 UNK         0.1400 
     96 CB         -2.9671  -26.1648  -52.7414 C.3       17 UNK        -0.1800 
     97 C          -2.6395  -23.7206  -53.2802 C.2       17 UNK         0.5000 
     98 O          -2.5456  -23.4940  -54.4848 O.2       17 UNK        -0.5000 
     99 N          -1.9607  -23.0439  -52.3423 N.am      18 UNK        -0.5000 
    100 CA        -1.0969  -21.8930  -52.6078 C.3       18 UNK         0.1400 
    101 CB        -0.3662  -21.5006  -51.3145 C.3       18 UNK        -0.1800 
    102 C         -1.8713  -20.6923  -53.1858 C.2       18 UNK         0.5000 
    103 O         -1.3702  -20.0344  -54.0965 O.2       18 UNK        -0.5000 
    104 N         -3.0914  -20.4647  -52.6759 N.am      19 UNK        -0.5000 
    105 CA        -4.0062  -19.4206  -53.1403 C.3       19 UNK         0.1400 
    106 CB        -5.1045  -19.1890  -52.0912 C.3       19 UNK        -0.1800 
    107 C         -4.6145  -19.7326  -54.5186 C.2       19 UNK         0.5000 
    108 O         -4.9244  -18.8070  -55.2684 O.2       19 UNK        -0.5000 
    109 N         -4.7631  -21.0248  -54.8394 N.am      20 UNK        -0.5000 
    110 CA        -5.1564  -21.4946  -56.1655 C.3       20 UNK         0.1400 
    111 CB        -5.6548  -22.9453  -56.0755 C.3       20 UNK        -0.1800 
    112 C         -4.0020  -21.3616  -57.1763 C.2       20 UNK         0.5000 
    113 O         -4.2240  -20.8849  -58.2901 O.2       20 UNK        -0.5000 
    114 N         -2.7897  -21.7624  -56.7643 N.am      21 UNK        -0.5000 
    115 CA        -1.5731  -21.7789  -57.5812 C.3       21 UNK         0.1400 
    116 CB        -0.4238  -22.4080  -56.7790 C.3       21 UNK        -0.1800 
    117 C         -1.1552  -20.4030  -58.1318 C.2       21 UNK         0.5000 
    118 O         -0.6852  -20.3319  -59.2684 O.2       21 UNK        -0.5000 
    119 N         -1.3502  -19.3403  -57.3405 N.am      22 UNK        -0.5000 
    120 CA        -1.1390  -17.9462  -57.7672 C.3       22 UNK         0.1400 
    121 C         -2.2862  -17.3433  -58.6361 C.2       22 UNK         0.5000 
    122 N         -3.3707  -18.0570  -58.9179 N.am      22 UNK        -0.7600 
    123 O         -2.1799  -16.2062  -59.0882 O.2       22 UNK        -0.5000 
    124 C124       -0.7309  -17.0260  -56.5873 C.3       23 UNK        -0.0398 
    125 S125       -1.9835  -16.9054  -55.2676 S.3       23 UNK        -0.2404 
    126 C126       -0.9358  -16.5130  -53.8300 C.3       23 UNK        -0.0205 
    127 H127       -0.9170   -9.6431  -50.2149 H         1 UNK         0.0600 
    128 H128        0.2757  -10.1735  -51.4038 H         1 UNK         0.0600 
    129 H129        0.7742   -9.8312  -49.7433 H         1 UNK         0.0600 
    130 H130       -2.1886  -11.3120  -49.4761 H         1 UNK         0.3000 
    131 H131       -1.6139  -14.0649  -49.9091 H         1 UNK         0.0600 
    132 H132       -3.7754  -12.6973  -48.2211 H         1 UNK         0.0800 
    133 H133       -3.7329  -14.4120  -48.4995 H         1 UNK         0.0800 
    134 H134       -5.4370  -15.3263  -50.1761 H         1 UNK         0.0800 
    135 H135       -5.3703  -14.8972  -51.8654 H         1 UNK         0.0800 
    136 H136       -3.1460  -15.0738  -53.1217 H         1 UNK         0.1150 
    137 H137       -0.4443  -18.0529  -51.6310 H         1 UNK         0.1150 
    138 H138       -3.6999  -16.7079  -49.1977 H         1 UNK         0.1150 
    139 H139       -0.6111  -18.8524  -49.3919 H         1 UNK         0.0800 
    140 H140       -1.3351  -17.6955  -48.3017 H         1 UNK         0.0800 
    141 H141       -3.0768  -19.7914  -46.2771 H         1 UNK         0.0800 
    142 H142       -1.5035  -19.2097  -46.6633 H         1 UNK         0.0800 
    143 H143       -1.2818  -21.7310  -47.7590 H         1 UNK         0.0600 
    144 H144       -0.2467  -20.5093  -45.4315 H         1 UNK         0.3000 
    145 H145        1.7669  -23.2556  -44.3281 H         1 UNK         0.0600 
    146 H146        3.5047  -21.5159  -44.5336 H         1 UNK         0.0600 
    147 H147        3.0443  -22.0842  -46.1306 H         1 UNK         0.0600 
    148 H148        2.4545  -20.5318  -45.5501 H         1 UNK         0.0600 
    149 H149        1.4519  -20.6488  -43.2628 H         1 UNK         0.3000 
    150 H150       -1.4061  -21.3620  -41.1796 H         1 UNK         0.0600 
    151 H151        0.6043  -22.0996  -39.9230 H         1 UNK         0.0600 
    152 H152        0.1875  -20.4448  -39.5021 H         1 UNK         0.0600 
    153 H153        1.5391  -20.7671  -40.5868 H         1 UNK         0.0600 
    154 H154        0.0157  -18.9500  -41.5047 H         1 UNK         0.3000 
    155 H155       -1.8087  -17.6465  -44.3076 H         1 UNK         0.0600 
    156 H156       -1.6163  -16.9001  -41.3385 H         1 UNK         0.0600 
    157 H157       -3.1053  -17.1474  -42.2399 H         1 UNK         0.0600 
    158 H158       -2.0458  -15.8096  -42.6540 H         1 UNK         0.0600 
    159 H159        0.4165  -16.6789  -42.7665 H         1 UNK         0.3000 
    160 H160        2.9893  -17.9828  -44.8714 H         1 UNK         0.0600 
    161 H161        1.9462  -15.1450  -44.3843 H         1 UNK         0.0600 
    162 H162        2.2073  -15.8839  -45.9591 H         1 UNK         0.0600 
    163 H163        3.5758  -15.5725  -44.9006 H         1 UNK         0.0600 
    164 H164        2.9080  -16.3728  -42.4657 H         1 UNK         0.3000 
    165 H165        3.2045  -19.0950  -40.1845 H         1 UNK         0.0600 
    166 H166        5.3925  -17.1653  -41.1287 H         1 UNK         0.0600 
    167 H167        5.3533  -18.0190  -39.5853 H         1 UNK         0.0600 
    168 H168        5.5332  -18.9189  -41.0824 H         1 UNK         0.0600 
    169 H169        3.4931  -16.3138  -39.7747 H         1 UNK         0.3000 
    170 H170        0.1477  -15.2789  -39.7799 H         1 UNK         0.0600 
    171 H171        1.8257  -15.8895  -37.2855 H         1 UNK         0.0600 
    172 H172        0.4930  -14.7374  -37.3830 H         1 UNK         0.0600 
    173 H173        0.1849  -16.4555  -37.5744 H         1 UNK         0.0600 
    174 H174        2.4838  -14.0133  -38.7847 H         1 UNK         0.3000 
    175 H175        3.3427  -12.2401  -39.9993 H         1 UNK         0.0600 
    176 H176        4.9023  -14.1460  -41.8442 H         1 UNK         0.0600 
    177 H177        5.5702  -12.7159  -41.0587 H         1 UNK         0.0600 
    178 H178        5.0290  -14.0767  -40.0905 H         1 UNK         0.0600 
    179 H179        3.5778  -12.4022  -42.9382 H         1 UNK         0.3000 
    180 H180        1.1018   -9.8664  -43.4741 H         1 UNK         0.0600 
    181 H181        2.7436   -9.6410  -45.3148 H         1 UNK         0.0600 
    182 H182        3.8517  -10.7593  -44.5272 H         1 UNK         0.0600 
    183 H183        3.5101   -9.1928  -43.7997 H         1 UNK         0.0600 
    184 H184        1.5783  -12.6871  -43.8426 H         1 UNK         0.3000 
    185 H185        0.7903  -13.7433  -45.9644 H         1 UNK         0.0600 
    186 H186       -1.2713  -14.7982  -44.9851 H         1 UNK         0.0600 
    187 H187       -0.3815  -13.9634  -43.7299 H         1 UNK         0.0600 
    188 H188       -1.8247  -13.2253  -44.4145 H         1 UNK         0.0600 
    189 H189       -1.0224  -11.9387  -47.1557 H         1 UNK         0.3000 
    190 H190       -2.5048  -21.6928  -44.3992 H         1 UNK         0.3000 
    191 H191       -4.8278  -23.2698  -44.8301 H         1 UNK         0.0600 
    192 H192       -4.8044  -23.5067  -42.3525 H         1 UNK         0.0600 
    193 H193       -4.4938  -21.8430  -42.8272 H         1 UNK         0.0600 
    194 H194       -3.1675  -22.8675  -42.2856 H         1 UNK         0.0600 
    195 H195       -1.4975  -24.2116  -43.8228 H         1 UNK         0.3000 
    196 H196       -1.9563  -26.9928  -43.5749 H         1 UNK         0.0600 
    197 H197        0.6121  -25.4800  -44.2874 H         1 UNK         0.0600 
    198 H198        0.0431  -25.8463  -42.6598 H         1 UNK         0.0600 
    199 H199        0.5323  -27.1480  -43.7338 H         1 UNK         0.0600 
    200 H200       -1.1358  -25.0220  -46.4226 H         1 UNK         0.3000 
    201 H201       -0.9681  -27.2390  -48.2819 H         1 UNK         0.0600 
    202 H202       -0.8707  -25.4096  -49.9660 H         1 UNK         0.0600 
    203 H203       -1.3160  -24.2263  -48.7425 H         1 UNK         0.0600 
    204 H204        0.2241  -25.0747  -48.6368 H         1 UNK         0.0600 
    205 H205       -3.6383  -26.0449  -46.6403 H         1 UNK         0.3000 
    206 H206       -5.8315  -26.0591  -46.8470 H         1 UNK         0.0600 
    207 H207       -5.4534  -28.4946  -47.2933 H         1 UNK         0.0600 
    208 H208       -6.9003  -27.8993  -48.0900 H         1 UNK         0.0600 
    209 H209       -5.4391  -28.1771  -49.0276 H         1 UNK         0.0600 
    210 H210       -4.5118  -24.0151  -48.1821 H         1 UNK         0.3000 
    211 H211       -4.7669  -22.2852  -49.4748 H         1 UNK         0.0600 
    212 H212       -6.9612  -21.5841  -50.2992 H         1 UNK         0.0600 
    213 H213       -7.1518  -22.2893  -48.7039 H         1 UNK         0.0600 
    214 H214       -7.6069  -23.2091  -50.1388 H         1 UNK         0.0600 
    215 H215       -3.9903  -25.0779  -50.7097 H         1 UNK         0.3000 
    216 H216       -4.4544  -24.8309  -53.5075 H         1 UNK         0.0600 
    217 H217       -2.1177  -26.1798  -52.0581 H         1 UNK         0.0600 
    218 H218       -2.5977  -26.4496  -53.7274 H         1 UNK         0.0600 
    219 H219       -3.6703  -26.9349  -52.4236 H         1 UNK         0.0600 
    220 H220       -2.0955  -23.3013  -51.3766 H         1 UNK         0.3000 
    221 H221       -0.3503  -22.1942  -53.3455 H         1 UNK         0.0600 
    222 H222        0.2606  -22.3158  -50.9526 H         1 UNK         0.0600 
    223 H223       -1.0656  -21.2395  -50.5205 H         1 UNK         0.0600 
    224 H224        0.2826  -20.6392  -51.4778 H         1 UNK         0.0600 
    225 H225       -3.4453  -21.0829  -51.9621 H         1 UNK         0.3000 
    226 H226       -3.4408  -18.4963  -53.2388 H         1 UNK         0.0600 
    227 H227       -5.7657  -20.0495  -51.9958 H         1 UNK         0.0600 
    228 H228       -4.6780  -18.9820  -51.1101 H         1 UNK         0.0600 
    229 H229       -5.7213  -18.3318  -52.3630 H         1 UNK         0.0600 
    230 H230       -4.5368  -21.7243  -54.1448 H         1 UNK         0.3000 
    231 H231       -5.9864  -20.8791  -56.5194 H         1 UNK         0.0600 
    232 H232       -6.0157  -23.2913  -57.0447 H         1 UNK         0.0600 
    233 H233       -6.4805  -23.0351  -55.3692 H         1 UNK         0.0600 
    234 H234       -4.8683  -23.6292  -55.7582 H         1 UNK         0.0600 
    235 H235       -2.7096  -22.1868  -55.8441 H         1 UNK         0.3000 
    236 H236       -1.7738  -22.4223  -58.4402 H         1 UNK         0.0600 
    237 H237       -0.6603  -23.4308  -56.4856 H         1 UNK         0.0600 
    238 H238        0.4925  -22.4448  -57.3695 H         1 UNK         0.0600 
    239 H239       -0.2087  -21.8397  -55.8739 H         1 UNK         0.0600 
    240 H240       -1.7212  -19.4751  -56.4079 H         1 UNK         0.3000 
    241 H241       -0.2770  -17.9493  -58.4370 H         1 UNK         0.0600 
    242 H242       -4.0935  -17.6466  -59.4870 H         1 UNK         0.3800 
    243 H243       -3.4832  -19.0061  -58.5808 H         1 UNK         0.3800 
    244 H244       -0.5028  -16.0197  -56.9425 H         1 UNK         0.0800 
    245 H245        0.1975  -17.4023  -56.1560 H         1 UNK         0.0800 
    246 H246       -0.1018  -17.2158  -53.7976 H         1 UNK         0.0800 
    247 H247       -0.5059  -15.5183  -53.9544 H         1 UNK         0.0800 
@<TRIPOS>BOND
     1    1    2 1    
     2    1  127 1    
     3    1  128 1    
     4    1  129 1    
     5    2    3 2    
     6    2    4 am   BACKBONE|DICT|INTERRES
     7    4    5 1    
     8    4  130 1    
     9    5    6 1    
    10    5   65 1    
    11    5  131 1    
    12    6    7 1    
    13    6  132 1    
    14    6  133 1    
    15    7    8 1    
    16    8    9 1    
    17    8  134 1    
    18    8  135 1    
    19    9   10 ar   
    20    9   14 ar   
    21   10   11 ar   
    22   10  136 1    
    23   11   12 ar   
    24   11  126 1    
    25   12   13 ar   
    26   12  137 1    
    27   13   14 ar   
    28   13   15 1    
    29   14  138 1    
    30   15   16 1    
    31   15  139 1    
    32   15  140 1    
    33   16   17 1    
    34   17   18 1    
    35   17  141 1    
    36   17  142 1    
    37   18   19 1    
    38   18   67 1    
    39   18  143 1    
    40   19   20 am   BACKBONE|DICT|INTERRES
    41   19  144 1    
    42   20   21 2    
    43   20   22 1    
    44   22   23 1    
    45   22   24 1    
    46   22  145 1    
    47   23  146 1    
    48   23  147 1    
    49   23  148 1    
    50   24   25 am   BACKBONE|DICT|INTERRES
    51   24  149 1    
    52   25   26 2    
    53   25   27 1    
    54   27   28 1    
    55   27   29 1    
    56   27  150 1    
    57   28  151 1    
    58   28  152 1    
    59   28  153 1    
    60   29   30 am   BACKBONE|DICT|INTERRES
    61   29  154 1    
    62   30   31 2    
    63   30   32 1    
    64   32   33 1    
    65   32   34 1    
    66   32  155 1    
    67   33  156 1    
    68   33  157 1    
    69   33  158 1    
    70   34   35 am   BACKBONE|DICT|INTERRES
    71   34  159 1    
    72   35   36 2    
    73   35   37 1    
    74   37   38 1    
    75   37   39 1    
    76   37  160 1    
    77   38  161 1    
    78   38  162 1    
    79   38  163 1    
    80   39   40 am   BACKBONE|DICT|INTERRES
    81   39  164 1    
    82   40   41 2    
    83   40   42 1    
    84   42   43 1    
    85   42   44 1    
    86   42  165 1    
    87   43  166 1    
    88   43  167 1    
    89   43  168 1    
    90   44   45 am   BACKBONE|DICT|INTERRES
    91   44  169 1    
    92   45   46 2    
    93   45   47 1    
    94   47   48 1    
    95   47   49 1    
    96   47  170 1    
    97   48  171 1    
    98   48  172 1    
    99   48  173 1    
   100   49   50 am   BACKBONE|DICT|INTERRES
   101   49  174 1    
   102   50   51 2    
   103   50   52 1    
   104   52   53 1    
   105   52   54 1    
   106   52  175 1    
   107   53  176 1    
   108   53  177 1    
   109   53  178 1    
   110   54   55 am   BACKBONE|DICT|INTERRES
   111   54  179 1    
   112   55   56 2    
   113   55   57 1    
   114   57   58 1    
   115   57   59 1    
   116   57  180 1    
   117   58  181 1    
   118   58  182 1    
   119   58  183 1    
   120   59   60 am   BACKBONE|DICT|INTERRES
   121   59  184 1    
   122   60   61 2    
   123   60   62 1    
   124   62   63 1    
   125   62   64 1    
   126   62  185 1    
   127   63  186 1    
   128   63  187 1    
   129   63  188 1    
   130   64   65 am   BACKBONE|DICT|INTERRES
   131   64  189 1    
   132   65   66 2    
   133   67   68 2    
   134   67   69 am   BACKBONE|DICT|INTERRES
   135   69   70 1    
   136   69  190 1    
   137   70   71 1    
   138   70   72 1    
   139   70  191 1    
   140   71  192 1    
   141   71  193 1    
   142   71  194 1    
   143   72   73 2    
   144   72   74 am   BACKBONE|DICT|INTERRES
   145   74   75 1    
   146   74  195 1    
   147   75   76 1    
   148   75   77 1    
   149   75  196 1    
   150   76  197 1    
   151   76  198 1    
   152   76  199 1    
   153   77   78 2    
   154   77   79 am   BACKBONE|DICT|INTERRES
   155   79   80 1    
   156   79  200 1    
   157   80   81 1    
   158   80   82 1    
   159   80  201 1    
   160   81  202 1    
   161   81  203 1    
   162   81  204 1    
   163   82   83 2    
   164   82   84 am   BACKBONE|DICT|INTERRES
   165   84   85 1    
   166   84  205 1    
   167   85   86 1    
   168   85   87 1    
   169   85  206 1    
   170   86  207 1    
   171   86  208 1    
   172   86  209 1    
   173   87   88 2    
   174   87   89 am   BACKBONE|DICT|INTERRES
   175   89   90 1    
   176   89  210 1    
   177   90   91 1    
   178   90   92 1    
   179   90  211 1    
   180   91  212 1    
   181   91  213 1    
   182   91  214 1    
   183   92   93 2    
   184   92   94 am   BACKBONE|DICT|INTERRES
   185   94   95 1    
   186   94  215 1    
   187   95   96 1    
   188   95   97 1    
   189   95  216 1    
   190   96  217 1    
   191   96  218 1    
   192   96  219 1    
   193   97   98 2    
   194   97   99 am   BACKBONE|DICT|INTERRES
   195   99  100 1    
   196   99  220 1    
   197  100  101 1    
   198  100  102 1    
   199  100  221 1    
   200  101  222 1    
   201  101  223 1    
   202  101  224 1    
   203  102  103 2    
   204  102  104 am   BACKBONE|DICT|INTERRES
   205  104  105 1    
   206  104  225 1    
   207  105  106 1    
   208  105  107 1    
   209  105  226 1    
   210  106  227 1    
   211  106  228 1    
   212  106  229 1    
   213  107  108 2    
   214  107  109 am   BACKBONE|DICT|INTERRES
   215  109  110 1    
   216  109  230 1    
   217  110  111 1    
   218  110  112 1    
   219  110  231 1    
   220  111  232 1    
   221  111  233 1    
   222  111  234 1    
   223  112  113 2    
   224  112  114 am   BACKBONE|DICT|INTERRES
   225  114  115 1    
   226  114  235 1    
   227  115  116 1    
   228  115  117 1    
   229  115  236 1    
   230  116  237 1    
   231  116  238 1    
   232  116  239 1    
   233  117  118 2    
   234  117  119 am   BACKBONE|DICT|INTERRES
   235  119  120 1    
   236  119  240 1    
   237  120  121 1    
   238  120  124 1    
   239  120  241 1    
   240  121  122 am   BACKBONE|DICT|INTERRES
   241  121  123 2    
   242  122  242 1    
   243  122  243 1    
   244  124  125 1    
   245  124  244 1    
   246  124  245 1    
   247  125  126 1    
   248  126  246 1    
   249  126  247 1    
@<TRIPOS>SUBSTRUCTURE
     1 UNK         1 GROUP             0       ****    0 ROOT    
