@<TRIPOS>MOLECULE
3R540
247   249    1
SMALL
USER_CHARGES


@<TRIPOS>ATOM
      1 CA         -0.3122  -13.7494  -54.0272 C.3       0 UNK        -0.1800 
      2 C           0.4893  -13.0604  -52.9327 C.2       0 UNK         0.5000 
      3 O           0.7174  -11.8520  -53.0047 O.2       0 UNK        -0.5000 
      4 N           0.9146  -13.8190  -51.9155 N.am      1 UNK        -0.5000 
      5 CA          1.7039  -13.3526  -50.7672 C.3       1 UNK         0.1400 
      6 C6          2.5407  -14.4944  -50.1359 C.3       23 UNK        -0.0398 
      7 S7          3.7000  -15.2236  -51.3447 S.3       23 UNK        -0.2404 
      8 C8          4.1485  -16.7961  -50.5326 C.3       23 UNK        -0.0205 
      9 C9          3.0787  -17.8917  -50.5075 C.ar      23 UNK        -0.0193 
     10 C10         1.8074  -17.7498  -51.0843 C.ar      23 UNK        -0.1150 
     11 C11         0.8522  -18.7714  -50.9920 C.ar      23 UNK        -0.0193 
     12 C12         1.2075  -19.9679  -50.3610 C.ar      23 UNK        -0.1150 
     13 C13         2.4687  -20.1297  -49.7819 C.ar      23 UNK        -0.0193 
     14 C14         3.3955  -19.0895  -49.8607 C.ar      23 UNK        -0.1150 
     15 C15         2.8272  -21.4204  -49.0614 C.3       23 UNK        -0.0205 
     16 S16         2.6061  -21.2563  -47.2594 S.3       23 UNK        -0.2404 
     17 C17         2.7338  -23.0002  -46.7241 C.3       23 UNK        -0.0398 
     18 CA          1.3803  -23.6815  -46.3955 C.3       11 UNK         0.1400 
     19 N           0.6830  -23.0630  -45.2625 N.am      11 UNK        -0.5000 
     20 C          -0.3762  -23.6020  -44.6387 C.2       10 UNK         0.5000 
     21 O          -0.8767  -24.6781  -44.9733 O.2       10 UNK        -0.5000 
     22 CA         -1.0075  -22.7891  -43.4894 C.3       10 UNK         0.1400 
     23 CB         -1.6898  -23.6773  -42.4293 C.3       10 UNK        -0.1800 
     24 N          -0.0807  -21.8386  -42.8699 N.am      10 UNK        -0.5000 
     25 C           1.0296  -22.0979  -42.1647 C.2       9 UNK         0.5000 
     26 O           1.4313  -23.2299  -41.8946 O.2       9 UNK        -0.5000 
     27 CA          1.8449  -20.8751  -41.7003 C.3       9 UNK         0.1400 
     28 CB          3.0044  -20.6189  -42.6762 C.3       9 UNK        -0.1800 
     29 N           1.0390  -19.6562  -41.5892 N.am      9 UNK        -0.5000 
     30 C           0.1219  -19.4272  -40.6383 C.2       8 UNK         0.5000 
     31 O          -0.0915  -20.1905  -39.6957 O.2       8 UNK        -0.5000 
     32 CA         -0.7239  -18.1475  -40.7876 C.3       8 UNK         0.1400 
     33 CB          0.0464  -16.9151  -40.2896 C.3       8 UNK        -0.1800 
     34 N          -1.1650  -17.9253  -42.1660 N.am      8 UNK        -0.5000 
     35 C          -2.0278  -18.7111  -42.8280 C.2       7 UNK         0.5000 
     36 O          -2.5901  -19.6861  -42.3306 O.2       7 UNK        -0.5000 
     37 CA         -2.2700  -18.3769  -44.3086 C.3       7 UNK         0.1400 
     38 CB         -3.3534  -17.2973  -44.4607 C.3       7 UNK        -0.1800 
     39 N          -1.0392  -17.9382  -44.9613 N.am      7 UNK        -0.5000 
     40 C          -0.0462  -18.7586  -45.3308 C.2       6 UNK         0.5000 
     41 O          -0.0763  -19.9816  -45.1871 O.2       6 UNK        -0.5000 
     42 CA          1.2012  -18.0955  -45.9418 C.3       6 UNK         0.1400 
     43 CB          0.9747  -17.8459  -47.4345 C.3       6 UNK        -0.1800 
     44 N           1.5489  -16.8206  -45.3212 N.am      6 UNK        -0.5000 
     45 C           1.9022  -16.6380  -44.0427 C.2       5 UNK         0.5000 
     46 O           2.0430  -17.5507  -43.2316 O.2       5 UNK        -0.5000 
     47 CA          2.0515  -15.1734  -43.5866 C.3       5 UNK         0.1400 
     48 CB          3.4939  -14.6862  -43.7858 C.3       5 UNK        -0.1800 
     49 N           1.1353  -14.2774  -44.2982 N.am      5 UNK        -0.5000 
     50 C          -0.2023  -14.3557  -44.2442 C.2       4 UNK         0.5000 
     51 O          -0.7983  -15.1535  -43.5184 O.2       4 UNK        -0.5000 
     52 CA         -0.9981  -13.4675  -45.2200 C.3       4 UNK         0.1400 
     53 CB         -2.3118  -12.9393  -44.6092 C.3       4 UNK        -0.1800 
     54 N          -0.2122  -12.3895  -45.8314 N.am      4 UNK        -0.5000 
     55 C           0.2717  -11.2829  -45.2424 C.2       3 UNK         0.5000 
     56 O           0.1830  -11.0512  -44.0367 O.2       3 UNK        -0.5000 
     57 CA          0.9803  -10.2552  -46.1545 C.3       3 UNK         0.1400 
     58 CB          2.5054  -10.3701  -46.0046 C.3       3 UNK        -0.1800 
     59 N           0.6352  -10.4039  -47.5704 N.am      3 UNK        -0.5000 
     60 C          -0.5864  -10.2212  -48.0888 C.2       2 UNK         0.5000 
     61 O          -1.5136   -9.7082  -47.4607 O.2       2 UNK        -0.5000 
     62 CA         -0.8396  -10.7157  -49.5295 C.3       2 UNK         0.1400 
     63 CB         -1.1719   -9.5333  -50.4543 C.3       2 UNK        -0.1800 
     64 N           0.2225  -11.5076  -50.1643 N.am      2 UNK        -0.5000 
     65 C           0.7919  -12.6453  -49.7402 C.2       1 UNK         0.5000 
     66 O           0.6179  -13.1332  -48.6219 O.2       1 UNK        -0.5000 
     67 C           0.4697  -23.7851  -47.6340 C.2       11 UNK         0.5000 
     68 O           0.5200  -24.7847  -48.3480 O.2       11 UNK        -0.5000 
     69 N          -0.3761  -22.7649  -47.8340 N.am      12 UNK        -0.5000 
     70 CA         -1.3536  -22.6886  -48.9142 C.3       12 UNK         0.1400 
     71 CB         -1.9827  -21.2918  -48.9089 C.3       12 UNK        -0.1800 
     72 C          -2.4484  -23.7606  -48.7937 C.2       12 UNK         0.5000 
     73 O          -2.8739  -24.3086  -49.8097 O.2       12 UNK        -0.5000 
     74 N          -2.8634  -24.0542  -47.5539 N.am      13 UNK        -0.5000 
     75 CA         -3.8302  -25.1018  -47.2347 C.3       13 UNK         0.1400 
     76 CB         -4.3576  -24.8997  -45.8061 C.3       13 UNK        -0.1800 
     77 C          -3.2230  -26.5034  -47.4094 C.2       13 UNK         0.5000 
     78 O          -3.8800  -27.3795  -47.9710 O.2       13 UNK        -0.5000 
     79 N          -1.9691  -26.6758  -46.9650 N.am      14 UNK        -0.5000 
     80 CA         -1.1967  -27.9117  -47.1073 C.3       14 UNK         0.1400 
     81 CB          0.0994  -27.7995  -46.2903 C.3       14 UNK        -0.1800 
     82 C          -0.8905  -28.2614  -48.5766 C.2       14 UNK         0.5000 
     83 O          -1.0109  -29.4242  -48.9637 O.2       14 UNK        -0.5000 
     84 N          -0.5262  -27.2460  -49.3713 N.am      15 UNK        -0.5000 
     85 CA         -0.2626  -27.3605  -50.8071 C.3       15 UNK         0.1400 
     86 CB          0.5558  -26.1394  -51.2572 C.3       15 UNK        -0.1800 
     87 C          -1.5400  -27.4772  -51.6616 C.2       15 UNK         0.5000 
     88 O          -1.4448  -27.8835  -52.8204 O.2       15 UNK        -0.5000 
     89 N          -2.6930  -27.0923  -51.0920 N.am      16 UNK        -0.5000 
     90 CA         -4.0005  -26.9376  -51.7402 C.3       16 UNK         0.1400 
     91 CB         -4.5610  -28.2998  -52.1985 C.3       16 UNK        -0.1800 
     92 C          -3.9560  -25.8788  -52.8637 C.2       16 UNK         0.5000 
     93 O          -4.4613  -26.1040  -53.9649 O.2       16 UNK        -0.5000 
     94 N          -3.3162  -24.7431  -52.5567 N.am      17 UNK        -0.5000 
     95 CA         -3.0659  -23.6336  -53.4766 C.3       17 UNK         0.1400 
     96 CB         -1.9075  -22.7889  -52.9206 C.3       17 UNK        -0.1800 
     97 C          -4.3016  -22.7470  -53.7193 C.2       17 UNK         0.5000 
     98 O          -4.3319  -22.0286  -54.7195 O.2       17 UNK        -0.5000 
     99 N          -5.2805  -22.8034  -52.8022 N.am      18 UNK        -0.5000 
    100 CA        -6.4833  -21.9670  -52.7426 C.3       18 UNK         0.1400 
    101 CB        -7.4281  -22.2666  -53.9287 C.3       18 UNK        -0.1800 
    102 C         -6.1094  -20.4782  -52.5751 C.2       18 UNK         0.5000 
    103 O         -5.2995  -20.1720  -51.6983 O.2       18 UNK        -0.5000 
    104 N         -6.7029  -19.5863  -53.3844 N.am      19 UNK        -0.5000 
    105 CA        -6.4208  -18.1448  -53.4700 C.3       19 UNK         0.1400 
    106 CB        -5.0272  -17.9170  -54.0945 C.3       19 UNK        -0.1800 
    107 C         -6.5928  -17.3999  -52.1277 C.2       19 UNK         0.5000 
    108 O         -5.7815  -16.5356  -51.7918 O.2       19 UNK        -0.5000 
    109 N         -7.6189  -17.7947  -51.3557 N.am      20 UNK        -0.5000 
    110 CA        -7.9199  -17.3389  -49.9890 C.3       20 UNK         0.1400 
    111 CB        -8.3879  -15.8687  -49.9968 C.3       20 UNK        -0.1800 
    112 C         -6.7571  -17.5899  -49.0005 C.2       20 UNK         0.5000 
    113 O         -6.5303  -16.7933  -48.0878 O.2       20 UNK        -0.5000 
    114 N         -6.0034  -18.6727  -49.2456 N.am      21 UNK        -0.5000 
    115 CA        -4.7667  -19.0801  -48.5731 C.3       21 UNK         0.1400 
    116 CB        -5.0403  -19.4633  -47.1034 C.3       21 UNK        -0.1800 
    117 C         -3.6148  -18.0598  -48.7209 C.2       21 UNK         0.5000 
    118 O         -2.6874  -18.0728  -47.9122 O.2       21 UNK        -0.5000 
    119 N         -3.7073  -17.1788  -49.7285 N.am      22 UNK        -0.5000 
    120 CA        -2.8925  -15.9654  -49.8956 C.3       22 UNK         0.1400 
    121 C         -3.1063  -14.9003  -48.7709 C.2       22 UNK         0.5000 
    122 N         -4.1620  -14.9712  -47.9662 N.am      22 UNK        -0.7600 
    123 O         -2.3336  -13.9570  -48.6491 O.2       22 UNK        -0.5000 
    124 C124       -1.3950  -16.2654  -50.2026 C.3       23 UNK        -0.0398 
    125 S125       -1.1509  -16.9360  -51.8844 S.3       23 UNK        -0.2404 
    126 C126       -0.5623  -18.6397  -51.5687 C.3       23 UNK        -0.0205 
    127 H127       -0.2645  -14.8350  -53.9409 H         1 UNK         0.0600 
    128 H128       -1.3579  -13.4468  -53.9732 H         1 UNK         0.0600 
    129 H129        0.0748  -13.4727  -55.0078 H         1 UNK         0.0600 
    130 H130        0.6809  -14.8009  -51.9122 H         1 UNK         0.3000 
    131 H131        2.4121  -12.6003  -51.1220 H         1 UNK         0.0600 
    132 H132        1.8901  -15.2718  -49.7326 H         1 UNK         0.0800 
    133 H133        3.1262  -14.1189  -49.2949 H         1 UNK         0.0800 
    134 H134        4.4602  -16.5803  -49.5095 H         1 UNK         0.0800 
    135 H135        5.0273  -17.1924  -51.0430 H         1 UNK         0.0800 
    136 H136        1.5535  -16.8399  -51.6019 H         1 UNK         0.1150 
    137 H137        0.4952  -20.7767  -50.3087 H         1 UNK         0.1150 
    138 H138        4.3684  -19.2116  -49.4052 H         1 UNK         0.1150 
    139 H139        2.2123  -22.2379  -49.4397 H         1 UNK         0.0800 
    140 H140        3.8625  -21.6902  -49.2753 H         1 UNK         0.0800 
    141 H141        3.3715  -23.0268  -45.8396 H         1 UNK         0.0800 
    142 H142        3.2698  -23.5745  -47.4819 H         1 UNK         0.0800 
    143 H143        1.6096  -24.7062  -46.0956 H         1 UNK         0.0600 
    144 H144        0.9863  -22.1383  -44.9870 H         1 UNK         0.3000 
    145 H145       -1.7853  -22.1800  -43.9520 H         1 UNK         0.0600 
    146 H146       -2.1256  -23.0736  -41.6331 H         1 UNK         0.0600 
    147 H147       -2.4975  -24.2628  -42.8694 H         1 UNK         0.0600 
    148 H148       -0.9899  -24.3793  -41.9756 H         1 UNK         0.0600 
    149 H149       -0.2766  -20.8675  -43.0732 H         1 UNK         0.3000 
    150 H150        2.2633  -21.1050  -40.7183 H         1 UNK         0.0600 
    151 H151        3.6422  -21.4989  -42.7685 H         1 UNK         0.0600 
    152 H152        3.6328  -19.7964  -42.3342 H         1 UNK         0.0600 
    153 H153        2.6419  -20.3693  -43.6746 H         1 UNK         0.0600 
    154 H154        1.2156  -18.9341  -42.2840 H         1 UNK         0.3000 
    155 H155       -1.6150  -18.2623  -40.1669 H         1 UNK         0.0600 
    156 H156        0.9636  -16.7549  -40.8557 H         1 UNK         0.0600 
    157 H157        0.3252  -17.0289  -39.2414 H         1 UNK         0.0600 
    158 H158       -0.5587  -16.0118  -40.3701 H         1 UNK         0.0600 
    159 H159       -0.7857  -17.1167  -42.6449 H         1 UNK         0.3000 
    160 H160       -2.6211  -19.2819  -44.8086 H         1 UNK         0.0600 
    161 H161       -3.5112  -17.0383  -45.5077 H         1 UNK         0.0600 
    162 H162       -3.0971  -16.3828  -43.9264 H         1 UNK         0.0600 
    163 H163       -4.3072  -17.6489  -44.0660 H         1 UNK         0.0600 
    164 H164       -0.9242  -16.9437  -45.0838 H         1 UNK         0.3000 
    165 H165        2.0439  -18.7763  -45.8143 H         1 UNK         0.0600 
    166 H166        1.8926  -17.5227  -47.9233 H         1 UNK         0.0600 
    167 H167        0.6302  -18.7510  -47.9341 H         1 UNK         0.0600 
    168 H168        0.2201  -17.0763  -47.5928 H         1 UNK         0.0600 
    169 H169        1.4665  -16.0032  -45.9063 H         1 UNK         0.3000 
    170 H170        1.8135  -15.1267  -42.5222 H         1 UNK         0.0600 
    171 H171        4.1976  -15.3234  -43.2484 H         1 UNK         0.0600 
    172 H172        3.6227  -13.6713  -43.4091 H         1 UNK         0.0600 
    173 H173        3.7814  -14.6934  -44.8379 H         1 UNK         0.0600 
    174 H174        1.5468  -13.5941  -44.9163 H         1 UNK         0.3000 
    175 H175       -1.2735  -14.1241  -46.0465 H         1 UNK         0.0600 
    176 H176       -2.8596  -12.3270  -45.3256 H         1 UNK         0.0600 
    177 H177       -2.9667  -13.7621  -44.3203 H         1 UNK         0.0600 
    178 H178       -2.1337  -12.3381  -43.7175 H         1 UNK         0.0600 
    179 H179       -0.0396  -12.5060  -46.8268 H         1 UNK         0.3000 
    180 H180        0.6731   -9.2587  -45.8308 H         1 UNK         0.0600 
    181 H181        2.8699  -11.3445  -46.3326 H         1 UNK         0.0600 
    182 H182        2.8074  -10.2395  -44.9645 H         1 UNK         0.0600 
    183 H183        3.0179   -9.6053  -46.5883 H         1 UNK         0.0600 
    184 H184        1.3270  -10.8446  -48.1583 H         1 UNK         0.3000 
    185 H185       -1.7192  -11.3599  -49.4785 H         1 UNK         0.0600 
    186 H186       -0.3164   -8.8673  -50.5737 H         1 UNK         0.0600 
    187 H187       -1.4699   -9.8781  -51.4448 H         1 UNK         0.0600 
    188 H188       -1.9978   -8.9404  -50.0587 H         1 UNK         0.0600 
    189 H189        0.4360  -11.2447  -51.1215 H         1 UNK         0.3000 
    190 H190       -0.3333  -21.9809  -47.1971 H         1 UNK         0.3000 
    191 H191       -0.8272  -22.8387  -49.8589 H         1 UNK         0.0600 
    192 H192       -1.2316  -20.5038  -48.8776 H         1 UNK         0.0600 
    193 H193       -2.6250  -21.1518  -48.0396 H         1 UNK         0.0600 
    194 H194       -2.5856  -21.1384  -49.8042 H         1 UNK         0.0600 
    195 H195       -2.4283  -23.5842  -46.7748 H         1 UNK         0.3000 
    196 H196       -4.6739  -25.0124  -47.9227 H         1 UNK         0.0600 
    197 H197       -5.1131  -25.6475  -45.5620 H         1 UNK         0.0600 
    198 H198       -4.8216  -23.9199  -45.6917 H         1 UNK         0.0600 
    199 H199       -3.5638  -24.9838  -45.0639 H         1 UNK         0.0600 
    200 H200       -1.5174  -25.9123  -46.4723 H         1 UNK         0.3000 
    201 H201       -1.7918  -28.7260  -46.6889 H         1 UNK         0.0600 
    202 H202       -0.1128  -27.6032  -45.2390 H         1 UNK         0.0600 
    203 H203        0.7390  -26.9967  -46.6571 H         1 UNK         0.0600 
    204 H204        0.6734  -28.7255  -46.3401 H         1 UNK         0.0600 
    205 H205       -0.3721  -26.3296  -48.9576 H         1 UNK         0.3000 
    206 H206        0.3356  -28.2571  -50.9816 H         1 UNK         0.0600 
    207 H207        1.4949  -26.0693  -50.7080 H         1 UNK         0.0600 
    208 H208        0.8036  -26.2003  -52.3176 H         1 UNK         0.0600 
    209 H209        0.0063  -25.2099  -51.1011 H         1 UNK         0.0600 
    210 H210       -2.6460  -26.7608  -50.1383 H         1 UNK         0.3000 
    211 H211       -4.6736  -26.5456  -50.9763 H         1 UNK         0.0600 
    212 H212       -3.9708  -28.7345  -53.0055 H         1 UNK         0.0600 
    213 H213       -5.5838  -28.1965  -52.5624 H         1 UNK         0.0600 
    214 H214       -4.5802  -29.0133  -51.3746 H         1 UNK         0.0600 
    215 H215       -2.9850  -24.6267  -51.6008 H         1 UNK         0.3000 
    216 H216       -2.7584  -24.0455  -54.4400 H         1 UNK         0.0600 
    217 H217       -1.6445  -21.9845  -53.6087 H         1 UNK         0.0600 
    218 H218       -1.0128  -23.3930  -52.7694 H         1 UNK         0.0600 
    219 H219       -2.1696  -22.3297  -51.9672 H         1 UNK         0.0600 
    220 H220       -5.1270  -23.4051  -52.0061 H         1 UNK         0.3000 
    221 H221       -7.0060  -22.2500  -51.8280 H         1 UNK         0.0600 
    222 H222       -7.0028  -21.9609  -54.8851 H         1 UNK         0.0600 
    223 H223       -7.6433  -23.3334  -53.9921 H         1 UNK         0.0600 
    224 H224       -8.3851  -21.7572  -53.8102 H         1 UNK         0.0600 
    225 H225       -7.3666  -19.9384  -54.0601 H         1 UNK         0.3000 
    226 H226       -7.1618  -17.7218  -54.1496 H         1 UNK         0.0600 
    227 H227       -4.9310  -18.4401  -55.0459 H         1 UNK         0.0600 
    228 H228       -4.8508  -16.8583  -54.2878 H         1 UNK         0.0600 
    229 H229       -4.2283  -18.2668  -53.4389 H         1 UNK         0.0600 
    230 H230       -8.2216  -18.5211  -51.7166 H         1 UNK         0.3000 
    231 H231       -8.7527  -17.9488  -49.6363 H         1 UNK         0.0600 
    232 H232       -9.2104  -15.7203  -50.6965 H         1 UNK         0.0600 
    233 H233       -7.5829  -15.1882  -50.2757 H         1 UNK         0.0600 
    234 H234       -8.7436  -15.5660  -49.0113 H         1 UNK         0.0600 
    235 H235       -6.2150  -19.2145  -50.0755 H         1 UNK         0.3000 
    236 H236       -4.4460  -19.9805  -49.0931 H         1 UNK         0.0600 
    237 H237       -4.1562  -19.8992  -46.6384 H         1 UNK         0.0600 
    238 H238       -5.3273  -18.5980  -46.5059 H         1 UNK         0.0600 
    239 H239       -5.8390  -20.2013  -47.0309 H         1 UNK         0.0600 
    240 H240       -4.5041  -17.2359  -50.3528 H         1 UNK         0.3000 
    241 H241       -3.3032  -15.4742  -50.7783 H         1 UNK         0.0600 
    242 H242       -4.2899  -14.2576  -47.2686 H         1 UNK         0.3800 
    243 H243       -4.8563  -15.7046  -48.0622 H         1 UNK         0.3800 
    244 H244       -0.7948  -15.3581  -50.1376 H         1 UNK         0.0800 
    245 H245       -0.9740  -16.9511  -49.4712 H         1 UNK         0.0800 
    246 H246       -0.5964  -19.1902  -52.5095 H         1 UNK         0.0800 
    247 H247       -1.2791  -19.1238  -50.9045 H         1 UNK         0.0800 
@<TRIPOS>BOND
     1    1    2 1    
     2    1  127 1    
     3    1  128 1    
     4    1  129 1    
     5    2    3 2    
     6    2    4 am   BACKBONE|DICT|INTERRES
     7    4    5 1    
     8    4  130 1    
     9    5    6 1    
    10    5   65 1    
    11    5  131 1    
    12    6    7 1    
    13    6  132 1    
    14    6  133 1    
    15    7    8 1    
    16    8    9 1    
    17    8  134 1    
    18    8  135 1    
    19    9   10 ar   
    20    9   14 ar   
    21   10   11 ar   
    22   10  136 1    
    23   11   12 ar   
    24   11  126 1    
    25   12   13 ar   
    26   12  137 1    
    27   13   14 ar   
    28   13   15 1    
    29   14  138 1    
    30   15   16 1    
    31   15  139 1    
    32   15  140 1    
    33   16   17 1    
    34   17   18 1    
    35   17  141 1    
    36   17  142 1    
    37   18   19 1    
    38   18   67 1    
    39   18  143 1    
    40   19   20 am   BACKBONE|DICT|INTERRES
    41   19  144 1    
    42   20   21 2    
    43   20   22 1    
    44   22   23 1    
    45   22   24 1    
    46   22  145 1    
    47   23  146 1    
    48   23  147 1    
    49   23  148 1    
    50   24   25 am   BACKBONE|DICT|INTERRES
    51   24  149 1    
    52   25   26 2    
    53   25   27 1    
    54   27   28 1    
    55   27   29 1    
    56   27  150 1    
    57   28  151 1    
    58   28  152 1    
    59   28  153 1    
    60   29   30 am   BACKBONE|DICT|INTERRES
    61   29  154 1    
    62   30   31 2    
    63   30   32 1    
    64   32   33 1    
    65   32   34 1    
    66   32  155 1    
    67   33  156 1    
    68   33  157 1    
    69   33  158 1    
    70   34   35 am   BACKBONE|DICT|INTERRES
    71   34  159 1    
    72   35   36 2    
    73   35   37 1    
    74   37   38 1    
    75   37   39 1    
    76   37  160 1    
    77   38  161 1    
    78   38  162 1    
    79   38  163 1    
    80   39   40 am   BACKBONE|DICT|INTERRES
    81   39  164 1    
    82   40   41 2    
    83   40   42 1    
    84   42   43 1    
    85   42   44 1    
    86   42  165 1    
    87   43  166 1    
    88   43  167 1    
    89   43  168 1    
    90   44   45 am   BACKBONE|DICT|INTERRES
    91   44  169 1    
    92   45   46 2    
    93   45   47 1    
    94   47   48 1    
    95   47   49 1    
    96   47  170 1    
    97   48  171 1    
    98   48  172 1    
    99   48  173 1    
   100   49   50 am   BACKBONE|DICT|INTERRES
   101   49  174 1    
   102   50   51 2    
   103   50   52 1    
   104   52   53 1    
   105   52   54 1    
   106   52  175 1    
   107   53  176 1    
   108   53  177 1    
   109   53  178 1    
   110   54   55 am   BACKBONE|DICT|INTERRES
   111   54  179 1    
   112   55   56 2    
   113   55   57 1    
   114   57   58 1    
   115   57   59 1    
   116   57  180 1    
   117   58  181 1    
   118   58  182 1    
   119   58  183 1    
   120   59   60 am   BACKBONE|DICT|INTERRES
   121   59  184 1    
   122   60   61 2    
   123   60   62 1    
   124   62   63 1    
   125   62   64 1    
   126   62  185 1    
   127   63  186 1    
   128   63  187 1    
   129   63  188 1    
   130   64   65 am   BACKBONE|DICT|INTERRES
   131   64  189 1    
   132   65   66 2    
   133   67   68 2    
   134   67   69 am   BACKBONE|DICT|INTERRES
   135   69   70 1    
   136   69  190 1    
   137   70   71 1    
   138   70   72 1    
   139   70  191 1    
   140   71  192 1    
   141   71  193 1    
   142   71  194 1    
   143   72   73 2    
   144   72   74 am   BACKBONE|DICT|INTERRES
   145   74   75 1    
   146   74  195 1    
   147   75   76 1    
   148   75   77 1    
   149   75  196 1    
   150   76  197 1    
   151   76  198 1    
   152   76  199 1    
   153   77   78 2    
   154   77   79 am   BACKBONE|DICT|INTERRES
   155   79   80 1    
   156   79  200 1    
   157   80   81 1    
   158   80   82 1    
   159   80  201 1    
   160   81  202 1    
   161   81  203 1    
   162   81  204 1    
   163   82   83 2    
   164   82   84 am   BACKBONE|DICT|INTERRES
   165   84   85 1    
   166   84  205 1    
   167   85   86 1    
   168   85   87 1    
   169   85  206 1    
   170   86  207 1    
   171   86  208 1    
   172   86  209 1    
   173   87   88 2    
   174   87   89 am   BACKBONE|DICT|INTERRES
   175   89   90 1    
   176   89  210 1    
   177   90   91 1    
   178   90   92 1    
   179   90  211 1    
   180   91  212 1    
   181   91  213 1    
   182   91  214 1    
   183   92   93 2    
   184   92   94 am   BACKBONE|DICT|INTERRES
   185   94   95 1    
   186   94  215 1    
   187   95   96 1    
   188   95   97 1    
   189   95  216 1    
   190   96  217 1    
   191   96  218 1    
   192   96  219 1    
   193   97   98 2    
   194   97   99 am   BACKBONE|DICT|INTERRES
   195   99  100 1    
   196   99  220 1    
   197  100  101 1    
   198  100  102 1    
   199  100  221 1    
   200  101  222 1    
   201  101  223 1    
   202  101  224 1    
   203  102  103 2    
   204  102  104 am   BACKBONE|DICT|INTERRES
   205  104  105 1    
   206  104  225 1    
   207  105  106 1    
   208  105  107 1    
   209  105  226 1    
   210  106  227 1    
   211  106  228 1    
   212  106  229 1    
   213  107  108 2    
   214  107  109 am   BACKBONE|DICT|INTERRES
   215  109  110 1    
   216  109  230 1    
   217  110  111 1    
   218  110  112 1    
   219  110  231 1    
   220  111  232 1    
   221  111  233 1    
   222  111  234 1    
   223  112  113 2    
   224  112  114 am   BACKBONE|DICT|INTERRES
   225  114  115 1    
   226  114  235 1    
   227  115  116 1    
   228  115  117 1    
   229  115  236 1    
   230  116  237 1    
   231  116  238 1    
   232  116  239 1    
   233  117  118 2    
   234  117  119 am   BACKBONE|DICT|INTERRES
   235  119  120 1    
   236  119  240 1    
   237  120  121 1    
   238  120  124 1    
   239  120  241 1    
   240  121  122 am   BACKBONE|DICT|INTERRES
   241  121  123 2    
   242  122  242 1    
   243  122  243 1    
   244  124  125 1    
   245  124  244 1    
   246  124  245 1    
   247  125  126 1    
   248  126  246 1    
   249  126  247 1    
@<TRIPOS>SUBSTRUCTURE
     1 UNK         1 GROUP             0       ****    0 ROOT    
