@<TRIPOS>MOLECULE
3R540
247   249    1
SMALL
USER_CHARGES


@<TRIPOS>ATOM
      1 CA         -1.7401  -17.9563  -50.7622 C.3       0 UNK        -0.1800 
      2 C          -1.4020  -17.4471  -49.3719 C.2       0 UNK         0.5000 
      3 O          -0.2284  -17.3738  -49.0104 O.2       0 UNK        -0.5000 
      4 N          -2.4283  -17.0735  -48.5982 N.am      1 UNK        -0.5000 
      5 CA         -2.2983  -16.5092  -47.2497 C.3       1 UNK         0.1400 
      6 C6         -3.6149  -16.6102  -46.4404 C.3       23 UNK        -0.0398 
      7 S7         -5.0615  -15.8540  -47.2640 S.3       23 UNK        -0.2404 
      8 C8         -6.1471  -17.2948  -47.5023 C.3       23 UNK        -0.0205 
      9 C9         -5.6273  -18.2332  -48.5807 C.ar      23 UNK        -0.0193 
     10 C10        -5.8540  -17.9389  -49.9289 C.ar      23 UNK        -0.1150 
     11 C11        -5.4210  -18.8085  -50.9342 C.ar      23 UNK        -0.0193 
     12 C12        -4.7491  -19.9795  -50.5689 C.ar      23 UNK        -0.1150 
     13 C13        -4.5092  -20.2855  -49.2273 C.ar      23 UNK        -0.0193 
     14 C14        -4.9515  -19.4081  -48.2347 C.ar      23 UNK        -0.1150 
     15 C15        -3.8021  -21.5829  -48.8671 C.3       23 UNK        -0.0205 
     16 S16        -2.0242  -21.4932  -49.2381 S.3       23 UNK        -0.2404 
     17 C17        -1.3095  -21.0413  -47.6198 C.3       23 UNK        -0.0398 
     18 CA         -0.5061  -22.2227  -47.0239 C.3       11 UNK         0.1400 
     19 N           0.5419  -21.7892  -46.0967 N.am      11 UNK        -0.5000 
     20 C           1.5363  -22.5845  -45.6758 C.2       10 UNK         0.5000 
     21 O           1.6771  -23.7507  -46.0425 O.2       10 UNK        -0.5000 
     22 CA          2.5102  -22.0041  -44.6368 C.3       10 UNK         0.1400 
     23 CB          3.5396  -21.0815  -45.3057 C.3       10 UNK        -0.1800 
     24 N           1.8232  -21.2942  -43.5581 N.am      10 UNK        -0.5000 
     25 C           0.9681  -21.8701  -42.7007 C.2       9 UNK         0.5000 
     26 O           0.6989  -23.0709  -42.7081 O.2       9 UNK        -0.5000 
     27 CA          0.2598  -20.9480  -41.6935 C.3       9 UNK         0.1400 
     28 CB          1.1778  -20.6360  -40.5025 C.3       9 UNK        -0.1800 
     29 N          -0.2096  -19.7009  -42.2975 N.am      9 UNK        -0.5000 
     30 C          -1.1201  -19.6232  -43.2786 C.2       8 UNK         0.5000 
     31 O          -1.6870  -20.5992  -43.7696 O.2       8 UNK        -0.5000 
     32 CA         -1.4009  -18.2245  -43.8541 C.3       8 UNK         0.1400 
     33 CB         -2.2791  -17.3957  -42.9054 C.3       8 UNK        -0.1800 
     34 N          -0.1739  -17.4905  -44.1639 N.am      8 UNK        -0.5000 
     35 C           0.7543  -17.9010  -45.0409 C.2       7 UNK         0.5000 
     36 O           0.6395  -18.9125  -45.7331 O.2       7 UNK        -0.5000 
     37 CA          2.0537  -17.0810  -45.1087 C.3       7 UNK         0.1400 
     38 CB          1.8935  -15.8435  -46.0028 C.3       7 UNK        -0.1800 
     39 N           2.5124  -16.6756  -43.7799 N.am      7 UNK        -0.5000 
     40 C           2.9942  -17.5222  -42.8587 C.2       6 UNK         0.5000 
     41 O           3.1363  -18.7295  -43.0468 O.2       6 UNK        -0.5000 
     42 CA          3.3335  -16.9248  -41.4817 C.3       6 UNK         0.1400 
     43 CB          4.7154  -16.2547  -41.5048 C.3       6 UNK        -0.1800 
     44 N           2.3314  -15.9593  -41.0301 N.am      6 UNK        -0.5000 
     45 C           1.0636  -16.2701  -40.7246 C.2       5 UNK         0.5000 
     46 O           0.6141  -17.4144  -40.7544 O.2       5 UNK        -0.5000 
     47 CA          0.1299  -15.0990  -40.3697 C.3       5 UNK         0.1400 
     48 CB          0.1926  -14.7953  -38.8656 C.3       5 UNK        -0.1800 
     49 N           0.4262  -13.8796  -41.1262 N.am      5 UNK        -0.5000 
     50 C           0.3049  -13.7637  -42.4548 C.2       4 UNK         0.5000 
     51 O          -0.0520  -14.6838  -43.1932 O.2       4 UNK        -0.5000 
     52 CA          0.7005  -12.4125  -43.0584 C.3       4 UNK         0.1400 
     53 CB          2.1353  -12.4615  -43.6103 C.3       4 UNK        -0.1800 
     54 N          -0.2256  -12.0614  -44.1318 N.am      4 UNK        -0.5000 
     55 C          -0.6666  -10.8181  -44.3703 C.2       3 UNK         0.5000 
     56 O          -0.3160   -9.8378  -43.7104 O.2       3 UNK        -0.5000 
     57 CA         -1.6331  -10.6349  -45.5544 C.3       3 UNK         0.1400 
     58 CB         -1.7662   -9.1691  -46.0145 C.3       3 UNK        -0.1800 
     59 N          -1.2070  -11.4710  -46.6713 N.am      3 UNK        -0.5000 
     60 C          -2.0174  -12.0175  -47.5823 C.2       2 UNK         0.5000 
     61 O          -3.2309  -11.8096  -47.6343 O.2       2 UNK        -0.5000 
     62 CA         -1.3775  -12.9884  -48.5971 C.3       2 UNK         0.1400 
     63 CB          0.1671  -12.9366  -48.6418 C.3       2 UNK        -0.1800 
     64 N          -1.8266  -14.3650  -48.3754 N.am      2 UNK        -0.5000 
     65 C          -1.7425  -15.0689  -47.2346 C.2       1 UNK         0.5000 
     66 O          -1.2566  -14.6302  -46.1918 O.2       1 UNK        -0.5000 
     67 C          -1.4200  -23.3015  -46.4038 C.2       11 UNK         0.5000 
     68 O          -1.7614  -24.2665  -47.0867 O.2       11 UNK        -0.5000 
     69 N          -1.7590  -23.1600  -45.1140 N.am      12 UNK        -0.5000 
     70 CA         -2.5179  -24.1542  -44.3519 C.3       12 UNK         0.1400 
     71 CB         -2.8904  -23.5822  -42.9761 C.3       12 UNK        -0.1800 
     72 C          -1.7716  -25.4948  -44.2067 C.2       12 UNK         0.5000 
     73 O          -2.3949  -26.5487  -44.3367 O.2       12 UNK        -0.5000 
     74 N          -0.4529  -25.4319  -43.9725 N.am      13 UNK        -0.5000 
     75 CA          0.4357  -26.5925  -43.9051 C.3       13 UNK         0.1400 
     76 CB          1.7921  -26.1698  -43.3203 C.3       13 UNK        -0.1800 
     77 C           0.6182  -27.2826  -45.2700 C.2       13 UNK         0.5000 
     78 O           0.6101  -28.5129  -45.3305 O.2       13 UNK        -0.5000 
     79 N           0.7656  -26.4856  -46.3384 N.am      14 UNK        -0.5000 
     80 CA          0.8718  -26.9585  -47.7210 C.3       14 UNK         0.1400 
     81 CB          1.3243  -25.8004  -48.6232 C.3       14 UNK        -0.1800 
     82 C          -0.4393  -27.5658  -48.2540 C.2       14 UNK         0.5000 
     83 O          -0.3912  -28.4796  -49.0782 O.2       14 UNK        -0.5000 
     84 N          -1.5776  -27.0343  -47.7874 N.am      15 UNK        -0.5000 
     85 CA         -2.9714  -27.3872  -48.0811 C.3       15 UNK         0.1400 
     86 CB         -3.2692  -28.8585  -47.7367 C.3       15 UNK        -0.1800 
     87 C          -3.4325  -27.0363  -49.5093 C.2       15 UNK         0.5000 
     88 O          -4.5611  -26.5726  -49.6782 O.2       15 UNK        -0.5000 
     89 N          -2.5666  -27.2461  -50.5075 N.am      16 UNK        -0.5000 
     90 CA         -2.7659  -26.8491  -51.8979 C.3       16 UNK         0.1400 
     91 CB         -1.7026  -27.5314  -52.7733 C.3       16 UNK        -0.1800 
     92 C          -2.7015  -25.3174  -52.0347 C.2       16 UNK         0.5000 
     93 O          -1.6552  -24.7251  -51.7629 O.2       16 UNK        -0.5000 
     94 N          -3.8234  -24.7097  -52.4344 N.am      17 UNK        -0.5000 
     95 CA         -3.9591  -23.2712  -52.6416 C.3       17 UNK         0.1400 
     96 CB         -5.4557  -22.9178  -52.6832 C.3       17 UNK        -0.1800 
     97 C          -3.2508  -22.8284  -53.9330 C.2       17 UNK         0.5000 
     98 O          -3.5861  -23.3310  -55.0083 O.2       17 UNK        -0.5000 
     99 N          -2.3034  -21.8958  -53.8058 N.am      18 UNK        -0.5000 
    100 CA        -1.5626  -21.2739  -54.8974 C.3       18 UNK         0.1400 
    101 CB        -0.5460  -22.2678  -55.4944 C.3       18 UNK        -0.1800 
    102 C         -0.8453  -20.0274  -54.3590 C.2       18 UNK         0.5000 
    103 O         -0.5773  -19.9573  -53.1571 O.2       18 UNK        -0.5000 
    104 N         -0.5121  -19.1080  -55.2756 N.am      19 UNK        -0.5000 
    105 CA         0.1644  -17.8198  -55.0704 C.3       19 UNK         0.1400 
    106 CB         1.5244  -18.0041  -54.3631 C.3       19 UNK        -0.1800 
    107 C         -0.7133  -16.7633  -54.3670 C.2       19 UNK         0.5000 
    108 O         -1.8220  -17.0588  -53.9185 O.2       19 UNK        -0.5000 
    109 N         -0.2093  -15.5207  -54.3264 N.am      20 UNK        -0.5000 
    110 CA        -0.8528  -14.3279  -53.7644 C.3       20 UNK         0.1400 
    111 CB        -0.8537  -14.3988  -52.2201 C.3       20 UNK        -0.1800 
    112 C         -2.2459  -14.0826  -54.3865 C.2       20 UNK         0.5000 
    113 O         -2.3292  -13.8040  -55.5841 O.2       20 UNK        -0.5000 
    114 N         -3.3071  -14.2278  -53.5818 N.am      21 UNK        -0.5000 
    115 CA        -4.7116  -14.1047  -53.9794 C.3       21 UNK         0.1400 
    116 CB        -5.5759  -14.0903  -52.7078 C.3       21 UNK        -0.1800 
    117 C         -5.2011  -15.2002  -54.9522 C.2       21 UNK         0.5000 
    118 O         -6.2485  -15.0205  -55.5752 O.2       21 UNK        -0.5000 
    119 N         -4.4520  -16.3013  -55.0684 N.am      22 UNK        -0.5000 
    120 CA        -4.7292  -17.4500  -55.9414 C.3       22 UNK         0.1400 
    121 C         -3.5106  -17.8278  -56.8329 C.2       22 UNK         0.5000 
    122 N         -2.6409  -16.8833  -57.1751 N.am      22 UNK        -0.7600 
    123 O         -3.3549  -18.9723  -57.2495 O.2       22 UNK        -0.5000 
    124 C124       -5.3736  -18.6363  -55.1702 C.3       23 UNK        -0.0398 
    125 S125       -4.5353  -19.0923  -53.6104 S.3       23 UNK        -0.2404 
    126 C126       -5.7561  -18.4936  -52.3912 C.3       23 UNK        -0.0205 
    127 H127       -1.8398  -19.0398  -50.7613 H         1 UNK         0.0600 
    128 H128       -0.9442  -17.6960  -51.4589 H         1 UNK         0.0600 
    129 H129       -2.6703  -17.5276  -51.1357 H         1 UNK         0.0600 
    130 H130       -3.3757  -17.1807  -48.9355 H         1 UNK         0.3000 
    131 H131       -1.5551  -17.1138  -46.7292 H         1 UNK         0.0600 
    132 H132       -3.8252  -17.6577  -46.2274 H         1 UNK         0.0800 
    133 H133       -3.5010  -16.1404  -45.4623 H         1 UNK         0.0800 
    134 H134       -6.2720  -17.8224  -46.5553 H         1 UNK         0.0800 
    135 H135       -7.1405  -16.9408  -47.7816 H         1 UNK         0.0800 
    136 H136       -6.3896  -17.0375  -50.1930 H         1 UNK         0.1150 
    137 H137       -4.4100  -20.6637  -51.3289 H         1 UNK         0.1150 
    138 H138       -4.7825  -19.6480  -47.1945 H         1 UNK         0.1150 
    139 H139       -3.9615  -21.8433  -47.8197 H         1 UNK         0.0800 
    140 H140       -4.2381  -22.3987  -49.4453 H         1 UNK         0.0800 
    141 H141       -0.6461  -20.1941  -47.7998 H         1 UNK         0.0800 
    142 H142       -2.0741  -20.6776  -46.9310 H         1 UNK         0.0800 
    143 H143        0.0221  -22.7030  -47.8509 H         1 UNK         0.0600 
    144 H144        0.5084  -20.8233  -45.7797 H         1 UNK         0.3000 
    145 H145        3.0507  -22.8405  -44.1889 H         1 UNK         0.0600 
    146 H146        4.2873  -20.7412  -44.5893 H         1 UNK         0.0600 
    147 H147        4.0688  -21.6018  -46.1048 H         1 UNK         0.0600 
    148 H148        3.0692  -20.2008  -45.7426 H         1 UNK         0.0600 
    149 H149        2.0357  -20.3064  -43.4559 H         1 UNK         0.3000 
    150 H150       -0.6147  -21.4811  -41.3155 H         1 UNK         0.0600 
    151 H151        1.5336  -21.5533  -40.0317 H         1 UNK         0.0600 
    152 H152        0.6511  -20.0623  -39.7397 H         1 UNK         0.0600 
    153 H153        2.0527  -20.0612  -40.8078 H         1 UNK         0.0600 
    154 H154        0.1822  -18.8416  -41.9203 H         1 UNK         0.3000 
    155 H155       -1.9473  -18.3651  -44.7868 H         1 UNK         0.0600 
    156 H156       -2.4626  -16.3977  -43.3035 H         1 UNK         0.0600 
    157 H157       -1.8183  -17.2799  -41.9250 H         1 UNK         0.0600 
    158 H158       -3.2480  -17.8736  -42.7566 H         1 UNK         0.0600 
    159 H159       -0.0294  -16.6105  -43.6775 H         1 UNK         0.3000 
    160 H160        2.8206  -17.7174  -45.5551 H         1 UNK         0.0600 
    161 H161        1.2129  -15.1160  -45.5631 H         1 UNK         0.0600 
    162 H162        1.4960  -16.1148  -46.9820 H         1 UNK         0.0600 
    163 H163        2.8507  -15.3482  -46.1648 H         1 UNK         0.0600 
    164 H164        2.3767  -15.7086  -43.5277 H         1 UNK         0.3000 
    165 H165        3.3635  -17.7449  -40.7611 H         1 UNK         0.0600 
    166 H166        4.7420  -15.4047  -42.1879 H         1 UNK         0.0600 
    167 H167        4.9969  -15.8982  -40.5138 H         1 UNK         0.0600 
    168 H168        5.4843  -16.9586  -41.8262 H         1 UNK         0.0600 
    169 H169        2.6175  -14.9933  -40.9734 H         1 UNK         0.3000 
    170 H170       -0.8898  -15.4041  -40.6130 H         1 UNK         0.0600 
    171 H171       -0.0445  -15.6835  -38.2783 H         1 UNK         0.0600 
    172 H172        1.1842  -14.4565  -38.5628 H         1 UNK         0.0600 
    173 H173       -0.5258  -14.0235  -38.5886 H         1 UNK         0.0600 
    174 H174        0.7344  -13.0819  -40.5887 H         1 UNK         0.3000 
    175 H175        0.6547  -11.6643  -42.2640 H         1 UNK         0.0600 
    176 H176        2.4427  -11.4868  -43.9894 H         1 UNK         0.0600 
    177 H177        2.8465  -12.7463  -42.8341 H         1 UNK         0.0600 
    178 H178        2.2298  -13.1798  -44.4250 H         1 UNK         0.0600 
    179 H179       -0.5891  -12.8455  -44.6645 H         1 UNK         0.3000 
    180 H180       -2.6094  -10.9760  -45.2037 H         1 UNK         0.0600 
    181 H181       -2.4830   -9.0732  -46.8301 H         1 UNK         0.0600 
    182 H182       -2.1175   -8.5317  -45.2023 H         1 UNK         0.0600 
    183 H183       -0.8114   -8.7706  -46.3593 H         1 UNK         0.0600 
    184 H184       -0.2275  -11.7199  -46.6835 H         1 UNK         0.3000 
    185 H185       -1.7491  -12.6887  -49.5773 H         1 UNK         0.0600 
    186 H186        0.5520  -13.5805  -49.4326 H         1 UNK         0.0600 
    187 H187        0.5223  -11.9268  -48.8511 H         1 UNK         0.0600 
    188 H188        0.6216  -13.2661  -47.7067 H         1 UNK         0.0600 
    189 H189       -2.2816  -14.8115  -49.1572 H         1 UNK         0.3000 
    190 H190       -1.4864  -22.3164  -44.6165 H         1 UNK         0.3000 
    191 H191       -3.4441  -24.3506  -44.8960 H         1 UNK         0.0600 
    192 H192       -3.4773  -24.2993  -42.4008 H         1 UNK         0.0600 
    193 H193       -3.4894  -22.6768  -43.0751 H         1 UNK         0.0600 
    194 H194       -2.0061  -23.3354  -42.3888 H         1 UNK         0.0600 
    195 H195       -0.0275  -24.5237  -43.8102 H         1 UNK         0.3000 
    196 H196       -0.0121  -27.3190  -43.2238 H         1 UNK         0.0600 
    197 H197        2.4678  -27.0225  -43.2440 H         1 UNK         0.0600 
    198 H198        1.6764  -25.7554  -42.3187 H         1 UNK         0.0600 
    199 H199        2.2813  -25.4164  -43.9381 H         1 UNK         0.0600 
    200 H200        0.8384  -25.4821  -46.1939 H         1 UNK         0.3000 
    201 H201        1.6368  -27.7369  -47.7554 H         1 UNK         0.0600 
    202 H202        2.2837  -25.3976  -48.2980 H         1 UNK         0.0600 
    203 H203        0.6003  -24.9849  -48.6224 H         1 UNK         0.0600 
    204 H204        1.4428  -26.1316  -49.6556 H         1 UNK         0.0600 
    205 H205       -1.4835  -26.2010  -47.2139 H         1 UNK         0.3000 
    206 H206       -3.5660  -26.7700  -47.4056 H         1 UNK         0.0600 
    207 H207       -2.9918  -29.0841  -46.7068 H         1 UNK         0.0600 
    208 H208       -4.3333  -29.0728  -47.8421 H         1 UNK         0.0600 
    209 H209       -2.7334  -29.5486  -48.3888 H         1 UNK         0.0600 
    210 H210       -1.6646  -27.6431  -50.2652 H         1 UNK         0.3000 
    211 H211       -3.7481  -27.2008  -52.2207 H         1 UNK         0.0600 
    212 H212       -0.6919  -27.2518  -52.4724 H         1 UNK         0.0600 
    213 H213       -1.8232  -27.2527  -53.8209 H         1 UNK         0.0600 
    214 H214       -1.7807  -28.6171  -52.7136 H         1 UNK         0.0600 
    215 H215       -4.6357  -25.2698  -52.6473 H         1 UNK         0.3000 
    216 H216       -3.5049  -22.7559  -51.7934 H         1 UNK         0.0600 
    217 H217       -5.6089  -21.8637  -52.9143 H         1 UNK         0.0600 
    218 H218       -5.9328  -23.1134  -51.7227 H         1 UNK         0.0600 
    219 H219       -5.9841  -23.4924  -53.4448 H         1 UNK         0.0600 
    220 H220       -2.0737  -21.5139  -52.8957 H         1 UNK         0.3000 
    221 H221       -2.2717  -20.9623  -55.6669 H         1 UNK         0.0600 
    222 H222        0.1489  -22.6302  -54.7358 H         1 UNK         0.0600 
    223 H223       -1.0401  -23.1331  -55.9355 H         1 UNK         0.0600 
    224 H224        0.0436  -21.7999  -56.2835 H         1 UNK         0.0600 
    225 H225       -0.8312  -19.2662  -56.2212 H         1 UNK         0.3000 
    226 H226        0.3624  -17.4371  -56.0725 H         1 UNK         0.0600 
    227 H227        2.1104  -18.7942  -54.8326 H         1 UNK         0.0600 
    228 H228        2.1204  -17.0924  -54.4095 H         1 UNK         0.0600 
    229 H229        1.4044  -18.2559  -53.3090 H         1 UNK         0.0600 
    230 H230        0.6877  -15.3571  -54.7609 H         1 UNK         0.3000 
    231 H231       -0.2364  -13.4756  -54.0538 H         1 UNK         0.0600 
    232 H232       -1.2602  -13.4839  -51.7891 H         1 UNK         0.0600 
    233 H233        0.1604  -14.5097  -51.8362 H         1 UNK         0.0600 
    234 H234       -1.4379  -15.2377  -51.8428 H         1 UNK         0.0600 
    235 H235       -3.1389  -14.5009  -52.6255 H         1 UNK         0.3000 
    236 H236       -4.8332  -13.1461  -54.4876 H         1 UNK         0.0600 
    237 H237       -5.4609  -15.0096  -52.1326 H         1 UNK         0.0600 
    238 H238       -5.3107  -13.2544  -52.0602 H         1 UNK         0.0600 
    239 H239       -6.6338  -13.9859  -52.9523 H         1 UNK         0.0600 
    240 H240       -3.5974  -16.3881  -54.5243 H         1 UNK         0.3000 
    241 H241       -5.4688  -17.1444  -56.6832 H         1 UNK         0.0600 
    242 H242       -2.7625  -15.9339  -56.8533 H         1 UNK         0.3800 
    243 H243       -1.8812  -17.1094  -57.7960 H         1 UNK         0.3800 
    244 H244       -6.4096  -18.3798  -54.9470 H         1 UNK         0.0800 
    245 H245       -5.4367  -19.5254  -55.7992 H         1 UNK         0.0800 
    246 H246       -5.8669  -17.4167  -52.5237 H         1 UNK         0.0800 
    247 H247       -6.7265  -18.9387  -52.6142 H         1 UNK         0.0800 
@<TRIPOS>BOND
     1    1    2 1    
     2    1  127 1    
     3    1  128 1    
     4    1  129 1    
     5    2    3 2    
     6    2    4 am   BACKBONE|DICT|INTERRES
     7    4    5 1    
     8    4  130 1    
     9    5    6 1    
    10    5   65 1    
    11    5  131 1    
    12    6    7 1    
    13    6  132 1    
    14    6  133 1    
    15    7    8 1    
    16    8    9 1    
    17    8  134 1    
    18    8  135 1    
    19    9   10 ar   
    20    9   14 ar   
    21   10   11 ar   
    22   10  136 1    
    23   11   12 ar   
    24   11  126 1    
    25   12   13 ar   
    26   12  137 1    
    27   13   14 ar   
    28   13   15 1    
    29   14  138 1    
    30   15   16 1    
    31   15  139 1    
    32   15  140 1    
    33   16   17 1    
    34   17   18 1    
    35   17  141 1    
    36   17  142 1    
    37   18   19 1    
    38   18   67 1    
    39   18  143 1    
    40   19   20 am   BACKBONE|DICT|INTERRES
    41   19  144 1    
    42   20   21 2    
    43   20   22 1    
    44   22   23 1    
    45   22   24 1    
    46   22  145 1    
    47   23  146 1    
    48   23  147 1    
    49   23  148 1    
    50   24   25 am   BACKBONE|DICT|INTERRES
    51   24  149 1    
    52   25   26 2    
    53   25   27 1    
    54   27   28 1    
    55   27   29 1    
    56   27  150 1    
    57   28  151 1    
    58   28  152 1    
    59   28  153 1    
    60   29   30 am   BACKBONE|DICT|INTERRES
    61   29  154 1    
    62   30   31 2    
    63   30   32 1    
    64   32   33 1    
    65   32   34 1    
    66   32  155 1    
    67   33  156 1    
    68   33  157 1    
    69   33  158 1    
    70   34   35 am   BACKBONE|DICT|INTERRES
    71   34  159 1    
    72   35   36 2    
    73   35   37 1    
    74   37   38 1    
    75   37   39 1    
    76   37  160 1    
    77   38  161 1    
    78   38  162 1    
    79   38  163 1    
    80   39   40 am   BACKBONE|DICT|INTERRES
    81   39  164 1    
    82   40   41 2    
    83   40   42 1    
    84   42   43 1    
    85   42   44 1    
    86   42  165 1    
    87   43  166 1    
    88   43  167 1    
    89   43  168 1    
    90   44   45 am   BACKBONE|DICT|INTERRES
    91   44  169 1    
    92   45   46 2    
    93   45   47 1    
    94   47   48 1    
    95   47   49 1    
    96   47  170 1    
    97   48  171 1    
    98   48  172 1    
    99   48  173 1    
   100   49   50 am   BACKBONE|DICT|INTERRES
   101   49  174 1    
   102   50   51 2    
   103   50   52 1    
   104   52   53 1    
   105   52   54 1    
   106   52  175 1    
   107   53  176 1    
   108   53  177 1    
   109   53  178 1    
   110   54   55 am   BACKBONE|DICT|INTERRES
   111   54  179 1    
   112   55   56 2    
   113   55   57 1    
   114   57   58 1    
   115   57   59 1    
   116   57  180 1    
   117   58  181 1    
   118   58  182 1    
   119   58  183 1    
   120   59   60 am   BACKBONE|DICT|INTERRES
   121   59  184 1    
   122   60   61 2    
   123   60   62 1    
   124   62   63 1    
   125   62   64 1    
   126   62  185 1    
   127   63  186 1    
   128   63  187 1    
   129   63  188 1    
   130   64   65 am   BACKBONE|DICT|INTERRES
   131   64  189 1    
   132   65   66 2    
   133   67   68 2    
   134   67   69 am   BACKBONE|DICT|INTERRES
   135   69   70 1    
   136   69  190 1    
   137   70   71 1    
   138   70   72 1    
   139   70  191 1    
   140   71  192 1    
   141   71  193 1    
   142   71  194 1    
   143   72   73 2    
   144   72   74 am   BACKBONE|DICT|INTERRES
   145   74   75 1    
   146   74  195 1    
   147   75   76 1    
   148   75   77 1    
   149   75  196 1    
   150   76  197 1    
   151   76  198 1    
   152   76  199 1    
   153   77   78 2    
   154   77   79 am   BACKBONE|DICT|INTERRES
   155   79   80 1    
   156   79  200 1    
   157   80   81 1    
   158   80   82 1    
   159   80  201 1    
   160   81  202 1    
   161   81  203 1    
   162   81  204 1    
   163   82   83 2    
   164   82   84 am   BACKBONE|DICT|INTERRES
   165   84   85 1    
   166   84  205 1    
   167   85   86 1    
   168   85   87 1    
   169   85  206 1    
   170   86  207 1    
   171   86  208 1    
   172   86  209 1    
   173   87   88 2    
   174   87   89 am   BACKBONE|DICT|INTERRES
   175   89   90 1    
   176   89  210 1    
   177   90   91 1    
   178   90   92 1    
   179   90  211 1    
   180   91  212 1    
   181   91  213 1    
   182   91  214 1    
   183   92   93 2    
   184   92   94 am   BACKBONE|DICT|INTERRES
   185   94   95 1    
   186   94  215 1    
   187   95   96 1    
   188   95   97 1    
   189   95  216 1    
   190   96  217 1    
   191   96  218 1    
   192   96  219 1    
   193   97   98 2    
   194   97   99 am   BACKBONE|DICT|INTERRES
   195   99  100 1    
   196   99  220 1    
   197  100  101 1    
   198  100  102 1    
   199  100  221 1    
   200  101  222 1    
   201  101  223 1    
   202  101  224 1    
   203  102  103 2    
   204  102  104 am   BACKBONE|DICT|INTERRES
   205  104  105 1    
   206  104  225 1    
   207  105  106 1    
   208  105  107 1    
   209  105  226 1    
   210  106  227 1    
   211  106  228 1    
   212  106  229 1    
   213  107  108 2    
   214  107  109 am   BACKBONE|DICT|INTERRES
   215  109  110 1    
   216  109  230 1    
   217  110  111 1    
   218  110  112 1    
   219  110  231 1    
   220  111  232 1    
   221  111  233 1    
   222  111  234 1    
   223  112  113 2    
   224  112  114 am   BACKBONE|DICT|INTERRES
   225  114  115 1    
   226  114  235 1    
   227  115  116 1    
   228  115  117 1    
   229  115  236 1    
   230  116  237 1    
   231  116  238 1    
   232  116  239 1    
   233  117  118 2    
   234  117  119 am   BACKBONE|DICT|INTERRES
   235  119  120 1    
   236  119  240 1    
   237  120  121 1    
   238  120  124 1    
   239  120  241 1    
   240  121  122 am   BACKBONE|DICT|INTERRES
   241  121  123 2    
   242  122  242 1    
   243  122  243 1    
   244  124  125 1    
   245  124  244 1    
   246  124  245 1    
   247  125  126 1    
   248  126  246 1    
   249  126  247 1    
@<TRIPOS>SUBSTRUCTURE
     1 UNK         1 GROUP             0       ****    0 ROOT    
