@<TRIPOS>MOLECULE
3R540
247   249    1
SMALL
USER_CHARGES


@<TRIPOS>ATOM
      1 CA          4.4479  -12.8263  -47.7717 C.3       0 UNK        -0.1800 
      2 C           3.2041  -12.5796  -46.9325 C.2       0 UNK         0.5000 
      3 O           3.2950  -12.5630  -45.7042 O.2       0 UNK        -0.5000 
      4 N           2.0484  -12.3947  -47.5840 N.am      1 UNK        -0.5000 
      5 CA          0.7457  -12.1696  -46.9439 C.3       1 UNK         0.1400 
      6 C6         -0.4313  -12.2180  -47.9510 C.3       23 UNK        -0.0398 
      7 S7         -0.5499  -13.8097  -48.8325 S.3       23 UNK        -0.2404 
      8 C8         -1.8125  -14.6491  -47.8215 C.3       23 UNK        -0.0205 
      9 C9         -1.9857  -16.1189  -48.1835 C.ar      23 UNK        -0.0193 
     10 C10        -3.2643  -16.6454  -48.3921 C.ar      23 UNK        -0.1150 
     11 C11        -3.4449  -18.0067  -48.6591 C.ar      23 UNK        -0.0193 
     12 C12        -2.3232  -18.8431  -48.7118 C.ar      23 UNK        -0.1150 
     13 C13        -1.0401  -18.3309  -48.5083 C.ar      23 UNK        -0.0193 
     14 C14        -0.8783  -16.9695  -48.2512 C.ar      23 UNK        -0.1150 
     15 C15         0.1673  -19.2507  -48.5349 C.3       23 UNK        -0.0205 
     16 S16         0.6829  -19.6884  -46.8446 S.3       23 UNK        -0.2404 
     17 C17         1.6789  -21.1833  -47.1611 C.3       23 UNK        -0.0398 
     18 CA          0.9720  -22.5195  -46.8205 C.3       11 UNK         0.1400 
     19 N           0.7044  -22.6916  -45.3878 N.am      11 UNK        -0.5000 
     20 C           0.4841  -23.8911  -44.8281 C.2       10 UNK         0.5000 
     21 O           0.4848  -24.9466  -45.4625 O.2       10 UNK        -0.5000 
     22 CA          0.1730  -23.9254  -43.3215 C.3       10 UNK         0.1400 
     23 CB          1.4682  -23.8511  -42.4995 C.3       10 UNK        -0.1800 
     24 N          -0.7431  -22.8742  -42.8787 N.am      10 UNK        -0.5000 
     25 C          -1.9870  -22.6836  -43.3380 C.2       9 UNK         0.5000 
     26 O          -2.4883  -23.3511  -44.2423 O.2       9 UNK        -0.5000 
     27 CA         -2.8179  -21.5571  -42.6928 C.3       9 UNK         0.1400 
     28 CB         -2.3542  -21.1759  -41.2688 C.3       9 UNK        -0.1800 
     29 N          -2.8939  -20.3677  -43.5456 N.am      9 UNK        -0.5000 
     30 C          -1.8702  -19.6256  -43.9927 C.2       8 UNK         0.5000 
     31 O          -0.6867  -19.8951  -43.7744 O.2       8 UNK        -0.5000 
     32 CA         -2.2155  -18.3717  -44.8287 C.3       8 UNK         0.1400 
     33 CB         -3.7131  -17.9926  -44.8314 C.3       8 UNK        -0.1800 
     34 N          -1.3926  -17.2195  -44.4501 N.am      8 UNK        -0.5000 
     35 C          -1.2820  -16.6586  -43.2371 C.2       7 UNK         0.5000 
     36 O          -1.9535  -17.0024  -42.2620 O.2       7 UNK        -0.5000 
     37 CA         -0.2293  -15.5343  -43.0904 C.3       7 UNK         0.1400 
     38 CB         -0.0696  -15.0573  -41.6349 C.3       7 UNK        -0.1800 
     39 N           1.0889  -15.9272  -43.5989 N.am      7 UNK        -0.5000 
     40 C           1.4367  -15.9590  -44.8906 C.2       6 UNK         0.5000 
     41 O           0.6719  -15.6345  -45.7951 O.2       6 UNK        -0.5000 
     42 CA          2.8792  -16.3753  -45.2038 C.3       6 UNK         0.1400 
     43 CB          3.1523  -16.5137  -46.7132 C.3       6 UNK        -0.1800 
     44 N           3.7491  -15.3480  -44.6502 N.am      6 UNK        -0.5000 
     45 C           4.7677  -15.5484  -43.8074 C.2       5 UNK         0.5000 
     46 O           5.1626  -16.6585  -43.4506 O.2       5 UNK        -0.5000 
     47 CA          5.4355  -14.2815  -43.2459 C.3       5 UNK         0.1400 
     48 CB          6.5763  -13.8177  -44.1647 C.3       5 UNK        -0.1800 
     49 N           4.4697  -13.1935  -43.1077 N.am      5 UNK        -0.5000 
     50 C           3.5912  -13.0560  -42.1059 C.2       4 UNK         0.5000 
     51 O           3.5505  -13.8075  -41.1308 O.2       4 UNK        -0.5000 
     52 CA          2.5739  -11.8998  -42.2377 C.3       4 UNK         0.1400 
     53 CB          2.1295  -11.3282  -40.8761 C.3       4 UNK        -0.1800 
     54 N           3.0246  -10.8383  -43.1448 N.am      4 UNK        -0.5000 
     55 C           4.0831  -10.0250  -43.0008 C.2       3 UNK         0.5000 
     56 O           4.7832   -9.9759  -41.9893 O.2       3 UNK        -0.5000 
     57 CA          4.4575   -9.1521  -44.2151 C.3       3 UNK         0.1400 
     58 CB          5.7136   -9.7142  -44.9012 C.3       3 UNK        -0.1800 
     59 N           3.3862   -9.0703  -45.2088 N.am      3 UNK        -0.5000 
     60 C           2.3145   -8.2725  -45.1151 C.2       2 UNK         0.5000 
     61 O           2.1377   -7.4659  -44.2017 O.2       2 UNK        -0.5000 
     62 CA          1.2543   -8.4158  -46.2227 C.3       2 UNK         0.1400 
     63 CB          1.5118   -7.4027  -47.3485 C.3       2 UNK        -0.1800 
     64 N           1.2006   -9.7647  -46.7950 N.am      2 UNK        -0.5000 
     65 C           0.7161  -10.8426  -46.1605 C.2       1 UNK         0.5000 
     66 O           0.2900  -10.8238  -45.0057 O.2       1 UNK        -0.5000 
     67 C          -0.2914  -22.7629  -47.6728 C.2       11 UNK         0.5000 
     68 O          -0.1824  -23.3159  -48.7659 O.2       11 UNK        -0.5000 
     69 N          -1.4661  -22.3877  -47.1434 N.am      12 UNK        -0.5000 
     70 CA         -2.7675  -22.6261  -47.7668 C.3       12 UNK         0.1400 
     71 CB         -3.8547  -21.8243  -47.0334 C.3       12 UNK        -0.1800 
     72 C          -3.1089  -24.1240  -47.7957 C.2       12 UNK         0.5000 
     73 O          -3.5701  -24.6196  -48.8227 O.2       12 UNK        -0.5000 
     74 N          -2.8267  -24.8225  -46.6871 N.am      13 UNK        -0.5000 
     75 CA         -2.9613  -26.2714  -46.5516 C.3       13 UNK         0.1400 
     76 CB         -2.7284  -26.6762  -45.0883 C.3       13 UNK        -0.1800 
     77 C          -2.0196  -27.0401  -47.4954 C.2       13 UNK         0.5000 
     78 O          -2.4684  -27.9707  -48.1645 O.2       13 UNK        -0.5000 
     79 N          -0.7507  -26.6109  -47.5746 N.am      14 UNK        -0.5000 
     80 CA          0.2610  -27.1655  -48.4805 C.3       14 UNK         0.1400 
     81 CB          1.6305  -26.5488  -48.1598 C.3       14 UNK        -0.1800 
     82 C          -0.0870  -26.9684  -49.9691 C.2       14 UNK         0.5000 
     83 O           0.1508  -27.8672  -50.7763 O.2       14 UNK        -0.5000 
     84 N          -0.6781  -25.8121  -50.2950 N.am      15 UNK        -0.5000 
     85 CA         -1.1945  -25.4677  -51.6204 C.3       15 UNK         0.1400 
     86 CB         -1.3322  -23.9399  -51.6954 C.3       15 UNK        -0.1800 
     87 C          -2.5441  -26.1359  -51.9573 C.2       15 UNK         0.5000 
     88 O          -3.0139  -25.9948  -53.0887 O.2       15 UNK        -0.5000 
     89 N          -3.1665  -26.7986  -50.9685 N.am      16 UNK        -0.5000 
     90 CA         -4.5078  -27.3932  -50.9952 C.3       16 UNK         0.1400 
     91 CB         -4.5252  -28.6389  -51.9041 C.3       16 UNK        -0.1800 
     92 C          -5.5985  -26.3641  -51.3631 C.2       16 UNK         0.5000 
     93 O          -6.5399  -26.6911  -52.0888 O.2       16 UNK        -0.5000 
     94 N          -5.4067  -25.1186  -50.9015 N.am      17 UNK        -0.5000 
     95 CA         -6.1153  -23.8754  -51.2244 C.3       17 UNK         0.1400 
     96 CB         -7.5940  -23.9443  -50.7975 C.3       17 UNK        -0.1800 
     97 C          -5.9812  -23.4295  -52.6952 C.2       17 UNK         0.5000 
     98 O          -5.7026  -22.2575  -52.9492 O.2       17 UNK        -0.5000 
     99 N          -6.1884  -24.3635  -53.6297 N.am      18 UNK        -0.5000 
    100 CA        -6.2802  -24.1577  -55.0718 C.3       18 UNK         0.1400 
    101 CB        -6.6335  -25.4919  -55.7460 C.3       18 UNK        -0.1800 
    102 C         -5.0265  -23.5441  -55.7147 C.2       18 UNK         0.5000 
    103 O         -5.1625  -22.6172  -56.5136 O.2       18 UNK        -0.5000 
    104 N         -3.8326  -24.0424  -55.3579 N.am      19 UNK        -0.5000 
    105 CA        -2.5694  -23.5954  -55.9603 C.3       19 UNK         0.1400 
    106 CB        -1.4652  -24.6289  -55.6907 C.3       19 UNK        -0.1800 
    107 C         -2.1368  -22.1868  -55.5065 C.2       19 UNK         0.5000 
    108 O         -1.3760  -21.5298  -56.2177 O.2       19 UNK        -0.5000 
    109 N         -2.6436  -21.7444  -54.3491 N.am      20 UNK        -0.5000 
    110 CA        -2.4454  -20.4027  -53.7989 C.3       20 UNK         0.1400 
    111 CB        -2.2311  -20.5273  -52.2816 C.3       20 UNK        -0.1800 
    112 C         -3.6202  -19.4576  -54.1293 C.2       20 UNK         0.5000 
    113 O         -3.5317  -18.2660  -53.8313 O.2       20 UNK        -0.5000 
    114 N         -4.6859  -19.9978  -54.7428 N.am      21 UNK        -0.5000 
    115 CA        -5.9455  -19.3427  -55.1092 C.3       21 UNK         0.1400 
    116 CB        -5.7155  -18.3039  -56.2265 C.3       21 UNK        -0.1800 
    117 C         -6.7079  -18.7730  -53.8929 C.2       21 UNK         0.5000 
    118 O         -7.2952  -17.6922  -53.9795 O.2       21 UNK        -0.5000 
    119 N         -6.6740  -19.5079  -52.7751 N.am      22 UNK        -0.5000 
    120 CA        -7.3375  -19.1503  -51.5134 C.3       22 UNK         0.1400 
    121 C         -8.8827  -19.2822  -51.6013 C.2       22 UNK         0.5000 
    122 N         -9.6255  -18.3869  -50.9648 N.am      22 UNK        -0.7600 
    123 O         -9.4144  -20.2129  -52.2029 O.2       22 UNK        -0.5000 
    124 C124       -6.7944  -19.9754  -50.3199 C.3       23 UNK        -0.0398 
    125 S125       -4.9879  -19.8320  -50.1300 S.3       23 UNK        -0.2404 
    126 C126       -4.8592  -18.5543  -48.8377 C.3       23 UNK        -0.0205 
    127 H127        5.1856  -12.0459  -47.5862 H         1 UNK         0.0600 
    128 H128        4.8918  -13.7861  -47.5072 H         1 UNK         0.0600 
    129 H129        4.2220  -12.8376  -48.8381 H         1 UNK         0.0600 
    130 H130        2.0332  -12.4515  -48.5923 H         1 UNK         0.3000 
    131 H131        0.5980  -12.9714  -46.2176 H         1 UNK         0.0600 
    132 H132       -0.3265  -11.4317  -48.7005 H         1 UNK         0.0800 
    133 H133       -1.3792  -12.0240  -47.4451 H         1 UNK         0.0800 
    134 H134       -2.7570  -14.1137  -47.9291 H         1 UNK         0.0800 
    135 H135       -1.5373  -14.5838  -46.7684 H         1 UNK         0.0800 
    136 H136       -4.1256  -15.9957  -48.3262 H         1 UNK         0.1150 
    137 H137       -2.4455  -19.8983  -48.9034 H         1 UNK         0.1150 
    138 H138        0.1134  -16.5754  -48.0818 H         1 UNK         0.1150 
    139 H139       -0.0676  -20.1523  -49.1027 H         1 UNK         0.0800 
    140 H140        0.9959  -18.7655  -49.0528 H         1 UNK         0.0800 
    141 H141        2.0065  -21.1880  -48.2022 H         1 UNK         0.0800 
    142 H142        2.5939  -21.1007  -46.5734 H         1 UNK         0.0800 
    143 H143        1.6775  -23.3043  -47.1027 H         1 UNK         0.0600 
    144 H144        0.6482  -21.8546  -44.8219 H         1 UNK         0.3000 
    145 H145       -0.3068  -24.8833  -43.1107 H         1 UNK         0.0600 
    146 H146        1.2686  -23.9827  -41.4359 H         1 UNK         0.0600 
    147 H147        2.1655  -24.6354  -42.7973 H         1 UNK         0.0600 
    148 H148        1.9744  -22.8939  -42.6307 H         1 UNK         0.0600 
    149 H149       -0.3987  -22.2436  -42.1695 H         1 UNK         0.3000 
    150 H150       -3.8350  -21.9431  -42.6102 H         1 UNK         0.0600 
    151 H151       -2.3144  -22.0524  -40.6206 H         1 UNK         0.0600 
    152 H152       -3.0495  -20.4714  -40.8123 H         1 UNK         0.0600 
    153 H153       -1.3682  -20.7105  -41.2603 H         1 UNK         0.0600 
    154 H154       -3.8281  -20.0754  -43.7937 H         1 UNK         0.3000 
    155 H155       -1.9418  -18.6145  -45.8537 H         1 UNK         0.0600 
    156 H156       -3.8839  -17.0969  -45.4288 H         1 UNK         0.0600 
    157 H157       -4.0876  -17.7948  -43.8265 H         1 UNK         0.0600 
    158 H158       -4.3225  -18.7834  -45.2700 H         1 UNK         0.0600 
    159 H159       -0.7756  -16.8661  -45.1747 H         1 UNK         0.3000 
    160 H160       -0.5900  -14.6849  -43.6748 H         1 UNK         0.0600 
    161 H161        0.2769  -15.8611  -40.9843 H         1 UNK         0.0600 
    162 H162       -1.0168  -14.6936  -41.2345 H         1 UNK         0.0600 
    163 H163        0.6446  -14.2384  -41.5615 H         1 UNK         0.0600 
    164 H164        1.7664  -16.2166  -42.9084 H         1 UNK         0.3000 
    165 H165        3.0550  -17.3420  -44.7274 H         1 UNK         0.0600 
    166 H166        2.9528  -15.5858  -47.2494 H         1 UNK         0.0600 
    167 H167        4.1888  -16.7932  -46.9014 H         1 UNK         0.0600 
    168 H168        2.5214  -17.2860  -47.1534 H         1 UNK         0.0600 
    169 H169        3.4924  -14.3912  -44.8725 H         1 UNK         0.3000 
    170 H170        5.8529  -14.5189  -42.2651 H         1 UNK         0.0600 
    171 H171        7.3275  -14.6001  -44.2797 H         1 UNK         0.0600 
    172 H172        6.2133  -13.5606  -45.1607 H         1 UNK         0.0600 
    173 H173        7.0789  -12.9410  -43.7557 H         1 UNK         0.0600 
    174 H174        4.3653  -12.5788  -43.9060 H         1 UNK         0.3000 
    175 H175        1.6933  -12.3331  -42.7139 H         1 UNK         0.0600 
    176 H176        2.9729  -10.9495  -40.2985 H         1 UNK         0.0600 
    177 H177        1.4165  -10.5138  -41.0050 H         1 UNK         0.0600 
    178 H178        1.6402  -12.0934  -40.2725 H         1 UNK         0.0600 
    179 H179        2.5289  -10.7987  -44.0255 H         1 UNK         0.3000 
    180 H180        4.6839   -8.1488  -43.8481 H         1 UNK         0.0600 
    181 H181        5.5488  -10.7232  -45.2814 H         1 UNK         0.0600 
    182 H182        6.5525   -9.7605  -44.2055 H         1 UNK         0.0600 
    183 H183        6.0215   -9.0862  -45.7373 H         1 UNK         0.0600 
    184 H184        3.4444   -9.7043  -45.9918 H         1 UNK         0.3000 
    185 H185        0.2815   -8.1928  -45.7790 H         1 UNK         0.0600 
    186 H186        1.5330   -6.3838  -46.9595 H         1 UNK         0.0600 
    187 H187        2.4661   -7.5846  -47.8445 H         1 UNK         0.0600 
    188 H188        0.7267   -7.4441  -48.1037 H         1 UNK         0.0600 
    189 H189        1.5498   -9.8720  -47.7365 H         1 UNK         0.3000 
    190 H190       -1.4687  -21.9882  -46.2169 H         1 UNK         0.3000 
    191 H191       -2.7195  -22.2724  -48.7988 H         1 UNK         0.0600 
    192 H192       -4.8039  -21.8863  -47.5669 H         1 UNK         0.0600 
    193 H193       -3.5920  -20.7700  -46.9589 H         1 UNK         0.0600 
    194 H194       -4.0255  -22.1935  -46.0226 H         1 UNK         0.0600 
    195 H195       -2.5046  -24.3170  -45.8656 H         1 UNK         0.3000 
    196 H196       -3.9870  -26.5353  -46.8176 H         1 UNK         0.0600 
    197 H197       -2.8509  -27.7519  -44.9563 H         1 UNK         0.0600 
    198 H198       -3.4403  -26.1832  -44.4260 H         1 UNK         0.0600 
    199 H199       -1.7251  -26.4155  -44.7512 H         1 UNK         0.0600 
    200 H200       -0.4442  -25.8697  -46.9514 H         1 UNK         0.3000 
    201 H201        0.3199  -28.2397  -48.2941 H         1 UNK         0.0600 
    202 H202        1.9191  -26.7438  -47.1268 H         1 UNK         0.0600 
    203 H203        1.6295  -25.4690  -48.3096 H         1 UNK         0.0600 
    204 H204        2.4077  -26.9686  -48.7995 H         1 UNK         0.0600 
    205 H205       -0.7717  -25.0964  -49.5817 H         1 UNK         0.3000 
    206 H206       -0.4731  -25.7879  -52.3746 H         1 UNK         0.0600 
    207 H207       -0.3697  -23.4489  -51.5517 H         1 UNK         0.0600 
    208 H208       -1.7132  -23.6247  -52.6635 H         1 UNK         0.0600 
    209 H209       -2.0192  -23.5602  -50.9386 H         1 UNK         0.0600 
    210 H210       -2.7017  -26.8391  -50.0704 H         1 UNK         0.3000 
    211 H211       -4.7226  -27.7178  -49.9763 H         1 UNK         0.0600 
    212 H212       -4.3684  -28.3780  -52.9513 H         1 UNK         0.0600 
    213 H213       -5.4805  -29.1603  -51.8358 H         1 UNK         0.0600 
    214 H214       -3.7485  -29.3469  -51.6149 H         1 UNK         0.0600 
    215 H215       -4.6113  -24.9880  -50.2778 H         1 UNK         0.3000 
    216 H216       -5.6340  -23.1025  -50.6229 H         1 UNK         0.0600 
    217 H217       -8.1347  -24.7362  -51.3157 H         1 UNK         0.0600 
    218 H218       -8.1125  -23.0108  -51.0179 H         1 UNK         0.0600 
    219 H219       -7.6843  -24.1230  -49.7261 H         1 UNK         0.0600 
    220 H220       -6.3876  -25.3023  -53.2928 H         1 UNK         0.3000 
    221 H221       -7.1056  -23.4638  -55.2437 H         1 UNK         0.0600 
    222 H222       -5.8713  -26.2499  -55.5598 H         1 UNK         0.0600 
    223 H223       -7.5849  -25.8783  -55.3799 H         1 UNK         0.0600 
    224 H224       -6.7251  -25.3741  -56.8266 H         1 UNK         0.0600 
    225 H225       -3.7791  -24.7851  -54.6676 H         1 UNK         0.3000 
    226 H226       -2.7135  -23.5505  -57.0421 H         1 UNK         0.0600 
    227 H227       -1.7607  -25.6210  -56.0323 H         1 UNK         0.0600 
    228 H228       -0.5485  -24.3634  -56.2186 H         1 UNK         0.0600 
    229 H229       -1.2198  -24.6993  -54.6330 H         1 UNK         0.0600 
    230 H230       -3.2828  -22.3444  -53.8466 H         1 UNK         0.3000 
    231 H231       -1.5482  -19.9492  -54.2249 H         1 UNK         0.0600 
    232 H232       -3.0212  -21.1146  -51.8141 H         1 UNK         0.0600 
    233 H233       -1.2814  -21.0135  -52.0599 H         1 UNK         0.0600 
    234 H234       -2.2117  -19.5500  -51.7971 H         1 UNK         0.0600 
    235 H235       -4.6519  -20.9877  -54.9450 H         1 UNK         0.3000 
    236 H236       -6.5821  -20.1281  -55.5192 H         1 UNK         0.0600 
    237 H237       -5.1935  -18.7475  -57.0744 H         1 UNK         0.0600 
    238 H238       -6.6634  -17.9138  -56.5988 H         1 UNK         0.0600 
    239 H239       -5.1276  -17.4550  -55.8766 H         1 UNK         0.0600 
    240 H240       -6.1977  -20.4054  -52.7943 H         1 UNK         0.3000 
    241 H241       -7.1046  -18.1015  -51.3181 H         1 UNK         0.0600 
    242 H242       -9.2140  -17.6162  -50.4612 H         1 UNK         0.3800 
    243 H243      -10.6298  -18.4706  -51.0017 H         1 UNK         0.3800 
    244 H244       -7.2760  -19.6725  -49.3886 H         1 UNK         0.0800 
    245 H245       -7.0312  -21.0301  -50.4515 H         1 UNK         0.0800 
    246 H246       -5.2008  -18.9679  -47.8883 H         1 UNK         0.0800 
    247 H247       -5.5413  -17.7410  -49.0901 H         1 UNK         0.0800 
@<TRIPOS>BOND
     1    1    2 1    
     2    1  127 1    
     3    1  128 1    
     4    1  129 1    
     5    2    3 2    
     6    2    4 am   BACKBONE|DICT|INTERRES
     7    4    5 1    
     8    4  130 1    
     9    5    6 1    
    10    5   65 1    
    11    5  131 1    
    12    6    7 1    
    13    6  132 1    
    14    6  133 1    
    15    7    8 1    
    16    8    9 1    
    17    8  134 1    
    18    8  135 1    
    19    9   10 ar   
    20    9   14 ar   
    21   10   11 ar   
    22   10  136 1    
    23   11   12 ar   
    24   11  126 1    
    25   12   13 ar   
    26   12  137 1    
    27   13   14 ar   
    28   13   15 1    
    29   14  138 1    
    30   15   16 1    
    31   15  139 1    
    32   15  140 1    
    33   16   17 1    
    34   17   18 1    
    35   17  141 1    
    36   17  142 1    
    37   18   19 1    
    38   18   67 1    
    39   18  143 1    
    40   19   20 am   BACKBONE|DICT|INTERRES
    41   19  144 1    
    42   20   21 2    
    43   20   22 1    
    44   22   23 1    
    45   22   24 1    
    46   22  145 1    
    47   23  146 1    
    48   23  147 1    
    49   23  148 1    
    50   24   25 am   BACKBONE|DICT|INTERRES
    51   24  149 1    
    52   25   26 2    
    53   25   27 1    
    54   27   28 1    
    55   27   29 1    
    56   27  150 1    
    57   28  151 1    
    58   28  152 1    
    59   28  153 1    
    60   29   30 am   BACKBONE|DICT|INTERRES
    61   29  154 1    
    62   30   31 2    
    63   30   32 1    
    64   32   33 1    
    65   32   34 1    
    66   32  155 1    
    67   33  156 1    
    68   33  157 1    
    69   33  158 1    
    70   34   35 am   BACKBONE|DICT|INTERRES
    71   34  159 1    
    72   35   36 2    
    73   35   37 1    
    74   37   38 1    
    75   37   39 1    
    76   37  160 1    
    77   38  161 1    
    78   38  162 1    
    79   38  163 1    
    80   39   40 am   BACKBONE|DICT|INTERRES
    81   39  164 1    
    82   40   41 2    
    83   40   42 1    
    84   42   43 1    
    85   42   44 1    
    86   42  165 1    
    87   43  166 1    
    88   43  167 1    
    89   43  168 1    
    90   44   45 am   BACKBONE|DICT|INTERRES
    91   44  169 1    
    92   45   46 2    
    93   45   47 1    
    94   47   48 1    
    95   47   49 1    
    96   47  170 1    
    97   48  171 1    
    98   48  172 1    
    99   48  173 1    
   100   49   50 am   BACKBONE|DICT|INTERRES
   101   49  174 1    
   102   50   51 2    
   103   50   52 1    
   104   52   53 1    
   105   52   54 1    
   106   52  175 1    
   107   53  176 1    
   108   53  177 1    
   109   53  178 1    
   110   54   55 am   BACKBONE|DICT|INTERRES
   111   54  179 1    
   112   55   56 2    
   113   55   57 1    
   114   57   58 1    
   115   57   59 1    
   116   57  180 1    
   117   58  181 1    
   118   58  182 1    
   119   58  183 1    
   120   59   60 am   BACKBONE|DICT|INTERRES
   121   59  184 1    
   122   60   61 2    
   123   60   62 1    
   124   62   63 1    
   125   62   64 1    
   126   62  185 1    
   127   63  186 1    
   128   63  187 1    
   129   63  188 1    
   130   64   65 am   BACKBONE|DICT|INTERRES
   131   64  189 1    
   132   65   66 2    
   133   67   68 2    
   134   67   69 am   BACKBONE|DICT|INTERRES
   135   69   70 1    
   136   69  190 1    
   137   70   71 1    
   138   70   72 1    
   139   70  191 1    
   140   71  192 1    
   141   71  193 1    
   142   71  194 1    
   143   72   73 2    
   144   72   74 am   BACKBONE|DICT|INTERRES
   145   74   75 1    
   146   74  195 1    
   147   75   76 1    
   148   75   77 1    
   149   75  196 1    
   150   76  197 1    
   151   76  198 1    
   152   76  199 1    
   153   77   78 2    
   154   77   79 am   BACKBONE|DICT|INTERRES
   155   79   80 1    
   156   79  200 1    
   157   80   81 1    
   158   80   82 1    
   159   80  201 1    
   160   81  202 1    
   161   81  203 1    
   162   81  204 1    
   163   82   83 2    
   164   82   84 am   BACKBONE|DICT|INTERRES
   165   84   85 1    
   166   84  205 1    
   167   85   86 1    
   168   85   87 1    
   169   85  206 1    
   170   86  207 1    
   171   86  208 1    
   172   86  209 1    
   173   87   88 2    
   174   87   89 am   BACKBONE|DICT|INTERRES
   175   89   90 1    
   176   89  210 1    
   177   90   91 1    
   178   90   92 1    
   179   90  211 1    
   180   91  212 1    
   181   91  213 1    
   182   91  214 1    
   183   92   93 2    
   184   92   94 am   BACKBONE|DICT|INTERRES
   185   94   95 1    
   186   94  215 1    
   187   95   96 1    
   188   95   97 1    
   189   95  216 1    
   190   96  217 1    
   191   96  218 1    
   192   96  219 1    
   193   97   98 2    
   194   97   99 am   BACKBONE|DICT|INTERRES
   195   99  100 1    
   196   99  220 1    
   197  100  101 1    
   198  100  102 1    
   199  100  221 1    
   200  101  222 1    
   201  101  223 1    
   202  101  224 1    
   203  102  103 2    
   204  102  104 am   BACKBONE|DICT|INTERRES
   205  104  105 1    
   206  104  225 1    
   207  105  106 1    
   208  105  107 1    
   209  105  226 1    
   210  106  227 1    
   211  106  228 1    
   212  106  229 1    
   213  107  108 2    
   214  107  109 am   BACKBONE|DICT|INTERRES
   215  109  110 1    
   216  109  230 1    
   217  110  111 1    
   218  110  112 1    
   219  110  231 1    
   220  111  232 1    
   221  111  233 1    
   222  111  234 1    
   223  112  113 2    
   224  112  114 am   BACKBONE|DICT|INTERRES
   225  114  115 1    
   226  114  235 1    
   227  115  116 1    
   228  115  117 1    
   229  115  236 1    
   230  116  237 1    
   231  116  238 1    
   232  116  239 1    
   233  117  118 2    
   234  117  119 am   BACKBONE|DICT|INTERRES
   235  119  120 1    
   236  119  240 1    
   237  120  121 1    
   238  120  124 1    
   239  120  241 1    
   240  121  122 am   BACKBONE|DICT|INTERRES
   241  121  123 2    
   242  122  242 1    
   243  122  243 1    
   244  124  125 1    
   245  124  244 1    
   246  124  245 1    
   247  125  126 1    
   248  126  246 1    
   249  126  247 1    
@<TRIPOS>SUBSTRUCTURE
     1 UNK         1 GROUP             0       ****    0 ROOT    
