@<TRIPOS>MOLECULE
3R540
247   249    1
SMALL
USER_CHARGES


@<TRIPOS>ATOM
      1 CA         -1.3466  -14.1754  -47.3439 C.3       0 UNK        -0.1800 
      2 C          -0.8584  -12.8488  -47.9082 C.2       0 UNK         0.5000 
      3 O          -1.6070  -11.8722  -47.9216 O.2       0 UNK        -0.5000 
      4 N           0.3964  -12.8123  -48.3734 N.am      1 UNK        -0.5000 
      5 CA          1.0445  -11.6406  -48.9859 C.3       1 UNK         0.1400 
      6 C6          2.2931  -12.0370  -49.8153 C.3       23 UNK        -0.0398 
      7 S7          1.9361  -13.3408  -51.0436 S.3       23 UNK        -0.2404 
      8 C8          2.8048  -14.7625  -50.3093 C.3       23 UNK        -0.0205 
      9 C9          2.1873  -16.0763  -50.7587 C.ar      23 UNK        -0.0193 
     10 C10         2.4953  -16.6078  -52.0142 C.ar      23 UNK        -0.1150 
     11 C11         1.9296  -17.8169  -52.4281 C.ar      23 UNK        -0.0193 
     12 C12         1.0568  -18.4995  -51.5750 C.ar      23 UNK        -0.1150 
     13 C13         0.7449  -17.9795  -50.3161 C.ar      23 UNK        -0.0193 
     14 C14         1.3101  -16.7653  -49.9154 C.ar      23 UNK        -0.1150 
     15 C15        -0.2020  -18.7205  -49.3850 C.3       23 UNK        -0.0205 
     16 S16         0.7110  -19.6590  -48.1239 S.3       23 UNK        -0.2404 
     17 C17         1.2836  -21.1286  -49.0635 C.3       23 UNK        -0.0398 
     18 CA          0.8087  -22.4807  -48.4668 C.3       11 UNK         0.1400 
     19 N           1.0358  -22.5324  -47.0219 N.am      11 UNK        -0.5000 
     20 C           0.8144  -23.5717  -46.2087 C.2       10 UNK         0.5000 
     21 O           0.4685  -24.6863  -46.5938 O.2       10 UNK        -0.5000 
     22 CA          0.9503  -23.2914  -44.7005 C.3       10 UNK         0.1400 
     23 CB          2.3838  -23.5669  -44.2249 C.3       10 UNK        -0.1800 
     24 N           0.5803  -21.9197  -44.3440 N.am      10 UNK        -0.5000 
     25 C          -0.6307  -21.3708  -44.5051 C.2       9 UNK         0.5000 
     26 O          -1.5950  -21.9929  -44.9561 O.2       9 UNK        -0.5000 
     27 CA         -0.7677  -19.8795  -44.1266 C.3       9 UNK         0.1400 
     28 CB         -2.2228  -19.3842  -44.1829 C.3       9 UNK        -0.1800 
     29 N          -0.2093  -19.5567  -42.8096 N.am      9 UNK        -0.5000 
     30 C           1.0917  -19.4334  -42.5165 C.2       8 UNK         0.5000 
     31 O           1.9915  -19.6500  -43.3313 O.2       8 UNK        -0.5000 
     32 CA          1.4312  -19.0020  -41.0783 C.3       8 UNK         0.1400 
     33 CB          2.9458  -18.8571  -40.8437 C.3       8 UNK        -0.1800 
     34 N           0.7802  -17.7322  -40.7609 N.am      8 UNK        -0.5000 
     35 C          -0.3995  -17.6040  -40.1415 C.2       7 UNK         0.5000 
     36 O          -1.0858  -18.5598  -39.7777 O.2       7 UNK        -0.5000 
     37 CA         -0.9087  -16.1693  -39.9182 C.3       7 UNK         0.1400 
     38 CB         -0.0423  -15.4247  -38.8898 C.3       7 UNK        -0.1800 
     39 N          -0.9554  -15.4089  -41.1655 N.am      7 UNK        -0.5000 
     40 C          -1.8422  -15.6177  -42.1490 C.2       6 UNK         0.5000 
     41 O          -2.7632  -16.4314  -42.0771 O.2       6 UNK        -0.5000 
     42 CA         -1.6679  -14.7856  -43.4333 C.3       6 UNK         0.1400 
     43 CB         -2.3475  -13.4149  -43.2955 C.3       6 UNK        -0.1800 
     44 N          -0.2614  -14.5971  -43.7845 N.am      6 UNK        -0.5000 
     45 C           0.5451  -15.5693  -44.2307 C.2       5 UNK         0.5000 
     46 O           0.1600  -16.7054  -44.4952 O.2       5 UNK        -0.5000 
     47 CA          2.0346  -15.2201  -44.3973 C.3       5 UNK         0.1400 
     48 CB          2.3207  -14.7125  -45.8192 C.3       5 UNK        -0.1800 
     49 N           2.4910  -14.2272  -43.4223 N.am      5 UNK        -0.5000 
     50 C           2.6631  -14.4728  -42.1160 C.2       4 UNK         0.5000 
     51 O           2.4661  -15.5694  -41.5945 O.2       4 UNK        -0.5000 
     52 CA          3.0853  -13.2806  -41.2380 C.3       4 UNK         0.1400 
     53 CB          4.5959  -13.0279  -41.3536 C.3       4 UNK        -0.1800 
     54 N           2.3591  -12.0544  -41.5711 N.am      4 UNK        -0.5000 
     55 C           1.0435  -11.8807  -41.3820 C.2       3 UNK         0.5000 
     56 O           0.3106  -12.7265  -40.8703 O.2       3 UNK        -0.5000 
     57 CA          0.4356  -10.5623  -41.9008 C.3       3 UNK         0.1400 
     58 CB          0.5420   -9.4635  -40.8331 C.3       3 UNK        -0.1800 
     59 N           1.0331  -10.0836  -43.1533 N.am      3 UNK        -0.5000 
     60 C           1.0626  -10.7793  -44.2972 C.2       2 UNK         0.5000 
     61 O           0.6198  -11.9267  -44.4082 O.2       2 UNK        -0.5000 
     62 CA          1.7276  -10.1048  -45.5057 C.3       2 UNK         0.1400 
     63 CB          3.2500   -9.9843  -45.3112 C.3       2 UNK        -0.1800 
     64 N           1.4474  -10.9308  -46.6708 N.am      2 UNK        -0.5000 
     65 C           1.4183  -10.5531  -47.9516 C.2       1 UNK         0.5000 
     66 O           1.6777   -9.4106  -48.3320 O.2       1 UNK        -0.5000 
     67 C          -0.6564  -22.7952  -48.8389 C.2       11 UNK         0.5000 
     68 O          -0.9037  -23.6684  -49.6712 O.2       11 UNK        -0.5000 
     69 N          -1.5991  -22.1088  -48.1781 N.am      12 UNK        -0.5000 
     70 CA         -3.0369  -22.3024  -48.3523 C.3       12 UNK         0.1400 
     71 CB         -3.7974  -21.1468  -47.6870 C.3       12 UNK        -0.1800 
     72 C          -3.5101  -23.6548  -47.7978 C.2       12 UNK         0.5000 
     73 O          -4.3602  -24.2940  -48.4145 O.2       12 UNK        -0.5000 
     74 N          -2.9343  -24.0819  -46.6646 N.am      13 UNK        -0.5000 
     75 CA         -3.2077  -25.3760  -46.0385 C.3       13 UNK         0.1400 
     76 CB         -2.5358  -25.4387  -44.6593 C.3       13 UNK        -0.1800 
     77 C          -2.7735  -26.5638  -46.9178 C.2       13 UNK         0.5000 
     78 O          -3.5394  -27.5162  -47.0646 O.2       13 UNK        -0.5000 
     79 N          -1.5767  -26.4707  -47.5158 N.am      14 UNK        -0.5000 
     80 CA         -1.0249  -27.4630  -48.4408 C.3       14 UNK         0.1400 
     81 CB          0.4528  -27.1447  -48.7147 C.3       14 UNK        -0.1800 
     82 C          -1.8117  -27.5525  -49.7605 C.2       14 UNK         0.5000 
     83 O          -2.0249  -28.6546  -50.2671 O.2       14 UNK        -0.5000 
     84 N          -2.2497  -26.3971  -50.2788 N.am      15 UNK        -0.5000 
     85 CA         -3.0964  -26.2918  -51.4694 C.3       15 UNK         0.1400 
     86 CB         -3.0189  -24.8540  -51.9986 C.3       15 UNK        -0.1800 
     87 C          -4.5648  -26.6949  -51.2193 C.2       15 UNK         0.5000 
     88 O          -5.2888  -26.9528  -52.1813 O.2       15 UNK        -0.5000 
     89 N          -4.9731  -26.7250  -49.9423 N.am      16 UNK        -0.5000 
     90 CA         -6.3212  -26.9747  -49.4216 C.3       16 UNK         0.1400 
     91 CB         -6.8093  -28.3916  -49.7884 C.3       16 UNK        -0.1800 
     92 C          -7.3379  -25.8702  -49.7879 C.2       16 UNK         0.5000 
     93 O          -8.5450  -26.1178  -49.7671 O.2       16 UNK        -0.5000 
     94 N          -6.8364  -24.6672  -50.0885 N.am      17 UNK        -0.5000 
     95 CA         -7.5803  -23.4644  -50.4421 C.3       17 UNK         0.1400 
     96 CB         -8.2966  -23.6316  -51.7971 C.3       17 UNK        -0.1800 
     97 C          -6.5887  -22.2976  -50.5200 C.2       17 UNK         0.5000 
     98 O          -5.4589  -22.4896  -50.9726 O.2       17 UNK        -0.5000 
     99 N          -7.0331  -21.1027  -50.1117 N.am      18 UNK        -0.5000 
    100 CA        -6.2725  -19.8591  -50.2654 C.3       18 UNK         0.1400 
    101 CB        -6.8161  -18.8060  -49.2887 C.3       18 UNK        -0.1800 
    102 C         -6.3072  -19.3327  -51.7127 C.2       18 UNK         0.5000 
    103 O         -5.3447  -18.7068  -52.1586 O.2       18 UNK        -0.5000 
    104 N         -7.4084  -19.6089  -52.4252 N.am      19 UNK        -0.5000 
    105 CA        -7.5802  -19.3097  -53.8434 C.3       19 UNK         0.1400 
    106 CB        -9.0565  -19.5008  -54.2262 C.3       19 UNK        -0.1800 
    107 C         -6.6656  -20.2090  -54.6923 C.2       19 UNK         0.5000 
    108 O         -6.7879  -21.4335  -54.6208 O.2       19 UNK        -0.5000 
    109 N         -5.7648  -19.5786  -55.4589 N.am      20 UNK        -0.5000 
    110 CA        -4.7547  -20.2013  -56.3234 C.3       20 UNK         0.1400 
    111 CB        -5.4218  -20.9372  -57.5048 C.3       20 UNK        -0.1800 
    112 C         -3.7458  -21.0855  -55.5561 C.2       20 UNK         0.5000 
    113 O         -3.2599  -22.0796  -56.1006 O.2       20 UNK        -0.5000 
    114 N         -3.4198  -20.6920  -54.3136 N.am      21 UNK        -0.5000 
    115 CA        -2.5114  -21.4074  -53.4076 C.3       21 UNK         0.1400 
    116 CB        -2.4783  -20.6946  -52.0477 C.3       21 UNK        -0.1800 
    117 C         -1.0778  -21.5933  -53.9451 C.2       21 UNK         0.5000 
    118 O         -0.3858  -22.5180  -53.5195 O.2       21 UNK        -0.5000 
    119 N         -0.6654  -20.7240  -54.8752 N.am      22 UNK        -0.5000 
    120 CA         0.6142  -20.8044  -55.5953 C.3       22 UNK         0.1400 
    121 C          0.6528  -21.8874  -56.7150 C.2       22 UNK         0.5000 
    122 N         -0.4548  -22.5296  -57.0711 N.am      22 UNK        -0.7600 
    123 O          1.7149  -22.1548  -57.2703 O.2       22 UNK        -0.5000 
    124 C124        1.0707  -19.4246  -56.1469 C.3       23 UNK        -0.0398 
    125 S125        0.8931  -18.0482  -54.9597 S.3       23 UNK        -0.2404 
    126 C126        2.2488  -18.3902  -53.7976 C.3       23 UNK        -0.0205 
    127 H127       -0.5442  -14.9100  -47.2735 H         1 UNK         0.0600 
    128 H128       -2.1313  -14.5871  -47.9783 H         1 UNK         0.0600 
    129 H129       -1.7576  -14.0269  -46.3465 H         1 UNK         0.0600 
    130 H130        0.9472  -13.6568  -48.3710 H         1 UNK         0.3000 
    131 H131        0.3242  -11.1872  -49.6703 H         1 UNK         0.0600 
    132 H132        3.1077  -12.3579  -49.1634 H         1 UNK         0.0800 
    133 H133        2.6716  -11.1695  -50.3591 H         1 UNK         0.0800 
    134 H134        2.7809  -14.6994  -49.2206 H         1 UNK         0.0800 
    135 H135        3.8575  -14.7280  -50.5942 H         1 UNK         0.0800 
    136 H136        3.1676  -16.0738  -52.6713 H         1 UNK         0.1150 
    137 H137        0.6161  -19.4318  -51.8991 H         1 UNK         0.1150 
    138 H138        1.0694  -16.3632  -48.9415 H         1 UNK         0.1150 
    139 H139       -0.8604  -19.3881  -49.9409 H         1 UNK         0.0800 
    140 H140       -0.8524  -18.0018  -48.8842 H         1 UNK         0.0800 
    141 H141        2.3740  -21.1030  -49.0615 H         1 UNK         0.0800 
    142 H142        0.9973  -21.0493  -50.1132 H         1 UNK         0.0800 
    143 H143        1.4183  -23.2702  -48.9114 H         1 UNK         0.0600 
    144 H144        1.3055  -21.6561  -46.5988 H         1 UNK         0.3000 
    145 H145        0.2776  -23.9669  -44.1704 H         1 UNK         0.0600 
    146 H146        2.4718  -23.4413  -43.1455 H         1 UNK         0.0600 
    147 H147        2.6829  -24.5896  -44.4584 H         1 UNK         0.0600 
    148 H148        3.1016  -22.8969  -44.7000 H         1 UNK         0.0600 
    149 H149        1.3173  -21.3176  -43.9876 H         1 UNK         0.3000 
    150 H150       -0.2069  -19.3227  -44.8798 H         1 UNK         0.0600 
    151 H151       -2.6493  -19.5296  -45.1751 H         1 UNK         0.0600 
    152 H152       -2.2804  -18.3175  -43.9684 H         1 UNK         0.0600 
    153 H153       -2.8564  -19.9083  -43.4665 H         1 UNK         0.0600 
    154 H154       -0.8782  -19.3745  -42.0739 H         1 UNK         0.3000 
    155 H155        1.0701  -19.7863  -40.4099 H         1 UNK         0.0600 
    156 H156        3.4598  -19.8042  -41.0125 H         1 UNK         0.0600 
    157 H157        3.1583  -18.5505  -39.8195 H         1 UNK         0.0600 
    158 H158        3.3897  -18.1187  -41.5124 H         1 UNK         0.0600 
    159 H159        1.2766  -16.8959  -41.0619 H         1 UNK         0.3000 
    160 H160       -1.9224  -16.2327  -39.5170 H         1 UNK         0.0600 
    161 H161        0.9781  -15.2796  -39.2457 H         1 UNK         0.0600 
    162 H162        0.0115  -15.9770  -37.9508 H         1 UNK         0.0600 
    163 H163       -0.4579  -14.4421  -38.6659 H         1 UNK         0.0600 
    164 H164       -0.2719  -14.6679  -41.2734 H         1 UNK         0.3000 
    165 H165       -2.1533  -15.3262  -44.2485 H         1 UNK         0.0600 
    166 H166       -2.2405  -12.8251  -44.2061 H         1 UNK         0.0600 
    167 H167       -3.4149  -13.5279  -43.1027 H         1 UNK         0.0600 
    168 H168       -1.9258  -12.8373  -42.4732 H         1 UNK         0.0600 
    169 H169        0.1172  -13.6605  -43.6840 H         1 UNK         0.3000 
    170 H170        2.6059  -16.1385  -44.2435 H         1 UNK         0.0600 
    171 H171        2.0138  -15.4480  -46.5640 H         1 UNK         0.0600 
    172 H172        1.7868  -13.7872  -46.0287 H         1 UNK         0.0600 
    173 H173        3.3849  -14.5268  -45.9654 H         1 UNK         0.0600 
    174 H174        2.6129  -13.2838  -43.7583 H         1 UNK         0.3000 
    175 H175        2.8613  -13.5364  -40.2001 H         1 UNK         0.0600 
    176 H176        4.8816  -12.7365  -42.3652 H         1 UNK         0.0600 
    177 H177        4.9162  -12.2383  -40.6737 H         1 UNK         0.0600 
    178 H178        5.1617  -13.9248  -41.0978 H         1 UNK         0.0600 
    179 H179        2.8871  -11.3086  -41.9993 H         1 UNK         0.3000 
    180 H180       -0.6232  -10.7461  -42.0933 H         1 UNK         0.0600 
    181 H181        1.5805   -9.2047  -40.6229 H         1 UNK         0.0600 
    182 H182        0.0873   -9.7852  -39.8950 H         1 UNK         0.0600 
    183 H183        0.0261   -8.5561  -41.1476 H         1 UNK         0.0600 
    184 H184        1.4239   -9.1526  -43.1364 H         1 UNK         0.3000 
    185 H185        1.2841   -9.1163  -45.6406 H         1 UNK         0.0600 
    186 H186        3.7135  -10.9596  -45.1568 H         1 UNK         0.0600 
    187 H187        3.7233   -9.5248  -46.1790 H         1 UNK         0.0600 
    188 H188        3.4916   -9.3633  -44.4480 H         1 UNK         0.0600 
    189 H189        1.1297  -11.8617  -46.4323 H         1 UNK         0.3000 
    190 H190       -1.3115  -21.4432  -47.4757 H         1 UNK         0.3000 
    191 H191       -3.2541  -22.2839  -49.4218 H         1 UNK         0.0600 
    192 H192       -4.8713  -21.2464  -47.8487 H         1 UNK         0.0600 
    193 H193       -3.4917  -20.1832  -48.0949 H         1 UNK         0.0600 
    194 H194       -3.6337  -21.1263  -46.6098 H         1 UNK         0.0600 
    195 H195       -2.2829  -23.4665  -46.1885 H         1 UNK         0.3000 
    196 H196       -4.2873  -25.4476  -45.8906 H         1 UNK         0.0600 
    197 H197       -2.8185  -26.3505  -44.1319 H         1 UNK         0.0600 
    198 H198       -2.8307  -24.5950  -44.0349 H         1 UNK         0.0600 
    199 H199       -1.4497  -25.4341  -44.7405 H         1 UNK         0.0600 
    200 H200       -0.9788  -25.6769  -47.2992 H         1 UNK         0.3000 
    201 H201       -1.0776  -28.4400  -47.9560 H         1 UNK         0.0600 
    202 H202        1.0385  -27.1760  -47.7958 H         1 UNK         0.0600 
    203 H203        0.5754  -26.1544  -49.1554 H         1 UNK         0.0600 
    204 H204        0.8893  -27.8692  -49.4032 H         1 UNK         0.0600 
    205 H205       -1.9821  -25.5263  -49.8332 H         1 UNK         0.3000 
    206 H206       -2.7009  -26.9585  -52.2385 H         1 UNK         0.0600 
    207 H207       -1.9980  -24.5928  -52.2782 H         1 UNK         0.0600 
    208 H208       -3.6441  -24.7254  -52.8831 H         1 UNK         0.0600 
    209 H209       -3.3529  -24.1343  -51.2508 H         1 UNK         0.0600 
    210 H210       -4.2996  -26.4414  -49.2424 H         1 UNK         0.3000 
    211 H211       -6.2240  -26.9360  -48.3357 H         1 UNK         0.0600 
    212 H212       -7.0163  -28.4872  -50.8544 H         1 UNK         0.0600 
    213 H213       -7.7282  -28.6382  -49.2556 H         1 UNK         0.0600 
    214 H214       -6.0684  -29.1447  -49.5199 H         1 UNK         0.0600 
    215 H215       -5.8328  -24.5294  -50.0147 H         1 UNK         0.3000 
    216 H216       -8.3129  -23.2639  -49.6580 H         1 UNK         0.0600 
    217 H217       -8.7965  -22.7086  -52.0933 H         1 UNK         0.0600 
    218 H218       -9.0586  -24.4095  -51.7597 H         1 UNK         0.0600 
    219 H219       -7.5930  -23.8895  -52.5901 H         1 UNK         0.0600 
    220 H220       -7.9657  -21.0217  -49.7326 H         1 UNK         0.3000 
    221 H221       -5.2282  -20.0474  -50.0105 H         1 UNK         0.0600 
    222 H222       -7.8641  -18.5757  -49.4842 H         1 UNK         0.0600 
    223 H223       -6.7328  -19.1467  -48.2565 H         1 UNK         0.0600 
    224 H224       -6.2544  -17.8743  -49.3684 H         1 UNK         0.0600 
    225 H225       -8.1342  -20.1580  -51.9915 H         1 UNK         0.3000 
    226 H226       -7.3179  -18.2627  -54.0103 H         1 UNK         0.0600 
    227 H227       -9.3898  -20.5252  -54.0541 H         1 UNK         0.0600 
    228 H228       -9.7023  -18.8368  -53.6514 H         1 UNK         0.0600 
    229 H229       -9.2166  -19.2767  -55.2816 H         1 UNK         0.0600 
    230 H230       -5.7375  -18.5687  -55.4250 H         1 UNK         0.3000 
    231 H231       -4.1695  -19.3814  -56.7421 H         1 UNK         0.0600 
    232 H232       -5.9722  -21.8188  -57.1751 H         1 UNK         0.0600 
    233 H233       -4.6775  -21.2702  -58.2292 H         1 UNK         0.0600 
    234 H234       -6.1172  -20.2856  -58.0338 H         1 UNK         0.0600 
    235 H235       -3.8768  -19.8739  -53.9340 H         1 UNK         0.3000 
    236 H236       -2.9308  -22.4021  -53.2589 H         1 UNK         0.0600 
    237 H237       -3.4642  -20.6857  -51.5861 H         1 UNK         0.0600 
    238 H238       -1.8072  -21.2054  -51.3560 H         1 UNK         0.0600 
    239 H239       -2.1386  -19.6626  -52.1416 H         1 UNK         0.0600 
    240 H240       -1.2897  -19.9827  -55.1545 H         1 UNK         0.3000 
    241 H241        1.3652  -21.1246  -54.8718 H         1 UNK         0.0600 
    242 H242       -0.4067  -23.2291  -57.7948 H         1 UNK         0.3800 
    243 H243       -1.3471  -22.3313  -56.6301 H         1 UNK         0.3800 
    244 H244        2.1104  -19.4698  -56.4760 H         1 UNK         0.0800 
    245 H245        0.4859  -19.1631  -57.0305 H         1 UNK         0.0800 
    246 H246        2.4126  -19.4633  -53.7005 H         1 UNK         0.0800 
    247 H247        3.1766  -17.9713  -54.1904 H         1 UNK         0.0800 
@<TRIPOS>BOND
     1    1    2 1    
     2    1  127 1    
     3    1  128 1    
     4    1  129 1    
     5    2    3 2    
     6    2    4 am   BACKBONE|DICT|INTERRES
     7    4    5 1    
     8    4  130 1    
     9    5    6 1    
    10    5   65 1    
    11    5  131 1    
    12    6    7 1    
    13    6  132 1    
    14    6  133 1    
    15    7    8 1    
    16    8    9 1    
    17    8  134 1    
    18    8  135 1    
    19    9   10 ar   
    20    9   14 ar   
    21   10   11 ar   
    22   10  136 1    
    23   11   12 ar   
    24   11  126 1    
    25   12   13 ar   
    26   12  137 1    
    27   13   14 ar   
    28   13   15 1    
    29   14  138 1    
    30   15   16 1    
    31   15  139 1    
    32   15  140 1    
    33   16   17 1    
    34   17   18 1    
    35   17  141 1    
    36   17  142 1    
    37   18   19 1    
    38   18   67 1    
    39   18  143 1    
    40   19   20 am   BACKBONE|DICT|INTERRES
    41   19  144 1    
    42   20   21 2    
    43   20   22 1    
    44   22   23 1    
    45   22   24 1    
    46   22  145 1    
    47   23  146 1    
    48   23  147 1    
    49   23  148 1    
    50   24   25 am   BACKBONE|DICT|INTERRES
    51   24  149 1    
    52   25   26 2    
    53   25   27 1    
    54   27   28 1    
    55   27   29 1    
    56   27  150 1    
    57   28  151 1    
    58   28  152 1    
    59   28  153 1    
    60   29   30 am   BACKBONE|DICT|INTERRES
    61   29  154 1    
    62   30   31 2    
    63   30   32 1    
    64   32   33 1    
    65   32   34 1    
    66   32  155 1    
    67   33  156 1    
    68   33  157 1    
    69   33  158 1    
    70   34   35 am   BACKBONE|DICT|INTERRES
    71   34  159 1    
    72   35   36 2    
    73   35   37 1    
    74   37   38 1    
    75   37   39 1    
    76   37  160 1    
    77   38  161 1    
    78   38  162 1    
    79   38  163 1    
    80   39   40 am   BACKBONE|DICT|INTERRES
    81   39  164 1    
    82   40   41 2    
    83   40   42 1    
    84   42   43 1    
    85   42   44 1    
    86   42  165 1    
    87   43  166 1    
    88   43  167 1    
    89   43  168 1    
    90   44   45 am   BACKBONE|DICT|INTERRES
    91   44  169 1    
    92   45   46 2    
    93   45   47 1    
    94   47   48 1    
    95   47   49 1    
    96   47  170 1    
    97   48  171 1    
    98   48  172 1    
    99   48  173 1    
   100   49   50 am   BACKBONE|DICT|INTERRES
   101   49  174 1    
   102   50   51 2    
   103   50   52 1    
   104   52   53 1    
   105   52   54 1    
   106   52  175 1    
   107   53  176 1    
   108   53  177 1    
   109   53  178 1    
   110   54   55 am   BACKBONE|DICT|INTERRES
   111   54  179 1    
   112   55   56 2    
   113   55   57 1    
   114   57   58 1    
   115   57   59 1    
   116   57  180 1    
   117   58  181 1    
   118   58  182 1    
   119   58  183 1    
   120   59   60 am   BACKBONE|DICT|INTERRES
   121   59  184 1    
   122   60   61 2    
   123   60   62 1    
   124   62   63 1    
   125   62   64 1    
   126   62  185 1    
   127   63  186 1    
   128   63  187 1    
   129   63  188 1    
   130   64   65 am   BACKBONE|DICT|INTERRES
   131   64  189 1    
   132   65   66 2    
   133   67   68 2    
   134   67   69 am   BACKBONE|DICT|INTERRES
   135   69   70 1    
   136   69  190 1    
   137   70   71 1    
   138   70   72 1    
   139   70  191 1    
   140   71  192 1    
   141   71  193 1    
   142   71  194 1    
   143   72   73 2    
   144   72   74 am   BACKBONE|DICT|INTERRES
   145   74   75 1    
   146   74  195 1    
   147   75   76 1    
   148   75   77 1    
   149   75  196 1    
   150   76  197 1    
   151   76  198 1    
   152   76  199 1    
   153   77   78 2    
   154   77   79 am   BACKBONE|DICT|INTERRES
   155   79   80 1    
   156   79  200 1    
   157   80   81 1    
   158   80   82 1    
   159   80  201 1    
   160   81  202 1    
   161   81  203 1    
   162   81  204 1    
   163   82   83 2    
   164   82   84 am   BACKBONE|DICT|INTERRES
   165   84   85 1    
   166   84  205 1    
   167   85   86 1    
   168   85   87 1    
   169   85  206 1    
   170   86  207 1    
   171   86  208 1    
   172   86  209 1    
   173   87   88 2    
   174   87   89 am   BACKBONE|DICT|INTERRES
   175   89   90 1    
   176   89  210 1    
   177   90   91 1    
   178   90   92 1    
   179   90  211 1    
   180   91  212 1    
   181   91  213 1    
   182   91  214 1    
   183   92   93 2    
   184   92   94 am   BACKBONE|DICT|INTERRES
   185   94   95 1    
   186   94  215 1    
   187   95   96 1    
   188   95   97 1    
   189   95  216 1    
   190   96  217 1    
   191   96  218 1    
   192   96  219 1    
   193   97   98 2    
   194   97   99 am   BACKBONE|DICT|INTERRES
   195   99  100 1    
   196   99  220 1    
   197  100  101 1    
   198  100  102 1    
   199  100  221 1    
   200  101  222 1    
   201  101  223 1    
   202  101  224 1    
   203  102  103 2    
   204  102  104 am   BACKBONE|DICT|INTERRES
   205  104  105 1    
   206  104  225 1    
   207  105  106 1    
   208  105  107 1    
   209  105  226 1    
   210  106  227 1    
   211  106  228 1    
   212  106  229 1    
   213  107  108 2    
   214  107  109 am   BACKBONE|DICT|INTERRES
   215  109  110 1    
   216  109  230 1    
   217  110  111 1    
   218  110  112 1    
   219  110  231 1    
   220  111  232 1    
   221  111  233 1    
   222  111  234 1    
   223  112  113 2    
   224  112  114 am   BACKBONE|DICT|INTERRES
   225  114  115 1    
   226  114  235 1    
   227  115  116 1    
   228  115  117 1    
   229  115  236 1    
   230  116  237 1    
   231  116  238 1    
   232  116  239 1    
   233  117  118 2    
   234  117  119 am   BACKBONE|DICT|INTERRES
   235  119  120 1    
   236  119  240 1    
   237  120  121 1    
   238  120  124 1    
   239  120  241 1    
   240  121  122 am   BACKBONE|DICT|INTERRES
   241  121  123 2    
   242  122  242 1    
   243  122  243 1    
   244  124  125 1    
   245  124  244 1    
   246  124  245 1    
   247  125  126 1    
   248  126  246 1    
   249  126  247 1    
@<TRIPOS>SUBSTRUCTURE
     1 UNK         1 GROUP             0       ****    0 ROOT    
