@<TRIPOS>MOLECULE
3R540
247   249    1
SMALL
USER_CHARGES


@<TRIPOS>ATOM
      1 CA         -4.1343  -12.5182  -49.6816 C.3       0 UNK        -0.1800 
      2 C          -3.0540  -12.4332  -48.6138 C.2       0 UNK         0.5000 
      3 O          -2.3852  -11.4066  -48.4993 O.2       0 UNK        -0.5000 
      4 N          -2.8933  -13.4989  -47.8174 N.am      1 UNK        -0.5000 
      5 CA         -1.8672  -13.6405  -46.7722 C.3       1 UNK         0.1400 
      6 C6         -1.8350  -15.0649  -46.1703 C.3       23 UNK        -0.0398 
      7 S7         -1.5678  -16.3546  -47.4329 S.3       23 UNK        -0.2404 
      8 C8          0.2463  -16.4069  -47.4568 C.3       23 UNK        -0.0205 
      9 C9          0.7650  -17.4427  -48.4393 C.ar      23 UNK        -0.0193 
     10 C10         1.0422  -17.0904  -49.7634 C.ar      23 UNK        -0.1150 
     11 C11         1.5659  -18.0345  -50.6527 C.ar      23 UNK        -0.0193 
     12 C12         1.8276  -19.3320  -50.2018 C.ar      23 UNK        -0.1150 
     13 C13         1.5570  -19.6935  -48.8789 C.ar      23 UNK        -0.0193 
     14 C14         1.0060  -18.7499  -48.0117 C.ar      23 UNK        -0.1150 
     15 C15         1.9148  -21.0828  -48.3752 C.3       23 UNK        -0.0205 
     16 S16         0.8688  -22.3685  -49.1146 S.3       23 UNK        -0.2404 
     17 C17        -0.5325  -22.4871  -47.9543 C.3       23 UNK        -0.0398 
     18 CA         -0.3835  -23.7362  -47.0526 C.3       11 UNK         0.1400 
     19 N           0.4979  -23.4867  -45.9053 N.am      11 UNK        -0.5000 
     20 C           1.1040  -24.4442  -45.1895 C.2       10 UNK         0.5000 
     21 O           0.9525  -25.6485  -45.3935 O.2       10 UNK        -0.5000 
     22 CA          1.9936  -23.9702  -44.0291 C.3       10 UNK         0.1400 
     23 CB          3.3317  -23.4237  -44.5517 C.3       10 UNK        -0.1800 
     24 N           1.3154  -22.9466  -43.2338 N.am      10 UNK        -0.5000 
     25 C           0.3856  -23.2195  -42.3058 C.2       9 UNK         0.5000 
     26 O           0.0705  -24.3633  -41.9772 O.2       9 UNK        -0.5000 
     27 CA         -0.3311  -22.0270  -41.6387 C.3       9 UNK         0.1400 
     28 CB          0.3612  -21.6548  -40.3191 C.3       9 UNK        -0.1800 
     29 N          -0.4139  -20.8347  -42.4834 N.am      9 UNK        -0.5000 
     30 C          -1.0636  -20.7629  -43.6532 C.2       8 UNK         0.5000 
     31 O          -1.7027  -21.6944  -44.1364 O.2       8 UNK        -0.5000 
     32 CA         -0.9361  -19.4504  -44.4474 C.3       8 UNK         0.1400 
     33 CB         -2.1115  -18.5191  -44.1191 C.3       8 UNK        -0.1800 
     34 N           0.3214  -18.7268  -44.2330 N.am      8 UNK        -0.5000 
     35 C           1.5623  -19.2172  -44.3789 C.2       7 UNK         0.5000 
     36 O           1.7930  -20.3889  -44.6812 O.2       7 UNK        -0.5000 
     37 CA          2.7388  -18.2422  -44.1717 C.3       7 UNK         0.1400 
     38 CB          3.5809  -18.1200  -45.4521 C.3       7 UNK        -0.1800 
     39 N           2.3179  -16.8994  -43.7649 N.am      7 UNK        -0.5000 
     40 C           1.9634  -16.5272  -42.5295 C.2       6 UNK         0.5000 
     41 O           1.9413  -17.3052  -41.5748 O.2       6 UNK        -0.5000 
     42 CA          1.5615  -15.0446  -42.3438 C.3       6 UNK         0.1400 
     43 CB          1.4889  -14.6341  -40.8621 C.3       6 UNK        -0.1800 
     44 N           2.4544  -14.1158  -43.0453 N.am      6 UNK        -0.5000 
     45 C           2.4365  -13.8570  -44.3582 C.2       5 UNK         0.5000 
     46 O           1.6782  -14.4187  -45.1527 O.2       5 UNK        -0.5000 
     47 CA          3.4965  -12.8725  -44.8795 C.3       5 UNK         0.1400 
     48 CB          4.7213  -13.6408  -45.4001 C.3       5 UNK        -0.1800 
     49 N           2.9562  -12.0523  -45.9608 N.am      5 UNK        -0.5000 
     50 C           2.1186  -11.0238  -45.7830 C.2       4 UNK         0.5000 
     51 O           1.8144  -10.5817  -44.6720 O.2       4 UNK        -0.5000 
     52 CA          1.5456  -10.3615  -47.0494 C.3       4 UNK         0.1400 
     53 CB          1.4679  -11.3039  -48.2691 C.3       4 UNK        -0.1800 
     54 N           0.2151   -9.8368  -46.7573 N.am      4 UNK        -0.5000 
     55 C          -0.2897   -8.6888  -47.2260 C.2       3 UNK         0.5000 
     56 O           0.3384   -7.9278  -47.9646 O.2       3 UNK        -0.5000 
     57 CA         -1.7320   -8.3229  -46.8156 C.3       3 UNK         0.1400 
     58 CB         -2.5494   -7.8197  -48.0187 C.3       3 UNK        -0.1800 
     59 N          -2.4324   -9.4657  -46.2301 N.am      3 UNK        -0.5000 
     60 C          -2.7793   -9.5961  -44.9426 C.2       2 UNK         0.5000 
     61 O          -2.5850   -8.7280  -44.0911 O.2       2 UNK        -0.5000 
     62 CA         -3.4503  -10.9231  -44.5244 C.3       2 UNK         0.1400 
     63 CB         -4.9707  -10.7395  -44.4009 C.3       2 UNK        -0.1800 
     64 N          -3.1830  -12.0346  -45.4414 N.am      2 UNK        -0.5000 
     65 C          -1.9785  -12.5848  -45.6510 C.2       1 UNK         0.5000 
     66 O          -0.9697  -12.2518  -45.0320 O.2       1 UNK        -0.5000 
     67 C          -1.7477  -24.3389  -46.6552 C.2       11 UNK         0.5000 
     68 O          -2.4114  -24.9252  -47.5110 O.2       11 UNK        -0.5000 
     69 N          -2.1270  -24.2612  -45.3723 N.am      12 UNK        -0.5000 
     70 CA         -3.2881  -24.9374  -44.7866 C.3       12 UNK         0.1400 
     71 CB         -3.4144  -24.5439  -43.3079 C.3       12 UNK        -0.1800 
     72 C          -3.2497  -26.4732  -44.9336 C.2       12 UNK         0.5000 
     73 O          -4.3090  -27.0953  -45.0107 O.2       12 UNK        -0.5000 
     74 N          -2.0442  -27.0548  -45.0405 N.am      13 UNK        -0.5000 
     75 CA         -1.8252  -28.4707  -45.3555 C.3       13 UNK         0.1400 
     76 CB         -0.3451  -28.8129  -45.1312 C.3       13 UNK        -0.1800 
     77 C          -2.2555  -28.8508  -46.7894 C.2       13 UNK         0.5000 
     78 O          -2.5554  -30.0179  -47.0411 O.2       13 UNK        -0.5000 
     79 N          -2.3101  -27.8583  -47.6878 N.am      14 UNK        -0.5000 
     80 CA         -2.8303  -27.9540  -49.0516 C.3       14 UNK         0.1400 
     81 CB         -1.8311  -27.2745  -50.0071 C.3       14 UNK        -0.1800 
     82 C          -4.2337  -27.3181  -49.1496 C.2       14 UNK         0.5000 
     83 O          -4.6333  -26.8872  -50.2318 O.2       14 UNK        -0.5000 
     84 N          -4.9443  -27.2208  -48.0131 N.am      15 UNK        -0.5000 
     85 CA         -6.2816  -26.6379  -47.8391 C.3       15 UNK         0.1400 
     86 CB         -7.3408  -27.4995  -48.5576 C.3       15 UNK        -0.1800 
     87 C          -6.3677  -25.1458  -48.2308 C.2       15 UNK         0.5000 
     88 O          -7.4462  -24.6679  -48.5849 O.2       15 UNK        -0.5000 
     89 N          -5.2226  -24.4468  -48.1822 N.am      16 UNK        -0.5000 
     90 CA         -4.9938  -23.0648  -48.6128 C.3       16 UNK         0.1400 
     91 CB         -5.8305  -22.0680  -47.7859 C.3       16 UNK        -0.1800 
     92 C          -5.1349  -22.8463  -50.1348 C.2       16 UNK         0.5000 
     93 O          -5.1488  -21.6968  -50.5751 O.2       16 UNK        -0.5000 
     94 N          -5.1789  -23.9271  -50.9309 N.am      17 UNK        -0.5000 
     95 CA         -5.2570  -23.8633  -52.3929 C.3       17 UNK         0.1400 
     96 CB         -5.5535  -25.2584  -52.9608 C.3       17 UNK        -0.1800 
     97 C          -3.9758  -23.2826  -53.0147 C.2       17 UNK         0.5000 
     98 O          -4.0548  -22.5001  -53.9600 O.2       17 UNK        -0.5000 
     99 N          -2.8209  -23.6254  -52.4293 N.am      18 UNK        -0.5000 
    100 CA        -1.5121  -23.0885  -52.8014 C.3       18 UNK         0.1400 
    101 CB        -0.4199  -23.9237  -52.1190 C.3       18 UNK        -0.1800 
    102 C         -1.3622  -21.5872  -52.4786 C.2       18 UNK         0.5000 
    103 O         -0.7139  -20.8710  -53.2406 O.2       18 UNK        -0.5000 
    104 N         -2.0037  -21.1344  -51.3904 N.am      19 UNK        -0.5000 
    105 CA        -2.0662  -19.7256  -50.9915 C.3       19 UNK         0.1400 
    106 CB        -2.4581  -19.6214  -49.5099 C.3       19 UNK        -0.1800 
    107 C         -3.0247  -18.8991  -51.8712 C.2       19 UNK         0.5000 
    108 O         -2.8348  -17.6910  -52.0064 O.2       19 UNK        -0.5000 
    109 N         -4.0335  -19.5530  -52.4624 N.am      20 UNK        -0.5000 
    110 CA        -4.9159  -18.9560  -53.4621 C.3       20 UNK         0.1400 
    111 CB        -6.2248  -19.7568  -53.5422 C.3       20 UNK        -0.1800 
    112 C         -4.2276  -18.8728  -54.8369 C.2       20 UNK         0.5000 
    113 O         -4.3213  -17.8395  -55.5007 O.2       20 UNK        -0.5000 
    114 N         -3.5323  -19.9514  -55.2293 N.am      21 UNK        -0.5000 
    115 CA        -2.8578  -20.1109  -56.5214 C.3       21 UNK         0.1400 
    116 CB        -2.2617  -21.5237  -56.6138 C.3       21 UNK        -0.1800 
    117 C         -1.7773  -19.0538  -56.8187 C.2       21 UNK         0.5000 
    118 O         -1.6185  -18.6695  -57.9783 O.2       21 UNK        -0.5000 
    119 N         -1.0727  -18.5891  -55.7795 N.am      22 UNK        -0.5000 
    120 CA        -0.1071  -17.4799  -55.8607 C.3       22 UNK         0.1400 
    121 C         -0.7438  -16.0578  -55.9422 C.2       22 UNK         0.5000 
    122 N         -2.0599  -15.8974  -55.8565 N.am      22 UNK        -0.7600 
    123 O         -0.0265  -15.0751  -56.1109 O.2       22 UNK        -0.5000 
    124 C124        0.9878  -17.5807  -54.7664 C.3       23 UNK        -0.0398 
    125 S125        0.3311  -17.5538  -53.0674 S.3       23 UNK        -0.2404 
    126 C126        1.8615  -17.6528  -52.0948 C.3       23 UNK        -0.0205 
    127 H127       -3.6934  -12.3905  -50.6702 H         1 UNK         0.0600 
    128 H128       -4.8723  -11.7302  -49.5316 H         1 UNK         0.0600 
    129 H129       -4.6507  -13.4782  -49.6607 H         1 UNK         0.0600 
    130 H130       -3.4657  -14.3173  -47.9701 H         1 UNK         0.3000 
    131 H131       -0.9043  -13.4682  -47.2553 H         1 UNK         0.0600 
    132 H132       -2.7749  -15.2825  -45.6601 H         1 UNK         0.0800 
    133 H133       -1.0530  -15.1470  -45.4125 H         1 UNK         0.0800 
    134 H134        0.6142  -16.6314  -46.4551 H         1 UNK         0.0800 
    135 H135        0.6378  -15.4211  -47.7127 H         1 UNK         0.0800 
    136 H136        0.8495  -16.0827  -50.1037 H         1 UNK         0.1150 
    137 H137        2.2462  -20.0639  -50.8785 H         1 UNK         0.1150 
    138 H138        0.7887  -19.0259  -46.9939 H         1 UNK         0.1150 
    139 H139        2.9533  -21.2900  -48.6365 H         1 UNK         0.0800 
    140 H140        1.8630  -21.1383  -47.2874 H         1 UNK         0.0800 
    141 H141       -1.4314  -22.5460  -48.5700 H         1 UNK         0.0800 
    142 H142       -0.6271  -21.5759  -47.3621 H         1 UNK         0.0800 
    143 H143        0.0857  -24.5225  -47.6491 H         1 UNK         0.0600 
    144 H144        0.6618  -22.5223  -45.6539 H         1 UNK         0.3000 
    145 H145        2.2104  -24.8316  -43.3936 H         1 UNK         0.0600 
    146 H146        3.9694  -23.0936  -43.7316 H         1 UNK         0.0600 
    147 H147        3.8773  -24.1936  -45.0986 H         1 UNK         0.0600 
    148 H148        3.1939  -22.5801  -45.2285 H         1 UNK         0.0600 
    149 H149        1.4999  -21.9809  -43.4849 H         1 UNK         0.3000 
    150 H150       -1.3512  -22.3451  -41.4132 H         1 UNK         0.0600 
    151 H151        0.4191  -22.5154  -39.6512 H         1 UNK         0.0600 
    152 H152       -0.1864  -20.8730  -39.7925 H         1 UNK         0.0600 
    153 H153        1.3788  -21.2989  -40.4857 H         1 UNK         0.0600 
    154 H154        0.0967  -20.0215  -42.1715 H         1 UNK         0.3000 
    155 H155       -0.9898  -19.7067  -45.5070 H         1 UNK         0.0600 
    156 H156       -2.0959  -18.2040  -43.0750 H         1 UNK         0.0600 
    157 H157       -3.0661  -19.0156  -44.2991 H         1 UNK         0.0600 
    158 H158       -2.0928  -17.6248  -44.7394 H         1 UNK         0.0600 
    159 H159        0.2374  -17.7558  -43.9752 H         1 UNK         0.3000 
    160 H160        3.3703  -18.6668  -43.3888 H         1 UNK         0.0600 
    161 H161        3.0217  -17.6491  -46.2605 H         1 UNK         0.0600 
    162 H162        3.9102  -19.0980  -45.8059 H         1 UNK         0.0600 
    163 H163        4.4756  -17.5225  -45.2764 H         1 UNK         0.0600 
    164 H164        2.2687  -16.1932  -44.4923 H         1 UNK         0.3000 
    165 H165        0.5585  -14.9377  -42.7627 H         1 UNK         0.0600 
    166 H166        1.1645  -13.5987  -40.7554 H         1 UNK         0.0600 
    167 H167        0.7740  -15.2515  -40.3166 H         1 UNK         0.0600 
    168 H168        2.4564  -14.7359  -40.3689 H         1 UNK         0.0600 
    169 H169        3.1432  -13.6517  -42.4708 H         1 UNK         0.3000 
    170 H170        3.8146  -12.2202  -44.0633 H         1 UNK         0.0600 
    171 H171        5.1653  -14.2496  -44.6114 H         1 UNK         0.0600 
    172 H172        4.4593  -14.3097  -46.2213 H         1 UNK         0.0600 
    173 H173        5.4932  -12.9583  -45.7562 H         1 UNK         0.0600 
    174 H174        3.1298  -12.3795  -46.8995 H         1 UNK         0.3000 
    175 H175        2.2187   -9.5367  -47.2911 H         1 UNK         0.0600 
    176 H176        0.9055  -12.2095  -48.0426 H         1 UNK         0.0600 
    177 H177        0.9788  -10.8153  -49.1121 H         1 UNK         0.0600 
    178 H178        2.4604  -11.6010  -48.6089 H         1 UNK         0.0600 
    179 H179       -0.3248  -10.3803  -46.0940 H         1 UNK         0.3000 
    180 H180       -1.6570   -7.5080  -46.0933 H         1 UNK         0.0600 
    181 H181       -3.5656   -7.5591  -47.7225 H         1 UNK         0.0600 
    182 H182       -2.6124   -8.5744  -48.8038 H         1 UNK         0.0600 
    183 H183       -2.1018   -6.9261  -48.4552 H         1 UNK         0.0600 
    184 H184       -2.5930  -10.2405  -46.8668 H         1 UNK         0.3000 
    185 H185       -3.0559  -11.1934  -43.5427 H         1 UNK         0.0600 
    186 H186       -5.4498  -11.6468  -44.0325 H         1 UNK         0.0600 
    187 H187       -5.2124   -9.9390  -43.7003 H         1 UNK         0.0600 
    188 H188       -5.4238  -10.4843  -45.3597 H         1 UNK         0.0600 
    189 H189       -3.9582  -12.3550  -46.0034 H         1 UNK         0.3000 
    190 H190       -1.5949  -23.6628  -44.7512 H         1 UNK         0.3000 
    191 H191       -4.1763  -24.5807  -45.3118 H         1 UNK         0.0600 
    192 H192       -4.2815  -25.0203  -42.8487 H         1 UNK         0.0600 
    193 H193       -3.5402  -23.4672  -43.1942 H         1 UNK         0.0600 
    194 H194       -2.5349  -24.8423  -42.7369 H         1 UNK         0.0600 
    195 H195       -1.2164  -26.4755  -44.9774 H         1 UNK         0.3000 
    196 H196       -2.4229  -29.0667  -44.6628 H         1 UNK         0.0600 
    197 H197        0.3020  -28.2664  -45.8183 H         1 UNK         0.0600 
    198 H198       -0.0328  -28.5744  -44.1143 H         1 UNK         0.0600 
    199 H199       -0.1628  -29.8770  -45.2866 H         1 UNK         0.0600 
    200 H200       -2.0881  -26.9169  -47.3844 H         1 UNK         0.3000 
    201 H201       -2.9295  -28.9995  -49.3491 H         1 UNK         0.0600 
    202 H202       -1.7392  -26.2070  -49.8044 H         1 UNK         0.0600 
    203 H203       -2.1415  -27.3856  -51.0468 H         1 UNK         0.0600 
    204 H204       -0.8392  -27.7175  -49.9185 H         1 UNK         0.0600 
    205 H205       -4.5187  -27.5616  -47.1600 H         1 UNK         0.3000 
    206 H206       -6.4936  -26.6789  -46.7699 H         1 UNK         0.0600 
    207 H207       -7.2652  -28.5456  -48.2608 H         1 UNK         0.0600 
    208 H208       -8.3501  -27.1675  -48.3118 H         1 UNK         0.0600 
    209 H209       -7.2355  -27.4497  -49.6418 H         1 UNK         0.0600 
    210 H210       -4.3796  -24.9388  -47.9038 H         1 UNK         0.3000 
    211 H211       -3.9472  -22.8577  -48.3901 H         1 UNK         0.0600 
    212 H212       -5.5308  -21.0400  -47.9927 H         1 UNK         0.0600 
    213 H213       -5.6968  -22.2337  -46.7169 H         1 UNK         0.0600 
    214 H214       -6.8946  -22.1453  -48.0092 H         1 UNK         0.0600 
    215 H215       -5.1400  -24.8528  -50.5181 H         1 UNK         0.3000 
    216 H216       -6.0865  -23.2045  -52.6586 H         1 UNK         0.0600 
    217 H217       -4.7397  -25.9569  -52.7630 H         1 UNK         0.0600 
    218 H218       -5.6927  -25.2163  -54.0417 H         1 UNK         0.0600 
    219 H219       -6.4642  -25.6750  -52.5301 H         1 UNK         0.0600 
    220 H220       -2.8478  -24.2816  -51.6631 H         1 UNK         0.3000 
    221 H221       -1.3944  -23.2009  -53.8810 H         1 UNK         0.0600 
    222 H222       -0.4050  -24.9416  -52.5088 H         1 UNK         0.0600 
    223 H223       -0.5760  -23.9854  -51.0424 H         1 UNK         0.0600 
    224 H224        0.5693  -23.4958  -52.2881 H         1 UNK         0.0600 
    225 H225       -2.5527  -21.7833  -50.8497 H         1 UNK         0.3000 
    226 H226       -1.0701  -19.2940  -51.0995 H         1 UNK         0.0600 
    227 H227       -3.3987  -20.1279  -49.2965 H         1 UNK         0.0600 
    228 H228       -1.6862  -20.0457  -48.8710 H         1 UNK         0.0600 
    229 H229       -2.5744  -18.5787  -49.2135 H         1 UNK         0.0600 
    230 H230       -4.1768  -20.5303  -52.2444 H         1 UNK         0.3000 
    231 H231       -5.1672  -17.9403  -53.1489 H         1 UNK         0.0600 
    232 H232       -6.0589  -20.7807  -53.8759 H         1 UNK         0.0600 
    233 H233       -6.9204  -19.2937  -54.2430 H         1 UNK         0.0600 
    234 H234       -6.7195  -19.7993  -52.5715 H         1 UNK         0.0600 
    235 H235       -3.5576  -20.7778  -54.6387 H         1 UNK         0.3000 
    236 H236       -3.6224  -20.0166  -57.2949 H         1 UNK         0.0600 
    237 H237       -3.0330  -22.2868  -56.5103 H         1 UNK         0.0600 
    238 H238       -1.7774  -21.6822  -57.5782 H         1 UNK         0.0600 
    239 H239       -1.5134  -21.6930  -55.8393 H         1 UNK         0.0600 
    240 H240       -1.2469  -18.9638  -54.8559 H         1 UNK         0.3000 
    241 H241        0.4193  -17.5919  -56.8105 H         1 UNK         0.0600 
    242 H242       -2.4459  -14.9691  -55.9201 H         1 UNK         0.3800 
    243 H243       -2.6836  -16.6870  -55.7311 H         1 UNK         0.3800 
    244 H244        1.7208  -16.7797  -54.8771 H         1 UNK         0.0800 
    245 H245        1.5415  -18.5113  -54.8983 H         1 UNK         0.0800 
    246 H246        2.3764  -16.6917  -52.1276 H         1 UNK         0.0800 
    247 H247        2.5341  -18.3827  -52.5479 H         1 UNK         0.0800 
@<TRIPOS>BOND
     1    1    2 1    
     2    1  127 1    
     3    1  128 1    
     4    1  129 1    
     5    2    3 2    
     6    2    4 am   BACKBONE|DICT|INTERRES
     7    4    5 1    
     8    4  130 1    
     9    5    6 1    
    10    5   65 1    
    11    5  131 1    
    12    6    7 1    
    13    6  132 1    
    14    6  133 1    
    15    7    8 1    
    16    8    9 1    
    17    8  134 1    
    18    8  135 1    
    19    9   10 ar   
    20    9   14 ar   
    21   10   11 ar   
    22   10  136 1    
    23   11   12 ar   
    24   11  126 1    
    25   12   13 ar   
    26   12  137 1    
    27   13   14 ar   
    28   13   15 1    
    29   14  138 1    
    30   15   16 1    
    31   15  139 1    
    32   15  140 1    
    33   16   17 1    
    34   17   18 1    
    35   17  141 1    
    36   17  142 1    
    37   18   19 1    
    38   18   67 1    
    39   18  143 1    
    40   19   20 am   BACKBONE|DICT|INTERRES
    41   19  144 1    
    42   20   21 2    
    43   20   22 1    
    44   22   23 1    
    45   22   24 1    
    46   22  145 1    
    47   23  146 1    
    48   23  147 1    
    49   23  148 1    
    50   24   25 am   BACKBONE|DICT|INTERRES
    51   24  149 1    
    52   25   26 2    
    53   25   27 1    
    54   27   28 1    
    55   27   29 1    
    56   27  150 1    
    57   28  151 1    
    58   28  152 1    
    59   28  153 1    
    60   29   30 am   BACKBONE|DICT|INTERRES
    61   29  154 1    
    62   30   31 2    
    63   30   32 1    
    64   32   33 1    
    65   32   34 1    
    66   32  155 1    
    67   33  156 1    
    68   33  157 1    
    69   33  158 1    
    70   34   35 am   BACKBONE|DICT|INTERRES
    71   34  159 1    
    72   35   36 2    
    73   35   37 1    
    74   37   38 1    
    75   37   39 1    
    76   37  160 1    
    77   38  161 1    
    78   38  162 1    
    79   38  163 1    
    80   39   40 am   BACKBONE|DICT|INTERRES
    81   39  164 1    
    82   40   41 2    
    83   40   42 1    
    84   42   43 1    
    85   42   44 1    
    86   42  165 1    
    87   43  166 1    
    88   43  167 1    
    89   43  168 1    
    90   44   45 am   BACKBONE|DICT|INTERRES
    91   44  169 1    
    92   45   46 2    
    93   45   47 1    
    94   47   48 1    
    95   47   49 1    
    96   47  170 1    
    97   48  171 1    
    98   48  172 1    
    99   48  173 1    
   100   49   50 am   BACKBONE|DICT|INTERRES
   101   49  174 1    
   102   50   51 2    
   103   50   52 1    
   104   52   53 1    
   105   52   54 1    
   106   52  175 1    
   107   53  176 1    
   108   53  177 1    
   109   53  178 1    
   110   54   55 am   BACKBONE|DICT|INTERRES
   111   54  179 1    
   112   55   56 2    
   113   55   57 1    
   114   57   58 1    
   115   57   59 1    
   116   57  180 1    
   117   58  181 1    
   118   58  182 1    
   119   58  183 1    
   120   59   60 am   BACKBONE|DICT|INTERRES
   121   59  184 1    
   122   60   61 2    
   123   60   62 1    
   124   62   63 1    
   125   62   64 1    
   126   62  185 1    
   127   63  186 1    
   128   63  187 1    
   129   63  188 1    
   130   64   65 am   BACKBONE|DICT|INTERRES
   131   64  189 1    
   132   65   66 2    
   133   67   68 2    
   134   67   69 am   BACKBONE|DICT|INTERRES
   135   69   70 1    
   136   69  190 1    
   137   70   71 1    
   138   70   72 1    
   139   70  191 1    
   140   71  192 1    
   141   71  193 1    
   142   71  194 1    
   143   72   73 2    
   144   72   74 am   BACKBONE|DICT|INTERRES
   145   74   75 1    
   146   74  195 1    
   147   75   76 1    
   148   75   77 1    
   149   75  196 1    
   150   76  197 1    
   151   76  198 1    
   152   76  199 1    
   153   77   78 2    
   154   77   79 am   BACKBONE|DICT|INTERRES
   155   79   80 1    
   156   79  200 1    
   157   80   81 1    
   158   80   82 1    
   159   80  201 1    
   160   81  202 1    
   161   81  203 1    
   162   81  204 1    
   163   82   83 2    
   164   82   84 am   BACKBONE|DICT|INTERRES
   165   84   85 1    
   166   84  205 1    
   167   85   86 1    
   168   85   87 1    
   169   85  206 1    
   170   86  207 1    
   171   86  208 1    
   172   86  209 1    
   173   87   88 2    
   174   87   89 am   BACKBONE|DICT|INTERRES
   175   89   90 1    
   176   89  210 1    
   177   90   91 1    
   178   90   92 1    
   179   90  211 1    
   180   91  212 1    
   181   91  213 1    
   182   91  214 1    
   183   92   93 2    
   184   92   94 am   BACKBONE|DICT|INTERRES
   185   94   95 1    
   186   94  215 1    
   187   95   96 1    
   188   95   97 1    
   189   95  216 1    
   190   96  217 1    
   191   96  218 1    
   192   96  219 1    
   193   97   98 2    
   194   97   99 am   BACKBONE|DICT|INTERRES
   195   99  100 1    
   196   99  220 1    
   197  100  101 1    
   198  100  102 1    
   199  100  221 1    
   200  101  222 1    
   201  101  223 1    
   202  101  224 1    
   203  102  103 2    
   204  102  104 am   BACKBONE|DICT|INTERRES
   205  104  105 1    
   206  104  225 1    
   207  105  106 1    
   208  105  107 1    
   209  105  226 1    
   210  106  227 1    
   211  106  228 1    
   212  106  229 1    
   213  107  108 2    
   214  107  109 am   BACKBONE|DICT|INTERRES
   215  109  110 1    
   216  109  230 1    
   217  110  111 1    
   218  110  112 1    
   219  110  231 1    
   220  111  232 1    
   221  111  233 1    
   222  111  234 1    
   223  112  113 2    
   224  112  114 am   BACKBONE|DICT|INTERRES
   225  114  115 1    
   226  114  235 1    
   227  115  116 1    
   228  115  117 1    
   229  115  236 1    
   230  116  237 1    
   231  116  238 1    
   232  116  239 1    
   233  117  118 2    
   234  117  119 am   BACKBONE|DICT|INTERRES
   235  119  120 1    
   236  119  240 1    
   237  120  121 1    
   238  120  124 1    
   239  120  241 1    
   240  121  122 am   BACKBONE|DICT|INTERRES
   241  121  123 2    
   242  122  242 1    
   243  122  243 1    
   244  124  125 1    
   245  124  244 1    
   246  124  245 1    
   247  125  126 1    
   248  126  246 1    
   249  126  247 1    
@<TRIPOS>SUBSTRUCTURE
     1 UNK         1 GROUP             0       ****    0 ROOT    
