@<TRIPOS>MOLECULE
3R540
247   249    1
SMALL
USER_CHARGES


@<TRIPOS>ATOM
      1 CA         -4.8057  -17.1983  -44.1759 C.3       0 UNK        -0.1800 
      2 C          -4.2575  -16.1796  -45.1654 C.2       0 UNK         0.5000 
      3 O          -4.9590  -15.2316  -45.5190 O.2       0 UNK        -0.5000 
      4 N          -3.0108  -16.3729  -45.6151 N.am      1 UNK        -0.5000 
      5 CA         -2.2851  -15.4401  -46.4799 C.3       1 UNK         0.1400 
      6 C6         -1.0433  -16.1197  -47.1148 C.3       23 UNK        -0.0398 
      7 S7         -0.3368  -15.1447  -48.4915 S.3       23 UNK        -0.2404 
      8 C8         -1.0994  -15.9418  -49.9455 C.3       23 UNK        -0.0205 
      9 C9         -0.1671  -16.8945  -50.6900 C.ar      23 UNK        -0.0193 
     10 C10        -0.2034  -16.9330  -52.0881 C.ar      23 UNK        -0.1150 
     11 C11         0.6118  -17.8165  -52.8013 C.ar      23 UNK        -0.0193 
     12 C12         1.4914  -18.6494  -52.1074 C.ar      23 UNK        -0.1150 
     13 C13         1.5092  -18.6558  -50.7117 C.ar      23 UNK        -0.0193 
     14 C14         0.6861  -17.7704  -50.0081 C.ar      23 UNK        -0.1150 
     15 C15         2.3518  -19.6824  -49.9656 C.3       23 UNK        -0.0205 
     16 S16         1.8517  -21.3990  -50.3564 S.3       23 UNK        -0.2404 
     17 C17         0.0420  -21.3458  -50.0941 C.3       23 UNK        -0.0398 
     18 CA         -0.4690  -22.2431  -48.9470 C.3       11 UNK         0.1400 
     19 N           0.2992  -22.0550  -47.7155 N.am      11 UNK        -0.5000 
     20 C           0.1289  -22.7163  -46.5655 C.2       10 UNK         0.5000 
     21 O          -0.7405  -23.5711  -46.3926 O.2       10 UNK        -0.5000 
     22 CA          1.0543  -22.3228  -45.3979 C.3       10 UNK         0.1400 
     23 CB          2.3603  -21.6324  -45.8510 C.3       10 UNK        -0.1800 
     24 N           0.3840  -21.4878  -44.3965 N.am      10 UNK        -0.5000 
     25 C          -0.3176  -20.3591  -44.5931 C.2       9 UNK         0.5000 
     26 O          -0.6376  -19.9173  -45.6982 O.2       9 UNK        -0.5000 
     27 CA         -0.7190  -19.5746  -43.3283 C.3       9 UNK         0.1400 
     28 CB         -2.1222  -19.9882  -42.8603 C.3       9 UNK        -0.1800 
     29 N           0.2205  -19.7337  -42.2125 N.am      9 UNK        -0.5000 
     30 C           1.5020  -19.3388  -42.2141 C.2       8 UNK         0.5000 
     31 O           2.0322  -18.7290  -43.1457 O.2       8 UNK        -0.5000 
     32 CA          2.3275  -19.7547  -40.9801 C.3       8 UNK         0.1400 
     33 CB          2.5940  -21.2699  -41.0003 C.3       8 UNK        -0.1800 
     34 N           3.6151  -19.0653  -40.9020 N.am      8 UNK        -0.5000 
     35 C           3.7766  -17.7872  -40.5467 C.2       7 UNK         0.5000 
     36 O           2.8510  -17.0357  -40.2275 O.2       7 UNK        -0.5000 
     37 CA          5.2189  -17.2501  -40.5753 C.3       7 UNK         0.1400 
     38 CB          5.5266  -16.6262  -41.9454 C.3       7 UNK        -0.1800 
     39 N           5.4074  -16.2344  -39.5432 N.am      7 UNK        -0.5000 
     40 C           5.5041  -16.4795  -38.2279 C.2       6 UNK         0.5000 
     41 O           5.6355  -17.6054  -37.7463 O.2       6 UNK        -0.5000 
     42 CA          5.3942  -15.2539  -37.2970 C.3       6 UNK         0.1400 
     43 CB          6.7774  -14.6360  -37.0420 C.3       6 UNK        -0.1800 
     44 N           4.5037  -14.2368  -37.8626 N.am      6 UNK        -0.5000 
     45 C           3.1722  -14.3682  -37.9474 C.2       5 UNK         0.5000 
     46 O           2.5326  -15.2453  -37.3656 O.2       5 UNK        -0.5000 
     47 CA          2.4405  -13.4201  -38.9069 C.3       5 UNK         0.1400 
     48 CB          3.2384  -12.1349  -39.2354 C.3       5 UNK        -0.1800 
     49 N           2.1720  -14.2037  -40.1103 N.am      5 UNK        -0.5000 
     50 C           1.4555  -13.8253  -41.1710 C.2       4 UNK         0.5000 
     51 O           0.8676  -12.7446  -41.2597 O.2       4 UNK        -0.5000 
     52 CA          1.3631  -14.8495  -42.3174 C.3       4 UNK         0.1400 
     53 CB          0.1087  -15.7224  -42.1666 C.3       4 UNK        -0.1800 
     54 N           1.3511  -14.1941  -43.6253 N.am      4 UNK        -0.5000 
     55 C           2.4235  -13.6047  -44.1775 C.2       3 UNK         0.5000 
     56 O           3.5359  -13.5965  -43.6478 O.2       3 UNK        -0.5000 
     57 CA          2.2565  -12.9305  -45.5565 C.3       3 UNK         0.1400 
     58 CB          2.8982  -13.7952  -46.6535 C.3       3 UNK        -0.1800 
     59 N           0.8651  -12.6767  -45.9244 N.am      3 UNK        -0.5000 
     60 C           0.0811  -11.7277  -45.3946 C.2       2 UNK         0.5000 
     61 O           0.4793  -10.8816  -44.5940 O.2       2 UNK        -0.5000 
     62 CA         -1.4043  -11.7357  -45.8192 C.3       2 UNK         0.1400 
     63 CB         -1.6732  -10.6338  -46.8556 C.3       2 UNK        -0.1800 
     64 N          -1.8603  -13.0200  -46.3652 N.am      2 UNK        -0.5000 
     65 C          -1.8922  -14.1749  -45.6866 C.2       1 UNK         0.5000 
     66 O          -1.5621  -14.2736  -44.5036 O.2       1 UNK        -0.5000 
     67 C          -1.9807  -21.9945  -48.7642 C.2       11 UNK         0.5000 
     68 O          -2.7756  -22.5903  -49.4897 O.2       11 UNK        -0.5000 
     69 N          -2.3579  -21.1159  -47.8242 N.am      12 UNK        -0.5000 
     70 CA         -3.7541  -20.8227  -47.5024 C.3       12 UNK         0.1400 
     71 CB         -3.8511  -19.4331  -46.8628 C.3       12 UNK        -0.1800 
     72 C          -4.3840  -21.8974  -46.6000 C.2       12 UNK         0.5000 
     73 O          -5.5814  -22.1515  -46.7223 O.2       12 UNK        -0.5000 
     74 N          -3.5711  -22.5452  -45.7517 N.am      13 UNK        -0.5000 
     75 CA         -3.9821  -23.6961  -44.9417 C.3       13 UNK         0.1400 
     76 CB         -2.9947  -23.9016  -43.7830 C.3       13 UNK        -0.1800 
     77 C          -4.1068  -24.9705  -45.7966 C.2       13 UNK         0.5000 
     78 O          -5.0230  -25.7641  -45.5822 O.2       13 UNK        -0.5000 
     79 N          -3.2122  -25.1115  -46.7853 N.am      14 UNK        -0.5000 
     80 CA         -3.2514  -26.1488  -47.8197 C.3       14 UNK         0.1400 
     81 CB         -1.8803  -26.1984  -48.5119 C.3       14 UNK        -0.1800 
     82 C          -4.3680  -25.9326  -48.8652 C.2       14 UNK         0.5000 
     83 O          -4.6588  -26.8506  -49.6318 O.2       14 UNK        -0.5000 
     84 N          -4.9459  -24.7218  -48.8901 N.am      15 UNK        -0.5000 
     85 CA         -5.9875  -24.2168  -49.7926 C.3       15 UNK         0.1400 
     86 CB         -7.2718  -25.0656  -49.7092 C.3       15 UNK        -0.1800 
     87 C          -5.5187  -24.0007  -51.2468 C.2       15 UNK         0.5000 
     88 O          -6.3442  -23.7061  -52.1111 O.2       15 UNK        -0.5000 
     89 N          -4.2048  -24.0783  -51.4925 N.am      16 UNK        -0.5000 
     90 CA         -3.5726  -23.7923  -52.7788 C.3       16 UNK         0.1400 
     91 CB         -2.1019  -24.2327  -52.7396 C.3       16 UNK        -0.1800 
     92 C          -3.6801  -22.3065  -53.1537 C.2       16 UNK         0.5000 
     93 O          -3.9394  -21.9933  -54.3146 O.2       16 UNK        -0.5000 
     94 N          -3.5215  -21.4185  -52.1618 N.am      17 UNK        -0.5000 
     95 CA         -3.6943  -19.9743  -52.3387 C.3       17 UNK         0.1400 
     96 CB         -3.0520  -19.2178  -51.1683 C.3       17 UNK        -0.1800 
     97 C          -5.1693  -19.5722  -52.5155 C.2       17 UNK         0.5000 
     98 O          -5.4525  -18.6254  -53.2484 O.2       17 UNK        -0.5000 
     99 N          -6.0821  -20.3183  -51.8762 N.am      18 UNK        -0.5000 
    100 CA        -7.5308  -20.1445  -52.0050 C.3       18 UNK         0.1400 
    101 CB        -8.2434  -20.9123  -50.8807 C.3       18 UNK        -0.1800 
    102 C         -8.0441  -20.5846  -53.3890 C.2       18 UNK         0.5000 
    103 O         -8.8886  -19.9045  -53.9720 O.2       18 UNK        -0.5000 
    104 N         -7.4946  -21.6936  -53.9029 N.am      19 UNK        -0.5000 
    105 CA        -7.7582  -22.2198  -55.2437 C.3       19 UNK         0.1400 
    106 CB        -7.2977  -23.6858  -55.2897 C.3       19 UNK        -0.1800 
    107 C         -7.0717  -21.4179  -56.3689 C.2       19 UNK         0.5000 
    108 O         -7.4267  -21.6019  -57.5337 O.2       19 UNK        -0.5000 
    109 N         -6.0877  -20.5793  -56.0074 N.am      20 UNK        -0.5000 
    110 CA        -5.1694  -19.8431  -56.8857 C.3       20 UNK         0.1400 
    111 CB        -5.9219  -18.8044  -57.7427 C.3       20 UNK        -0.1800 
    112 C         -4.2694  -20.7865  -57.7154 C.2       20 UNK         0.5000 
    113 O         -3.9133  -20.4771  -58.8535 O.2       20 UNK        -0.5000 
    114 N         -3.9149  -21.9256  -57.1101 N.am      21 UNK        -0.5000 
    115 CA        -3.0598  -22.9741  -57.6625 C.3       21 UNK         0.1400 
    116 CB        -3.6214  -24.3319  -57.2086 C.3       21 UNK        -0.1800 
    117 C         -1.5926  -22.8199  -57.2149 C.2       21 UNK         0.5000 
    118 O         -0.7408  -23.5870  -57.6646 O.2       21 UNK        -0.5000 
    119 N         -1.3231  -21.8503  -56.3309 N.am      22 UNK        -0.5000 
    120 CA        -0.0055  -21.5495  -55.7517 C.3       22 UNK         0.1400 
    121 C          1.0678  -20.9939  -56.7374 C.2       22 UNK         0.5000 
    122 N          0.7172  -20.5986  -57.9551 N.am      22 UNK        -0.7600 
    123 O          2.2436  -20.9287  -56.3895 O.2       22 UNK        -0.5000 
    124 C124       -0.1469  -20.6608  -54.4901 C.3       23 UNK        -0.0398 
    125 S125       -0.8491  -19.0028  -54.8282 S.3       23 UNK        -0.2404 
    126 C126        0.5101  -17.9003  -54.3167 C.3       23 UNK        -0.0205 
    127 H127       -5.1531  -16.6949  -43.2737 H         1 UNK         0.0600 
    128 H128       -4.0501  -17.9265  -43.8850 H         1 UNK         0.0600 
    129 H129       -5.6474  -17.7342  -44.6142 H         1 UNK         0.0600 
    130 H130       -2.4732  -17.1495  -45.2618 H         1 UNK         0.3000 
    131 H131       -2.9637  -15.1471  -47.2844 H         1 UNK         0.0600 
    132 H132       -0.2648  -16.2864  -46.3674 H         1 UNK         0.0800 
    133 H133       -1.3057  -17.1114  -47.4869 H         1 UNK         0.0800 
    134 H134       -1.4231  -15.1459  -50.6179 H         1 UNK         0.0800 
    135 H135       -2.0041  -16.4779  -49.6568 H         1 UNK         0.0800 
    136 H136       -0.8859  -16.2904  -52.6265 H         1 UNK         0.1150 
    137 H137        2.1261  -19.3371  -52.6475 H         1 UNK         0.1150 
    138 H138        0.6919  -17.7830  -48.9278 H         1 UNK         0.1150 
    139 H139        2.2841  -19.5292  -48.8875 H         1 UNK         0.0800 
    140 H140        3.4011  -19.5471  -50.2311 H         1 UNK         0.0800 
    141 H141       -0.4336  -21.6254  -51.0358 H         1 UNK         0.0800 
    142 H142       -0.2660  -20.3204  -49.9009 H         1 UNK         0.0800 
    143 H143       -0.3417  -23.2844  -49.2475 H         1 UNK         0.0600 
    144 H144        1.0267  -21.3571  -47.7564 H         1 UNK         0.3000 
    145 H145        1.3274  -23.2544  -44.9001 H         1 UNK         0.0600 
    146 H146        2.8872  -22.2293  -46.5968 H         1 UNK         0.0600 
    147 H147        3.0392  -21.5013  -45.0081 H         1 UNK         0.0600 
    148 H148        2.1796  -20.6446  -46.2769 H         1 UNK         0.0600 
    149 H149        0.5371  -21.7668  -43.4389 H         1 UNK         0.3000 
    150 H150       -0.7477  -18.5198  -43.6048 H         1 UNK         0.0600 
    151 H151       -2.5063  -19.2928  -42.1137 H         1 UNK         0.0600 
    152 H152       -2.8333  -20.0045  -43.6862 H         1 UNK         0.0600 
    153 H153       -2.1183  -20.9831  -42.4159 H         1 UNK         0.0600 
    154 H154       -0.1342  -20.2193  -41.4011 H         1 UNK         0.3000 
    155 H155        1.7502  -19.5115  -40.0853 H         1 UNK         0.0600 
    156 H156        3.1465  -21.5693  -41.8921 H         1 UNK         0.0600 
    157 H157        1.6636  -21.8385  -40.9845 H         1 UNK         0.0600 
    158 H158        3.1714  -21.5800  -40.1290 H         1 UNK         0.0600 
    159 H159        4.4218  -19.5966  -41.1949 H         1 UNK         0.3000 
    160 H160        5.9145  -18.0724  -40.3946 H         1 UNK         0.0600 
    161 H161        5.4074  -17.3591  -42.7445 H         1 UNK         0.0600 
    162 H162        6.5522  -16.2598  -41.9911 H         1 UNK         0.0600 
    163 H163        4.8613  -15.7904  -42.1676 H         1 UNK         0.0600 
    164 H164        5.2880  -15.2778  -39.8378 H         1 UNK         0.3000 
    165 H165        4.9853  -15.5895  -36.3415 H         1 UNK         0.0600 
    166 H166        7.4554  -15.3684  -36.6019 H         1 UNK         0.0600 
    167 H167        7.2362  -14.2762  -37.9638 H         1 UNK         0.0600 
    168 H168        6.7122  -13.7969  -36.3491 H         1 UNK         0.0600 
    169 H169        4.9433  -13.4690  -38.3492 H         1 UNK         0.3000 
    170 H170        1.4917  -13.1438  -38.4433 H         1 UNK         0.0600 
    171 H171        4.1228  -12.3431  -39.8386 H         1 UNK         0.0600 
    172 H172        3.5609  -11.6274  -38.3251 H         1 UNK         0.0600 
    173 H173        2.6284  -11.4211  -39.7884 H         1 UNK         0.0600 
    174 H174        2.5212  -15.1610  -40.0851 H         1 UNK         0.3000 
    175 H175        2.2369  -15.5030  -42.2859 H         1 UNK         0.0600 
    176 H176        0.1688  -16.3360  -41.2669 H         1 UNK         0.0600 
    177 H177       -0.7971  -15.1197  -42.0934 H         1 UNK         0.0600 
    178 H178       -0.0027  -16.3961  -43.0149 H         1 UNK         0.0600 
    179 H179        0.4471  -14.1148  -44.0767 H         1 UNK         0.3000 
    180 H180        2.7836  -11.9748  -45.5205 H         1 UNK         0.0600 
    181 H181        2.4109  -14.7677  -46.7354 H         1 UNK         0.0600 
    182 H182        3.9537  -13.9738  -46.4444 H         1 UNK         0.0600 
    183 H183        2.8392  -13.3076  -47.6269 H         1 UNK         0.0600 
    184 H184        0.4547  -13.3122  -46.5931 H         1 UNK         0.3000 
    185 H185       -1.9975  -11.5222  -44.9277 H         1 UNK         0.0600 
    186 H186       -1.3746   -9.6564  -46.4741 H         1 UNK         0.0600 
    187 H187       -1.1207  -10.8081  -47.7798 H         1 UNK         0.0600 
    188 H188       -2.7332  -10.5738  -47.1028 H         1 UNK         0.0600 
    189 H189       -2.1233  -13.0198  -47.3405 H         1 UNK         0.3000 
    190 H190       -1.6501  -20.6624  -47.2529 H         1 UNK         0.3000 
    191 H191       -4.3342  -20.8010  -48.4273 H         1 UNK         0.0600 
    192 H192       -4.8878  -19.1781  -46.6399 H         1 UNK         0.0600 
    193 H193       -3.2900  -19.3794  -45.9313 H         1 UNK         0.0600 
    194 H194       -3.4647  -18.6650  -47.5329 H         1 UNK         0.0600 
    195 H195       -2.5842  -22.3290  -45.7611 H         1 UNK         0.3000 
    196 H196       -4.9640  -23.4871  -44.5113 H         1 UNK         0.0600 
    197 H197       -1.9791  -24.0808  -44.1351 H         1 UNK         0.0600 
    198 H198       -3.2845  -24.7585  -43.1736 H         1 UNK         0.0600 
    199 H199       -2.9756  -23.0331  -43.1268 H         1 UNK         0.0600 
    200 H200       -2.4361  -24.4576  -46.8254 H         1 UNK         0.3000 
    201 H201       -3.4306  -27.1117  -47.3372 H         1 UNK         0.0600 
    202 H202       -1.8379  -27.0101  -49.2393 H         1 UNK         0.0600 
    203 H203       -1.0787  -26.3648  -47.7919 H         1 UNK         0.0600 
    204 H204       -1.6665  -25.2715  -49.0437 H         1 UNK         0.0600 
    205 H205       -4.5991  -24.0454  -48.2253 H         1 UNK         0.3000 
    206 H206       -6.2350  -23.2231  -49.4170 H         1 UNK         0.0600 
    207 H207       -7.1352  -26.0552  -50.1453 H         1 UNK         0.0600 
    208 H208       -7.5929  -25.1937  -48.6754 H         1 UNK         0.0600 
    209 H209       -8.0920  -24.5868  -50.2453 H         1 UNK         0.0600 
    210 H210       -3.5890  -24.2136  -50.7020 H         1 UNK         0.3000 
    211 H211       -4.0866  -24.3708  -53.5491 H         1 UNK         0.0600 
    212 H212       -1.6081  -24.0305  -53.6914 H         1 UNK         0.0600 
    213 H213       -2.0180  -25.3030  -52.5509 H         1 UNK         0.0600 
    214 H214       -1.5438  -23.7118  -51.9610 H         1 UNK         0.0600 
    215 H215       -3.3198  -21.7621  -51.2287 H         1 UNK         0.3000 
    216 H216       -3.1740  -19.6772  -53.2500 H         1 UNK         0.0600 
    217 H217       -3.4755  -19.5123  -50.2095 H         1 UNK         0.0600 
    218 H218       -1.9779  -19.3912  -51.1377 H         1 UNK         0.0600 
    219 H219       -3.1964  -18.1420  -51.2748 H         1 UNK         0.0600 
    220 H220       -5.7631  -21.0942  -51.3180 H         1 UNK         0.3000 
    221 H221       -7.7585  -19.0829  -51.8858 H         1 UNK         0.0600 
    222 H222       -8.0790  -21.9872  -50.9532 H         1 UNK         0.0600 
    223 H223       -7.9007  -20.5850  -49.8989 H         1 UNK         0.0600 
    224 H224       -9.3205  -20.7453  -50.9207 H         1 UNK         0.0600 
    225 H225       -6.8710  -22.2452  -53.3214 H         1 UNK         0.3000 
    226 H226       -8.8345  -22.1902  -55.4250 H         1 UNK         0.0600 
    227 H227       -7.8165  -24.2858  -54.5418 H         1 UNK         0.0600 
    228 H228       -7.5017  -24.1330  -56.2634 H         1 UNK         0.0600 
    229 H229       -6.2263  -23.7751  -55.1050 H         1 UNK         0.0600 
    230 H230       -5.8722  -20.5287  -55.0215 H         1 UNK         0.3000 
    231 H231       -4.4981  -19.2950  -56.2228 H         1 UNK         0.0600 
    232 H232       -6.5582  -19.2768  -58.4912 H         1 UNK         0.0600 
    233 H233       -5.2223  -18.1571  -58.2726 H         1 UNK         0.0600 
    234 H234       -6.5496  -18.1641  -57.1229 H         1 UNK         0.0600 
    235 H235       -4.1904  -22.0497  -56.1381 H         1 UNK         0.3000 
    236 H236       -3.0814  -22.9365  -58.7534 H         1 UNK         0.0600 
    237 H237       -3.5976  -24.4335  -56.1229 H         1 UNK         0.0600 
    238 H238       -4.6544  -24.4588  -57.5334 H         1 UNK         0.0600 
    239 H239       -3.0452  -25.1567  -57.6296 H         1 UNK         0.0600 
    240 H240       -2.0864  -21.2705  -56.0144 H         1 UNK         0.3000 
    241 H241        0.3962  -22.5062  -55.4123 H         1 UNK         0.0600 
    242 H242        1.4201  -20.2456  -58.5851 H         1 UNK         0.3800 
    243 H243       -0.2447  -20.6442  -58.2503 H         1 UNK         0.3800 
    244 H244        0.8201  -20.5713  -53.9981 H         1 UNK         0.0800 
    245 H245       -0.7929  -21.1541  -53.7630 H         1 UNK         0.0800 
    246 H246        0.3304  -16.9053  -54.7264 H         1 UNK         0.0800 
    247 H247        1.4501  -18.2442  -54.7516 H         1 UNK         0.0800 
@<TRIPOS>BOND
     1    1    2 1    
     2    1  127 1    
     3    1  128 1    
     4    1  129 1    
     5    2    3 2    
     6    2    4 am   BACKBONE|DICT|INTERRES
     7    4    5 1    
     8    4  130 1    
     9    5    6 1    
    10    5   65 1    
    11    5  131 1    
    12    6    7 1    
    13    6  132 1    
    14    6  133 1    
    15    7    8 1    
    16    8    9 1    
    17    8  134 1    
    18    8  135 1    
    19    9   10 ar   
    20    9   14 ar   
    21   10   11 ar   
    22   10  136 1    
    23   11   12 ar   
    24   11  126 1    
    25   12   13 ar   
    26   12  137 1    
    27   13   14 ar   
    28   13   15 1    
    29   14  138 1    
    30   15   16 1    
    31   15  139 1    
    32   15  140 1    
    33   16   17 1    
    34   17   18 1    
    35   17  141 1    
    36   17  142 1    
    37   18   19 1    
    38   18   67 1    
    39   18  143 1    
    40   19   20 am   BACKBONE|DICT|INTERRES
    41   19  144 1    
    42   20   21 2    
    43   20   22 1    
    44   22   23 1    
    45   22   24 1    
    46   22  145 1    
    47   23  146 1    
    48   23  147 1    
    49   23  148 1    
    50   24   25 am   BACKBONE|DICT|INTERRES
    51   24  149 1    
    52   25   26 2    
    53   25   27 1    
    54   27   28 1    
    55   27   29 1    
    56   27  150 1    
    57   28  151 1    
    58   28  152 1    
    59   28  153 1    
    60   29   30 am   BACKBONE|DICT|INTERRES
    61   29  154 1    
    62   30   31 2    
    63   30   32 1    
    64   32   33 1    
    65   32   34 1    
    66   32  155 1    
    67   33  156 1    
    68   33  157 1    
    69   33  158 1    
    70   34   35 am   BACKBONE|DICT|INTERRES
    71   34  159 1    
    72   35   36 2    
    73   35   37 1    
    74   37   38 1    
    75   37   39 1    
    76   37  160 1    
    77   38  161 1    
    78   38  162 1    
    79   38  163 1    
    80   39   40 am   BACKBONE|DICT|INTERRES
    81   39  164 1    
    82   40   41 2    
    83   40   42 1    
    84   42   43 1    
    85   42   44 1    
    86   42  165 1    
    87   43  166 1    
    88   43  167 1    
    89   43  168 1    
    90   44   45 am   BACKBONE|DICT|INTERRES
    91   44  169 1    
    92   45   46 2    
    93   45   47 1    
    94   47   48 1    
    95   47   49 1    
    96   47  170 1    
    97   48  171 1    
    98   48  172 1    
    99   48  173 1    
   100   49   50 am   BACKBONE|DICT|INTERRES
   101   49  174 1    
   102   50   51 2    
   103   50   52 1    
   104   52   53 1    
   105   52   54 1    
   106   52  175 1    
   107   53  176 1    
   108   53  177 1    
   109   53  178 1    
   110   54   55 am   BACKBONE|DICT|INTERRES
   111   54  179 1    
   112   55   56 2    
   113   55   57 1    
   114   57   58 1    
   115   57   59 1    
   116   57  180 1    
   117   58  181 1    
   118   58  182 1    
   119   58  183 1    
   120   59   60 am   BACKBONE|DICT|INTERRES
   121   59  184 1    
   122   60   61 2    
   123   60   62 1    
   124   62   63 1    
   125   62   64 1    
   126   62  185 1    
   127   63  186 1    
   128   63  187 1    
   129   63  188 1    
   130   64   65 am   BACKBONE|DICT|INTERRES
   131   64  189 1    
   132   65   66 2    
   133   67   68 2    
   134   67   69 am   BACKBONE|DICT|INTERRES
   135   69   70 1    
   136   69  190 1    
   137   70   71 1    
   138   70   72 1    
   139   70  191 1    
   140   71  192 1    
   141   71  193 1    
   142   71  194 1    
   143   72   73 2    
   144   72   74 am   BACKBONE|DICT|INTERRES
   145   74   75 1    
   146   74  195 1    
   147   75   76 1    
   148   75   77 1    
   149   75  196 1    
   150   76  197 1    
   151   76  198 1    
   152   76  199 1    
   153   77   78 2    
   154   77   79 am   BACKBONE|DICT|INTERRES
   155   79   80 1    
   156   79  200 1    
   157   80   81 1    
   158   80   82 1    
   159   80  201 1    
   160   81  202 1    
   161   81  203 1    
   162   81  204 1    
   163   82   83 2    
   164   82   84 am   BACKBONE|DICT|INTERRES
   165   84   85 1    
   166   84  205 1    
   167   85   86 1    
   168   85   87 1    
   169   85  206 1    
   170   86  207 1    
   171   86  208 1    
   172   86  209 1    
   173   87   88 2    
   174   87   89 am   BACKBONE|DICT|INTERRES
   175   89   90 1    
   176   89  210 1    
   177   90   91 1    
   178   90   92 1    
   179   90  211 1    
   180   91  212 1    
   181   91  213 1    
   182   91  214 1    
   183   92   93 2    
   184   92   94 am   BACKBONE|DICT|INTERRES
   185   94   95 1    
   186   94  215 1    
   187   95   96 1    
   188   95   97 1    
   189   95  216 1    
   190   96  217 1    
   191   96  218 1    
   192   96  219 1    
   193   97   98 2    
   194   97   99 am   BACKBONE|DICT|INTERRES
   195   99  100 1    
   196   99  220 1    
   197  100  101 1    
   198  100  102 1    
   199  100  221 1    
   200  101  222 1    
   201  101  223 1    
   202  101  224 1    
   203  102  103 2    
   204  102  104 am   BACKBONE|DICT|INTERRES
   205  104  105 1    
   206  104  225 1    
   207  105  106 1    
   208  105  107 1    
   209  105  226 1    
   210  106  227 1    
   211  106  228 1    
   212  106  229 1    
   213  107  108 2    
   214  107  109 am   BACKBONE|DICT|INTERRES
   215  109  110 1    
   216  109  230 1    
   217  110  111 1    
   218  110  112 1    
   219  110  231 1    
   220  111  232 1    
   221  111  233 1    
   222  111  234 1    
   223  112  113 2    
   224  112  114 am   BACKBONE|DICT|INTERRES
   225  114  115 1    
   226  114  235 1    
   227  115  116 1    
   228  115  117 1    
   229  115  236 1    
   230  116  237 1    
   231  116  238 1    
   232  116  239 1    
   233  117  118 2    
   234  117  119 am   BACKBONE|DICT|INTERRES
   235  119  120 1    
   236  119  240 1    
   237  120  121 1    
   238  120  124 1    
   239  120  241 1    
   240  121  122 am   BACKBONE|DICT|INTERRES
   241  121  123 2    
   242  122  242 1    
   243  122  243 1    
   244  124  125 1    
   245  124  244 1    
   246  124  245 1    
   247  125  126 1    
   248  126  246 1    
   249  126  247 1    
@<TRIPOS>SUBSTRUCTURE
     1 UNK         1 GROUP             0       ****    0 ROOT    
