@<TRIPOS>MOLECULE
3R540
247   249    1
SMALL
USER_CHARGES


@<TRIPOS>ATOM
      1 CA         -3.0726  -15.0122  -45.0826 C.3       0 UNK        -0.1800 
      2 C          -3.2838  -13.7312  -45.8736 C.2       0 UNK         0.5000 
      3 O          -4.1555  -12.9329  -45.5302 O.2       0 UNK        -0.5000 
      4 N          -2.4952  -13.5370  -46.9330 N.am      1 UNK        -0.5000 
      5 CA         -2.5638  -12.4014  -47.8475 C.3       1 UNK         0.1400 
      6 C6         -3.8504  -12.3986  -48.7235 C.3       23 UNK        -0.0398 
      7 S7         -3.9971  -13.8463  -49.8283 S.3       23 UNK        -0.2404 
      8 C8         -5.3313  -14.7976  -49.0406 C.3       23 UNK        -0.0205 
      9 C9         -5.3190  -16.2463  -49.5051 C.ar      23 UNK        -0.0193 
     10 C10        -5.4730  -16.5537  -50.8617 C.ar      23 UNK        -0.1150 
     11 C11        -5.4263  -17.8797  -51.3004 C.ar      23 UNK        -0.0193 
     12 C12        -5.2725  -18.9026  -50.3615 C.ar      23 UNK        -0.1150 
     13 C13        -5.1107  -18.6119  -49.0060 C.ar      23 UNK        -0.0193 
     14 C14        -5.1332  -17.2805  -48.5815 C.ar      23 UNK        -0.1150 
     15 C15        -4.9064  -19.7449  -48.0142 C.3       23 UNK        -0.0205 
     16 S16        -3.3389  -20.6186  -48.3149 S.3       23 UNK        -0.2404 
     17 C17        -3.5105  -21.9694  -47.1123 C.3       23 UNK        -0.0398 
     18 CA         -2.2915  -22.9219  -47.0768 C.3       11 UNK         0.1400 
     19 N          -1.0627  -22.2772  -46.5939 N.am      11 UNK        -0.5000 
     20 C           0.1422  -22.8678  -46.5462 C.2       10 UNK         0.5000 
     21 O           0.3642  -24.0019  -46.9675 O.2       10 UNK        -0.5000 
     22 CA          1.2732  -22.1114  -45.8229 C.3       10 UNK         0.1400 
     23 CB          1.9208  -21.0526  -46.7278 C.3       10 UNK        -0.1800 
     24 N           0.8115  -21.5072  -44.5717 N.am      10 UNK        -0.5000 
     25 C           0.3955  -22.2126  -43.5088 C.2       9 UNK         0.5000 
     26 O           0.4454  -23.4402  -43.4469 O.2       9 UNK        -0.5000 
     27 CA         -0.2332  -21.4280  -42.3438 C.3       9 UNK         0.1400 
     28 CB          0.8267  -21.0290  -41.3062 C.3       9 UNK        -0.1800 
     29 N          -0.9509  -20.2428  -42.8129 N.am      9 UNK        -0.5000 
     30 C          -2.1289  -20.2876  -43.4531 C.2       8 UNK         0.5000 
     31 O          -2.7574  -21.3288  -43.6458 O.2       8 UNK        -0.5000 
     32 CA         -2.6677  -18.9576  -44.0169 C.3       8 UNK         0.1400 
     33 CB         -3.4874  -18.2123  -42.9545 C.3       8 UNK        -0.1800 
     34 N          -1.6006  -18.0871  -44.5174 N.am      8 UNK        -0.5000 
     35 C          -0.8333  -18.3884  -45.5776 C.2       7 UNK         0.5000 
     36 O          -1.0112  -19.3902  -46.2650 O.2       7 UNK        -0.5000 
     37 CA          0.3769  -17.4792  -45.8791 C.3       7 UNK         0.1400 
     38 CB          0.0538  -16.4859  -47.0008 C.3       7 UNK        -0.1800 
     39 N           0.8697  -16.7597  -44.7029 N.am      7 UNK        -0.5000 
     40 C           1.3727  -17.3637  -43.6143 C.2       6 UNK         0.5000 
     41 O           1.5317  -18.5819  -43.5420 O.2       6 UNK        -0.5000 
     42 CA          1.7081  -16.4945  -42.3844 C.3       6 UNK         0.1400 
     43 CB          3.2286  -16.3231  -42.2511 C.3       6 UNK        -0.1800 
     44 N           1.0829  -15.1711  -42.3916 N.am      6 UNK        -0.5000 
     45 C          -0.2339  -14.9143  -42.4043 C.2       5 UNK         0.5000 
     46 O          -1.0995  -15.7876  -42.3441 O.2       5 UNK        -0.5000 
     47 CA         -0.6436  -13.4366  -42.5908 C.3       5 UNK         0.1400 
     48 CB         -0.9490  -12.7889  -41.2326 C.3       5 UNK        -0.1800 
     49 N           0.3701  -12.6361  -43.2914 N.am      5 UNK        -0.5000 
     50 C           0.8107  -12.8782  -44.5341 C.2       4 UNK         0.5000 
     51 O           0.3455  -13.7603  -45.2619 O.2       4 UNK        -0.5000 
     52 CA          2.0265  -12.0642  -45.0011 C.3       4 UNK         0.1400 
     53 CB          3.2696  -12.4720  -44.1774 C.3       4 UNK        -0.1800 
     54 N           2.2283  -12.3393  -46.4206 N.am      4 UNK        -0.5000 
     55 C           3.1815  -11.8479  -47.2204 C.2       3 UNK         0.5000 
     56 O           4.0189  -11.0137  -46.8748 O.2       3 UNK        -0.5000 
     57 CA          3.1760  -12.3695  -48.6658 C.3       3 UNK         0.1400 
     58 CB          3.5230  -13.8667  -48.7234 C.3       3 UNK        -0.1800 
     59 N           1.8777  -12.1494  -49.2941 N.am      3 UNK        -0.5000 
     60 C           1.4424  -10.9745  -49.7595 C.2       2 UNK         0.5000 
     61 O           2.1137   -9.9419  -49.7514 O.2       2 UNK        -0.5000 
     62 CA          0.0160  -10.9442  -50.3366 C.3       2 UNK         0.1400 
     63 CB         -0.1114  -11.8363  -51.5868 C.3       2 UNK        -0.1800 
     64 N          -1.0390  -11.2404  -49.3595 N.am      2 UNK        -0.5000 
     65 C          -1.2813  -12.3832  -48.7012 C.2       1 UNK         0.5000 
     66 O          -0.5716  -13.3931  -48.7687 O.2       1 UNK        -0.5000 
     67 C          -2.6497  -24.1709  -46.2458 C.2       11 UNK         0.5000 
     68 O          -3.0255  -25.1895  -46.8213 O.2       11 UNK        -0.5000 
     69 N          -2.5169  -24.0869  -44.9135 N.am      12 UNK        -0.5000 
     70 CA         -2.7574  -25.2057  -43.9994 C.3       12 UNK         0.1400 
     71 CB         -2.7422  -24.7074  -42.5466 C.3       12 UNK        -0.1800 
     72 C          -1.7597  -26.3628  -44.2003 C.2       12 UNK         0.5000 
     73 O          -2.1731  -27.5224  -44.2053 O.2       12 UNK        -0.5000 
     74 N          -0.4766  -26.0274  -44.3945 N.am      13 UNK        -0.5000 
     75 CA          0.6014  -26.9761  -44.6764 C.3       13 UNK         0.1400 
     76 CB          1.9565  -26.2640  -44.5453 C.3       13 UNK        -0.1800 
     77 C           0.4656  -27.6438  -46.0579 C.2       13 UNK         0.5000 
     78 O           0.6656  -28.8540  -46.1688 O.2       13 UNK        -0.5000 
     79 N           0.1146  -26.8516  -47.0802 N.am      14 UNK        -0.5000 
     80 CA         -0.1168  -27.3122  -48.4517 C.3       14 UNK         0.1400 
     81 CB         -0.0855  -26.1008  -49.3976 C.3       14 UNK        -0.1800 
     82 C          -1.4390  -28.0845  -48.6260 C.2       14 UNK         0.5000 
     83 O          -1.5876  -28.8047  -49.6141 O.2       14 UNK        -0.5000 
     84 N          -2.3831  -27.8902  -47.6948 N.am      15 UNK        -0.5000 
     85 CA         -3.7685  -28.3727  -47.6427 C.3       15 UNK         0.1400 
     86 CB         -3.8505  -29.9097  -47.7036 C.3       15 UNK        -0.1800 
     87 C          -4.6858  -27.7068  -48.6871 C.2       15 UNK         0.5000 
     88 O          -5.7920  -27.2864  -48.3441 O.2       15 UNK        -0.5000 
     89 N          -4.2088  -27.6013  -49.9312 N.am      16 UNK        -0.5000 
     90 CA         -4.8047  -26.8053  -50.9983 C.3       16 UNK         0.1400 
     91 CB         -4.2807  -27.3275  -52.3454 C.3       16 UNK        -0.1800 
     92 C          -4.4570  -25.3141  -50.8316 C.2       16 UNK         0.5000 
     93 O          -3.4393  -24.9771  -50.2225 O.2       16 UNK        -0.5000 
     94 N          -5.2922  -24.4486  -51.4175 N.am      17 UNK        -0.5000 
     95 CA         -5.0621  -23.0091  -51.5253 C.3       17 UNK         0.1400 
     96 CB         -6.3614  -22.3388  -52.0057 C.3       17 UNK        -0.1800 
     97 C          -3.8922  -22.7242  -52.4859 C.2       17 UNK         0.5000 
     98 O          -4.0514  -22.8850  -53.6981 O.2       17 UNK        -0.5000 
     99 N          -2.7410  -22.3421  -51.9273 N.am      18 UNK        -0.5000 
    100 CA        -1.5006  -22.0442  -52.6338 C.3       18 UNK         0.1400 
    101 CB        -0.8735  -23.3421  -53.1833 C.3       18 UNK        -0.1800 
    102 C         -0.5351  -21.3546  -51.6598 C.2       18 UNK         0.5000 
    103 O         -0.7111  -21.4696  -50.4452 O.2       18 UNK        -0.5000 
    104 N          0.4845  -20.6886  -52.2191 N.am      19 UNK        -0.5000 
    105 CA         1.5484  -19.9547  -51.5234 C.3       19 UNK         0.1400 
    106 CB         2.4135  -20.9051  -50.6677 C.3       19 UNK        -0.1800 
    107 C          1.0209  -18.7321  -50.7429 C.2       19 UNK         0.5000 
    108 O          1.4707  -18.4617  -49.6280 O.2       19 UNK        -0.5000 
    109 N          0.0877  -18.0072  -51.3672 N.am      20 UNK        -0.5000 
    110 CA        -0.5069  -16.7725  -50.8685 C.3       20 UNK         0.1400 
    111 CB        -1.8676  -17.1019  -50.2252 C.3       20 UNK        -0.1800 
    112 C         -0.5772  -15.7901  -52.0494 C.2       20 UNK         0.5000 
    113 O          0.4194  -15.6403  -52.7605 O.2       20 UNK        -0.5000 
    114 N         -1.7395  -15.1618  -52.2792 N.am      21 UNK        -0.5000 
    115 CA        -2.0323  -14.4361  -53.5207 C.3       21 UNK         0.1400 
    116 CB        -3.3215  -13.6187  -53.3529 C.3       21 UNK        -0.1800 
    117 C         -2.1495  -15.3944  -54.7235 C.2       21 UNK         0.5000 
    118 O         -1.7348  -15.0488  -55.8303 O.2       21 UNK        -0.5000 
    119 N         -2.6878  -16.5905  -54.4631 N.am      22 UNK        -0.5000 
    120 CA        -2.6717  -17.7532  -55.3544 C.3       22 UNK         0.1400 
    121 C         -1.3215  -18.5212  -55.2622 C.2       22 UNK         0.5000 
    122 N         -0.8657  -19.1143  -56.3568 N.am      22 UNK        -0.7600 
    123 O         -0.7013  -18.6175  -54.2034 O.2       22 UNK        -0.5000 
    124 C124       -3.8825  -18.6837  -55.0776 C.3       23 UNK        -0.0398 
    125 S125       -4.0481  -19.1642  -53.3221 S.3       23 UNK        -0.2404 
    126 C126       -5.5020  -18.2039  -52.7856 C.3       23 UNK        -0.0205 
    127 H127       -3.5473  -14.9435  -44.1037 H         1 UNK         0.0600 
    128 H128       -2.0122  -15.1988  -44.9255 H         1 UNK         0.0600 
    129 H129       -3.5011  -15.8621  -45.6140 H         1 UNK         0.0600 
    130 H130       -1.7505  -14.1845  -47.1607 H         1 UNK         0.3000 
    131 H131       -2.5545  -11.4936  -47.2408 H         1 UNK         0.0600 
    132 H132       -4.7365  -12.3321  -48.0919 H         1 UNK         0.0800 
    133 H133       -3.8805  -11.5027  -49.3450 H         1 UNK         0.0800 
    134 H134       -5.2233  -14.7456  -47.9566 H         1 UNK         0.0800 
    135 H135       -6.2930  -14.3439  -49.2827 H         1 UNK         0.0800 
    136 H136       -5.5996  -15.7529  -51.5765 H         1 UNK         0.1150 
    137 H137       -5.2295  -19.9301  -50.6881 H         1 UNK         0.1150 
    138 H138       -5.0012  -17.0500  -47.5339 H         1 UNK         0.1150 
    139 H139       -4.9158  -19.3695  -46.9899 H         1 UNK         0.0800 
    140 H140       -5.7382  -20.4454  -48.1005 H         1 UNK         0.0800 
    141 H141       -3.6925  -21.5391  -46.1270 H         1 UNK         0.0800 
    142 H142       -4.4145  -22.5207  -47.3800 H         1 UNK         0.0800 
    143 H143       -2.0967  -23.2610  -48.0970 H         1 UNK         0.0600 
    144 H144       -1.1415  -21.3038  -46.3109 H         1 UNK         0.3000 
    145 H145        2.0466  -22.8376  -45.5636 H         1 UNK         0.0600 
    146 H146        2.6286  -20.4334  -46.1765 H         1 UNK         0.0600 
    147 H147        2.4722  -21.5323  -47.5363 H         1 UNK         0.0600 
    148 H148        1.1837  -20.3961  -47.1894 H         1 UNK         0.0600 
    149 H149        0.7627  -20.4978  -44.5330 H         1 UNK         0.3000 
    150 H150       -0.9503  -22.0848  -41.8473 H         1 UNK         0.0600 
    151 H151        1.2981  -21.9146  -40.8782 H         1 UNK         0.0600 
    152 H152        0.3836  -20.4676  -40.4836 H         1 UNK         0.0600 
    153 H153        1.6189  -20.4207  -41.7412 H         1 UNK         0.0600 
    154 H154       -0.4589  -19.3623  -42.7496 H         1 UNK         0.3000 
    155 H155       -3.3295  -19.1954  -44.8524 H         1 UNK         0.0600 
    156 H156       -3.9409  -17.3109  -43.3654 H         1 UNK         0.0600 
    157 H157       -2.8727  -17.9205  -42.1022 H         1 UNK         0.0600 
    158 H158       -4.2969  -18.8382  -42.5768 H         1 UNK         0.0600 
    159 H159       -1.3860  -17.2649  -43.9657 H         1 UNK         0.3000 
    160 H160        1.1861  -18.1215  -46.2315 H         1 UNK         0.0600 
    161 H161       -0.7699  -15.8257  -46.7409 H         1 UNK         0.0600 
    162 H162       -0.2308  -17.0226  -47.9033 H         1 UNK         0.0600 
    163 H163        0.9166  -15.8683  -47.2491 H         1 UNK         0.0600 
    164 H164        0.7588  -15.7522  -44.7102 H         1 UNK         0.3000 
    165 H165        1.3431  -17.0279  -41.5045 H         1 UNK         0.0600 
    166 H166        3.6481  -15.7816  -43.0998 H         1 UNK         0.0600 
    167 H167        3.4875  -15.7791  -41.3426 H         1 UNK         0.0600 
    168 H168        3.7283  -17.2916  -42.2009 H         1 UNK         0.0600 
    169 H169        1.7120  -14.3846  -42.4431 H         1 UNK         0.3000 
    170 H170       -1.5556  -13.4183  -43.1893 H         1 UNK         0.0600 
    171 H171       -1.7187  -13.3476  -40.6983 H         1 UNK         0.0600 
    172 H172       -0.0651  -12.7548  -40.5944 H         1 UNK         0.0600 
    173 H173       -1.3158  -11.7697  -41.3549 H         1 UNK         0.0600 
    174 H174        0.7999  -11.8946  -42.7567 H         1 UNK         0.3000 
    175 H175        1.8140  -11.0019  -44.8691 H         1 UNK         0.0600 
    176 H176        4.1399  -11.8669  -44.4283 H         1 UNK         0.0600 
    177 H177        3.1040  -12.3408  -43.1077 H         1 UNK         0.0600 
    178 H178        3.5331  -13.5173  -44.3437 H         1 UNK         0.0600 
    179 H179        1.5606  -13.0061  -46.7911 H         1 UNK         0.3000 
    180 H180        3.9384  -11.8246  -49.2270 H         1 UNK         0.0600 
    181 H181        3.5974  -14.2120  -49.7547 H         1 UNK         0.0600 
    182 H182        4.4831  -14.0634  -48.2446 H         1 UNK         0.0600 
    183 H183        2.7733  -14.4797  -48.2218 H         1 UNK         0.0600 
    184 H184        1.2054  -12.9105  -49.2617 H         1 UNK         0.3000 
    185 H185       -0.1642   -9.9176  -50.6599 H         1 UNK         0.0600 
    186 H186       -1.0905  -11.7206  -52.0503 H         1 UNK         0.0600 
    187 H187        0.6356  -11.5689  -52.3350 H         1 UNK         0.0600 
    188 H188        0.0256  -12.8921  -51.3550 H         1 UNK         0.0600 
    189 H189       -1.6691  -10.4679  -49.1946 H         1 UNK         0.3000 
    190 H190       -2.2582  -23.1992  -44.4983 H         1 UNK         0.3000 
    191 H191       -3.7574  -25.5917  -44.2086 H         1 UNK         0.0600 
    192 H192       -3.0110  -25.5104  -41.8593 H         1 UNK         0.0600 
    193 H193       -3.4573  -23.8981  -42.3979 H         1 UNK         0.0600 
    194 H194       -1.7582  -24.3446  -42.2524 H         1 UNK         0.0600 
    195 H195       -0.2116  -25.0495  -44.3160 H         1 UNK         0.3000 
    196 H196        0.5602  -27.7640  -43.9215 H         1 UNK         0.0600 
    197 H197        2.7806  -26.9540  -44.7299 H         1 UNK         0.0600 
    198 H198        2.0912  -25.8560  -43.5434 H         1 UNK         0.0600 
    199 H199        2.0501  -25.4416  -45.2552 H         1 UNK         0.0600 
    200 H200        0.0311  -25.8496  -46.9213 H         1 UNK         0.3000 
    201 H201        0.6961  -27.9850  -48.7320 H         1 UNK         0.0600 
    202 H202        0.8720  -25.5823  -49.3453 H         1 UNK         0.0600 
    203 H203       -0.8683  -25.3817  -49.1515 H         1 UNK         0.0600 
    204 H204       -0.2356  -26.4048  -50.4343 H         1 UNK         0.0600 
    205 H205       -2.1758  -27.1851  -46.9978 H         1 UNK         0.3000 
    206 H206       -4.1387  -28.0663  -46.6629 H         1 UNK         0.0600 
    207 H207       -3.2221  -30.3676  -46.9396 H         1 UNK         0.0600 
    208 H208       -4.8727  -30.2481  -47.5308 H         1 UNK         0.0600 
    209 H209       -3.5408  -30.3004  -48.6730 H         1 UNK         0.0600 
    210 H210       -3.2747  -27.9608  -50.0983 H         1 UNK         0.3000 
    211 H211       -5.8900  -26.9234  -50.9706 H         1 UNK         0.0600 
    212 H212       -3.1966  -27.2287  -52.4196 H         1 UNK         0.0600 
    213 H213       -4.7180  -26.7757  -53.1785 H         1 UNK         0.0600 
    214 H214       -4.5316  -28.3791  -52.4853 H         1 UNK         0.0600 
    215 H215       -6.0863  -24.8080  -51.9266 H         1 UNK         0.3000 
    216 H216       -4.8170  -22.6127  -50.5372 H         1 UNK         0.0600 
    217 H217       -6.2106  -21.2786  -52.2066 H         1 UNK         0.0600 
    218 H218       -7.1476  -22.4211  -51.2552 H         1 UNK         0.0600 
    219 H219       -6.7298  -22.7881  -52.9287 H         1 UNK         0.0600 
    220 H220       -2.6675  -22.2343  -50.9218 H         1 UNK         0.3000 
    221 H221       -1.7173  -21.3576  -53.4549 H         1 UNK         0.0600 
    222 H222       -0.6881  -24.0625  -52.3852 H         1 UNK         0.0600 
    223 H223       -1.5178  -23.8200  -53.9208 H         1 UNK         0.0600 
    224 H224        0.0796  -23.1427  -53.6743 H         1 UNK         0.0600 
    225 H225        0.5009  -20.6095  -53.2268 H         1 UNK         0.3000 
    226 H226        2.1930  -19.5495  -52.3047 H         1 UNK         0.0600 
    227 H227        2.7998  -21.7312  -51.2644 H         1 UNK         0.0600 
    228 H228        3.2712  -20.3806  -50.2454 H         1 UNK         0.0600 
    229 H229        1.8489  -21.3276  -49.8370 H         1 UNK         0.0600 
    230 H230       -0.1809  -18.2697  -52.3127 H         1 UNK         0.3000 
    231 H231        0.1417  -16.3131  -50.1204 H         1 UNK         0.0600 
    232 H232       -2.2879  -16.2311  -49.7236 H         1 UNK         0.0600 
    233 H233       -1.7714  -17.8850  -49.4725 H         1 UNK         0.0600 
    234 H234       -2.5877  -17.4571  -50.9621 H         1 UNK         0.0600 
    235 H235       -2.5016  -15.2811  -51.6263 H         1 UNK         0.3000 
    236 H236       -1.2119  -13.7444  -53.7227 H         1 UNK         0.0600 
    237 H237       -4.1726  -14.2525  -53.1015 H         1 UNK         0.0600 
    238 H238       -3.2150  -12.8712  -52.5674 H         1 UNK         0.0600 
    239 H239       -3.5684  -13.0862  -54.2722 H         1 UNK         0.0600 
    240 H240       -2.9576  -16.7947  -53.5128 H         1 UNK         0.3000 
    241 H241       -2.7703  -17.3911  -56.3797 H         1 UNK         0.0600 
    242 H242       -1.3569  -19.0568  -57.2356 H         1 UNK         0.3800 
    243 H243        0.0051  -19.6193  -56.3131 H         1 UNK         0.3800 
    244 H244       -4.7998  -18.1935  -55.4051 H         1 UNK         0.0800 
    245 H245       -3.8131  -19.5930  -55.6772 H         1 UNK         0.0800 
    246 H246       -5.5685  -17.2832  -53.3672 H         1 UNK         0.0800 
    247 H247       -6.4098  -18.7722  -52.9914 H         1 UNK         0.0800 
@<TRIPOS>BOND
     1    1    2 1    
     2    1  127 1    
     3    1  128 1    
     4    1  129 1    
     5    2    3 2    
     6    2    4 am   BACKBONE|DICT|INTERRES
     7    4    5 1    
     8    4  130 1    
     9    5    6 1    
    10    5   65 1    
    11    5  131 1    
    12    6    7 1    
    13    6  132 1    
    14    6  133 1    
    15    7    8 1    
    16    8    9 1    
    17    8  134 1    
    18    8  135 1    
    19    9   10 ar   
    20    9   14 ar   
    21   10   11 ar   
    22   10  136 1    
    23   11   12 ar   
    24   11  126 1    
    25   12   13 ar   
    26   12  137 1    
    27   13   14 ar   
    28   13   15 1    
    29   14  138 1    
    30   15   16 1    
    31   15  139 1    
    32   15  140 1    
    33   16   17 1    
    34   17   18 1    
    35   17  141 1    
    36   17  142 1    
    37   18   19 1    
    38   18   67 1    
    39   18  143 1    
    40   19   20 am   BACKBONE|DICT|INTERRES
    41   19  144 1    
    42   20   21 2    
    43   20   22 1    
    44   22   23 1    
    45   22   24 1    
    46   22  145 1    
    47   23  146 1    
    48   23  147 1    
    49   23  148 1    
    50   24   25 am   BACKBONE|DICT|INTERRES
    51   24  149 1    
    52   25   26 2    
    53   25   27 1    
    54   27   28 1    
    55   27   29 1    
    56   27  150 1    
    57   28  151 1    
    58   28  152 1    
    59   28  153 1    
    60   29   30 am   BACKBONE|DICT|INTERRES
    61   29  154 1    
    62   30   31 2    
    63   30   32 1    
    64   32   33 1    
    65   32   34 1    
    66   32  155 1    
    67   33  156 1    
    68   33  157 1    
    69   33  158 1    
    70   34   35 am   BACKBONE|DICT|INTERRES
    71   34  159 1    
    72   35   36 2    
    73   35   37 1    
    74   37   38 1    
    75   37   39 1    
    76   37  160 1    
    77   38  161 1    
    78   38  162 1    
    79   38  163 1    
    80   39   40 am   BACKBONE|DICT|INTERRES
    81   39  164 1    
    82   40   41 2    
    83   40   42 1    
    84   42   43 1    
    85   42   44 1    
    86   42  165 1    
    87   43  166 1    
    88   43  167 1    
    89   43  168 1    
    90   44   45 am   BACKBONE|DICT|INTERRES
    91   44  169 1    
    92   45   46 2    
    93   45   47 1    
    94   47   48 1    
    95   47   49 1    
    96   47  170 1    
    97   48  171 1    
    98   48  172 1    
    99   48  173 1    
   100   49   50 am   BACKBONE|DICT|INTERRES
   101   49  174 1    
   102   50   51 2    
   103   50   52 1    
   104   52   53 1    
   105   52   54 1    
   106   52  175 1    
   107   53  176 1    
   108   53  177 1    
   109   53  178 1    
   110   54   55 am   BACKBONE|DICT|INTERRES
   111   54  179 1    
   112   55   56 2    
   113   55   57 1    
   114   57   58 1    
   115   57   59 1    
   116   57  180 1    
   117   58  181 1    
   118   58  182 1    
   119   58  183 1    
   120   59   60 am   BACKBONE|DICT|INTERRES
   121   59  184 1    
   122   60   61 2    
   123   60   62 1    
   124   62   63 1    
   125   62   64 1    
   126   62  185 1    
   127   63  186 1    
   128   63  187 1    
   129   63  188 1    
   130   64   65 am   BACKBONE|DICT|INTERRES
   131   64  189 1    
   132   65   66 2    
   133   67   68 2    
   134   67   69 am   BACKBONE|DICT|INTERRES
   135   69   70 1    
   136   69  190 1    
   137   70   71 1    
   138   70   72 1    
   139   70  191 1    
   140   71  192 1    
   141   71  193 1    
   142   71  194 1    
   143   72   73 2    
   144   72   74 am   BACKBONE|DICT|INTERRES
   145   74   75 1    
   146   74  195 1    
   147   75   76 1    
   148   75   77 1    
   149   75  196 1    
   150   76  197 1    
   151   76  198 1    
   152   76  199 1    
   153   77   78 2    
   154   77   79 am   BACKBONE|DICT|INTERRES
   155   79   80 1    
   156   79  200 1    
   157   80   81 1    
   158   80   82 1    
   159   80  201 1    
   160   81  202 1    
   161   81  203 1    
   162   81  204 1    
   163   82   83 2    
   164   82   84 am   BACKBONE|DICT|INTERRES
   165   84   85 1    
   166   84  205 1    
   167   85   86 1    
   168   85   87 1    
   169   85  206 1    
   170   86  207 1    
   171   86  208 1    
   172   86  209 1    
   173   87   88 2    
   174   87   89 am   BACKBONE|DICT|INTERRES
   175   89   90 1    
   176   89  210 1    
   177   90   91 1    
   178   90   92 1    
   179   90  211 1    
   180   91  212 1    
   181   91  213 1    
   182   91  214 1    
   183   92   93 2    
   184   92   94 am   BACKBONE|DICT|INTERRES
   185   94   95 1    
   186   94  215 1    
   187   95   96 1    
   188   95   97 1    
   189   95  216 1    
   190   96  217 1    
   191   96  218 1    
   192   96  219 1    
   193   97   98 2    
   194   97   99 am   BACKBONE|DICT|INTERRES
   195   99  100 1    
   196   99  220 1    
   197  100  101 1    
   198  100  102 1    
   199  100  221 1    
   200  101  222 1    
   201  101  223 1    
   202  101  224 1    
   203  102  103 2    
   204  102  104 am   BACKBONE|DICT|INTERRES
   205  104  105 1    
   206  104  225 1    
   207  105  106 1    
   208  105  107 1    
   209  105  226 1    
   210  106  227 1    
   211  106  228 1    
   212  106  229 1    
   213  107  108 2    
   214  107  109 am   BACKBONE|DICT|INTERRES
   215  109  110 1    
   216  109  230 1    
   217  110  111 1    
   218  110  112 1    
   219  110  231 1    
   220  111  232 1    
   221  111  233 1    
   222  111  234 1    
   223  112  113 2    
   224  112  114 am   BACKBONE|DICT|INTERRES
   225  114  115 1    
   226  114  235 1    
   227  115  116 1    
   228  115  117 1    
   229  115  236 1    
   230  116  237 1    
   231  116  238 1    
   232  116  239 1    
   233  117  118 2    
   234  117  119 am   BACKBONE|DICT|INTERRES
   235  119  120 1    
   236  119  240 1    
   237  120  121 1    
   238  120  124 1    
   239  120  241 1    
   240  121  122 am   BACKBONE|DICT|INTERRES
   241  121  123 2    
   242  122  242 1    
   243  122  243 1    
   244  124  125 1    
   245  124  244 1    
   246  124  245 1    
   247  125  126 1    
   248  126  246 1    
   249  126  247 1    
@<TRIPOS>SUBSTRUCTURE
     1 UNK         1 GROUP             0       ****    0 ROOT    
