@<TRIPOS>MOLECULE
3R540
247   249    1
SMALL
USER_CHARGES


@<TRIPOS>ATOM
      1 CA          5.3025  -19.5021  -48.7335 C.3       0 UNK        -0.1800 
      2 C           4.6530  -18.3241  -48.0216 C.2       0 UNK         0.5000 
      3 O           4.2372  -18.4584  -46.8713 O.2       0 UNK        -0.5000 
      4 N           4.5509  -17.1746  -48.7027 N.am      1 UNK        -0.5000 
      5 CA          4.0230  -15.9229  -48.1484 C.3       1 UNK         0.1400 
      6 C6          3.7585  -14.8661  -49.2555 C.3       23 UNK        -0.0398 
      7 S7          2.2292  -13.9083  -48.9557 S.3       23 UNK        -0.2404 
      8 C8          1.4533  -13.8737  -50.6097 C.3       23 UNK        -0.0205 
      9 C9          0.4902  -15.0342  -50.8263 C.ar      23 UNK        -0.0193 
     10 C10        -0.8930  -14.8286  -50.7647 C.ar      23 UNK        -0.1150 
     11 C11        -1.7787  -15.8965  -50.9431 C.ar      23 UNK        -0.0193 
     12 C12        -1.2732  -17.1779  -51.1703 C.ar      23 UNK        -0.1150 
     13 C13         0.1040  -17.3962  -51.2443 C.ar      23 UNK        -0.0193 
     14 C14         0.9780  -16.3157  -51.0951 C.ar      23 UNK        -0.1150 
     15 C15         0.6420  -18.8074  -51.4435 C.3       23 UNK        -0.0205 
     16 S16         1.8747  -19.2815  -50.1844 S.3       23 UNK        -0.2404 
     17 C17         1.0016  -18.9176  -48.6197 C.3       23 UNK        -0.0398 
     18 CA          0.4825  -20.1828  -47.9067 C.3       11 UNK         0.1400 
     19 N           0.1692  -19.9091  -46.5046 N.am      11 UNK        -0.5000 
     20 C          -0.1954  -20.8315  -45.6044 C.2       10 UNK         0.5000 
     21 O          -0.2535  -22.0392  -45.8355 O.2       10 UNK        -0.5000 
     22 CA         -0.6248  -20.3008  -44.2284 C.3       10 UNK         0.1400 
     23 CB          0.5974  -20.0164  -43.3422 C.3       10 UNK        -0.1800 
     24 N          -1.4586  -19.1023  -44.3466 N.am      10 UNK        -0.5000 
     25 C          -2.7006  -19.1036  -44.8544 C.2       9 UNK         0.5000 
     26 O          -3.2860  -20.1203  -45.2241 O.2       9 UNK        -0.5000 
     27 CA         -3.3903  -17.7395  -45.0197 C.3       9 UNK         0.1400 
     28 CB         -4.0686  -17.3119  -43.7098 C.3       9 UNK        -0.1800 
     29 N          -2.4649  -16.6984  -45.4672 N.am      9 UNK        -0.5000 
     30 C          -1.9263  -16.6549  -46.6957 C.2       8 UNK         0.5000 
     31 O          -2.1579  -17.4885  -47.5697 O.2       8 UNK        -0.5000 
     32 CA         -0.9301  -15.5176  -46.9891 C.3       8 UNK         0.1400 
     33 CB         -1.6761  -14.2603  -47.4561 C.3       8 UNK        -0.1800 
     34 N          -0.1032  -15.1554  -45.8420 N.am      8 UNK        -0.5000 
     35 C           0.6949  -15.9781  -45.1532 C.2       7 UNK         0.5000 
     36 O           0.8741  -17.1625  -45.4409 O.2       7 UNK        -0.5000 
     37 CA          1.3853  -15.3783  -43.9136 C.3       7 UNK         0.1400 
     38 CB          1.4322  -13.8335  -43.9056 C.3       7 UNK        -0.1800 
     39 N           0.8120  -15.8586  -42.6572 N.am      7 UNK        -0.5000 
     40 C          -0.4736  -15.8061  -42.2778 C.2       6 UNK         0.5000 
     41 O          -1.3949  -15.4250  -43.0008 O.2       6 UNK        -0.5000 
     42 CA         -0.7713  -16.2150  -40.8256 C.3       6 UNK         0.1400 
     43 CB         -0.7399  -17.7404  -40.6616 C.3       6 UNK        -0.1800 
     44 N           0.1682  -15.6072  -39.8832 N.am      6 UNK        -0.5000 
     45 C           0.2054  -14.3015  -39.5776 C.2       5 UNK         0.5000 
     46 O          -0.5928  -13.4731  -40.0171 O.2       5 UNK        -0.5000 
     47 CA          1.3134  -13.8395  -38.6105 C.3       5 UNK         0.1400 
     48 CB          0.7659  -13.7316  -37.1788 C.3       5 UNK        -0.1800 
     49 N           2.4809  -14.7239  -38.6069 N.am      5 UNK        -0.5000 
     50 C           3.3807  -14.7996  -39.5962 C.2       4 UNK         0.5000 
     51 O           3.3445  -14.0830  -40.5992 O.2       4 UNK        -0.5000 
     52 CA          4.5187  -15.8329  -39.4286 C.3       4 UNK         0.1400 
     53 CB          4.1526  -17.0158  -38.5026 C.3       4 UNK        -0.1800 
     54 N           5.0196  -16.3304  -40.7135 N.am      4 UNK        -0.5000 
     55 C           4.3222  -16.9775  -41.6564 C.2       3 UNK         0.5000 
     56 O           3.1230  -17.2545  -41.5629 O.2       3 UNK        -0.5000 
     57 CA          5.0991  -17.3397  -42.9378 C.3       3 UNK         0.1400 
     58 CB          4.6110  -18.6686  -43.5384 C.3       3 UNK        -0.1800 
     59 N           4.9635  -16.2883  -43.9440 N.am      3 UNK        -0.5000 
     60 C           5.5004  -15.0613  -43.8729 C.2       2 UNK         0.5000 
     61 O           6.3045  -14.7278  -43.0010 O.2       2 UNK        -0.5000 
     62 CA          5.0380  -14.0242  -44.9241 C.3       2 UNK         0.1400 
     63 CB          6.1576  -13.0402  -45.3250 C.3       2 UNK        -0.1800 
     64 N           4.3841  -14.6085  -46.1064 N.am      2 UNK        -0.5000 
     65 C           4.9585  -15.3717  -47.0463 C.2       1 UNK         0.5000 
     66 O           6.1621  -15.6420  -47.0690 O.2       1 UNK        -0.5000 
     67 C          -0.7196  -20.8046  -48.6472 C.2       11 UNK         0.5000 
     68 O          -0.5642  -21.8473  -49.2817 O.2       11 UNK        -0.5000 
     69 N          -1.9016  -20.1844  -48.5150 N.am      12 UNK        -0.5000 
     70 CA         -3.1580  -20.6703  -49.0827 C.3       12 UNK         0.1400 
     71 CB         -4.2665  -19.6353  -48.8515 C.3       12 UNK        -0.1800 
     72 C          -3.5685  -22.0474  -48.5334 C.2       12 UNK         0.5000 
     73 O          -3.9604  -22.9109  -49.3165 O.2       12 UNK        -0.5000 
     74 N          -3.4403  -22.2488  -47.2136 N.am      13 UNK        -0.5000 
     75 CA         -3.7002  -23.5257  -46.5456 C.3       13 UNK         0.1400 
     76 CB         -3.5761  -23.3603  -45.0238 C.3       13 UNK        -0.1800 
     77 C          -2.7886  -24.6570  -47.0531 C.2       13 UNK         0.5000 
     78 O          -3.2907  -25.7338  -47.3806 O.2       13 UNK        -0.5000 
     79 N          -1.4807  -24.3733  -47.1517 N.am      14 UNK        -0.5000 
     80 CA         -0.4668  -25.2786  -47.6962 C.3       14 UNK         0.1400 
     81 CB          0.9292  -24.6707  -47.4935 C.3       14 UNK        -0.1800 
     82 C          -0.7045  -25.6200  -49.1786 C.2       14 UNK         0.5000 
     83 O          -0.5498  -26.7779  -49.5696 O.2       14 UNK        -0.5000 
     84 N          -1.1337  -24.6259  -49.9660 N.am      15 UNK        -0.5000 
     85 CA         -1.5393  -24.7479  -51.3666 C.3       15 UNK         0.1400 
     86 CB         -1.4147  -23.3697  -52.0336 C.3       15 UNK        -0.1800 
     87 C          -2.9499  -25.3597  -51.5240 C.2       15 UNK         0.5000 
     88 O          -3.8085  -24.7797  -52.1923 O.2       15 UNK        -0.5000 
     89 N          -3.1506  -26.5302  -50.9013 N.am      16 UNK        -0.5000 
     90 CA         -4.3238  -27.4070  -50.9661 C.3       16 UNK         0.1400 
     91 CB         -4.3252  -28.1738  -52.3037 C.3       16 UNK        -0.1800 
     92 C          -5.6634  -26.6981  -50.6726 C.2       16 UNK         0.5000 
     93 O          -6.6484  -26.9302  -51.3757 O.2       16 UNK        -0.5000 
     94 N          -5.6655  -25.8509  -49.6325 N.am      17 UNK        -0.5000 
     95 CA         -6.7906  -25.0310  -49.1716 C.3       17 UNK         0.1400 
     96 CB         -7.9214  -25.9141  -48.6032 C.3       17 UNK        -0.1800 
     97 C          -7.2729  -24.0359  -50.2486 C.2       17 UNK         0.5000 
     98 O          -8.4323  -24.0718  -50.6656 O.2       17 UNK        -0.5000 
     99 N          -6.3498  -23.1575  -50.6578 N.am      18 UNK        -0.5000 
    100 CA        -6.5120  -22.0473  -51.5972 C.3       18 UNK         0.1400 
    101 CB        -7.5282  -21.0174  -51.0592 C.3       18 UNK        -0.1800 
    102 C         -6.8177  -22.5026  -53.0376 C.2       18 UNK         0.5000 
    103 O         -7.6110  -21.8612  -53.7304 O.2       18 UNK        -0.5000 
    104 N         -6.1707  -23.5895  -53.4824 N.am      19 UNK        -0.5000 
    105 CA        -6.2486  -24.0945  -54.8530 C.3       19 UNK         0.1400 
    106 CB        -5.7520  -25.5482  -54.8909 C.3       19 UNK        -0.1800 
    107 C         -5.4262  -23.1797  -55.7769 C.2       19 UNK         0.5000 
    108 O         -4.2032  -23.3103  -55.8371 O.2       19 UNK        -0.5000 
    109 N         -6.1040  -22.1981  -56.3886 N.am      20 UNK        -0.5000 
    110 CA        -5.5860  -21.0708  -57.1826 C.3       20 UNK         0.1400 
    111 CB        -4.7512  -21.5523  -58.3849 C.3       20 UNK        -0.1800 
    112 C         -4.8263  -20.0065  -56.3591 C.2       20 UNK         0.5000 
    113 O         -4.7804  -18.8460  -56.7694 O.2       20 UNK        -0.5000 
    114 N         -4.2793  -20.3960  -55.2021 N.am      21 UNK        -0.5000 
    115 CA        -3.6138  -19.5566  -54.2101 C.3       21 UNK         0.1400 
    116 CB        -2.7912  -20.4723  -53.2911 C.3       21 UNK        -0.1800 
    117 C         -4.6259  -18.6964  -53.4277 C.2       21 UNK         0.5000 
    118 O         -4.9112  -18.9764  -52.2631 O.2       21 UNK        -0.5000 
    119 N         -5.1627  -17.6789  -54.1087 N.am      22 UNK        -0.5000 
    120 CA        -6.1382  -16.6889  -53.6155 C.3       22 UNK         0.1400 
    121 C         -7.5947  -17.2243  -53.4623 C.2       22 UNK         0.5000 
    122 N         -7.9118  -18.4354  -53.9029 N.am      22 UNK        -0.7600 
    123 O         -8.4662  -16.5154  -52.9661 O.2       22 UNK        -0.5000 
    124 C124       -5.6717  -15.9047  -52.3535 C.3       23 UNK        -0.0398 
    125 S125       -3.9737  -15.2367  -52.4922 S.3       23 UNK        -0.2404 
    126 C126       -3.2828  -15.6880  -50.8702 C.3       23 UNK        -0.0205 
    127 H127        5.5587  -19.2607  -49.7653 H         1 UNK         0.0600 
    128 H128        4.6219  -20.3536  -48.7438 H         1 UNK         0.0600 
    129 H129        6.2139  -19.7979  -48.2140 H         1 UNK         0.0600 
    130 H130        4.9370  -17.1198  -49.6337 H         1 UNK         0.3000 
    131 H131        3.0719  -16.1828  -47.6770 H         1 UNK         0.0600 
    132 H132        4.5933  -14.1707  -49.3643 H         1 UNK         0.0800 
    133 H133        3.6762  -15.3506  -50.2269 H         1 UNK         0.0800 
    134 H134        0.9204  -12.9275  -50.7147 H         1 UNK         0.0800 
    135 H135        2.2176  -13.8708  -51.3881 H         1 UNK         0.0800 
    136 H136       -1.2829  -13.8389  -50.5727 H         1 UNK         0.1150 
    137 H137       -1.9594  -18.0053  -51.2767 H         1 UNK         0.1150 
    138 H138        2.0412  -16.4885  -51.1576 H         1 UNK         0.1150 
    139 H139       -0.1671  -19.5385  -51.4239 H         1 UNK         0.0800 
    140 H140        1.0983  -18.8771  -52.4315 H         1 UNK         0.0800 
    141 H141        0.1962  -18.1995  -48.7694 H         1 UNK         0.0800 
    142 H142        1.7156  -18.4062  -47.9745 H         1 UNK         0.0800 
    143 H143        1.2854  -20.9235  -47.9045 H         1 UNK         0.0600 
    144 H144        0.2287  -18.9417  -46.2039 H         1 UNK         0.3000 
    145 H145       -1.2144  -21.0830  -43.7454 H         1 UNK         0.0600 
    146 H146        0.3002  -19.8765  -42.3050 H         1 UNK         0.0600 
    147 H147        1.2984  -20.8521  -43.3594 H         1 UNK         0.0600 
    148 H148        1.1408  -19.1275  -43.6625 H         1 UNK         0.0600 
    149 H149       -1.0219  -18.2173  -44.1348 H         1 UNK         0.3000 
    150 H150       -4.1670  -17.8484  -45.7797 H         1 UNK         0.0600 
    151 H151       -4.8281  -18.0363  -43.4131 H         1 UNK         0.0600 
    152 H152       -4.5639  -16.3469  -43.8174 H         1 UNK         0.0600 
    153 H153       -3.3560  -17.2342  -42.8887 H         1 UNK         0.0600 
    154 H154       -2.1796  -16.0124  -44.7749 H         1 UNK         0.3000 
    155 H155       -0.2699  -15.8518  -47.7923 H         1 UNK         0.0600 
    156 H156       -2.2576  -13.8130  -46.6490 H         1 UNK         0.0600 
    157 H157       -0.9819  -13.5075  -47.8305 H         1 UNK         0.0600 
    158 H158       -2.3700  -14.4921  -48.2612 H         1 UNK         0.0600 
    159 H159       -0.2101  -14.2109  -45.5021 H         1 UNK         0.3000 
    160 H160        2.4084  -15.7424  -43.9390 H         1 UNK         0.0600 
    161 H161        0.4453  -13.3913  -43.7642 H         1 UNK         0.0600 
    162 H162        1.8427  -13.4370  -44.8346 H         1 UNK         0.0600 
    163 H163        2.0653  -13.4734  -43.0943 H         1 UNK         0.0600 
    164 H164        1.4889  -16.2571  -42.0124 H         1 UNK         0.3000 
    165 H165       -1.7781  -15.8684  -40.5827 H         1 UNK         0.0600 
    166 H166       -1.0833  -18.0349  -39.6698 H         1 UNK         0.0600 
    167 H167       -1.3904  -18.2290  -41.3882 H         1 UNK         0.0600 
    168 H168        0.2683  -18.1339  -40.7945 H         1 UNK         0.0600 
    169 H169        0.8706  -16.2120  -39.4847 H         1 UNK         0.3000 
    170 H170        1.6339  -12.8449  -38.9283 H         1 UNK         0.0600 
    171 H171        0.4381  -14.6999  -36.7984 H         1 UNK         0.0600 
    172 H172        1.5201  -13.3393  -36.4963 H         1 UNK         0.0600 
    173 H173       -0.0898  -13.0562  -37.1377 H         1 UNK         0.0600 
    174 H174        2.5849  -15.3320  -37.8075 H         1 UNK         0.3000 
    175 H175        5.3488  -15.2953  -38.9686 H         1 UNK         0.0600 
    176 H176        4.9628  -17.7440  -38.4616 H         1 UNK         0.0600 
    177 H177        3.2573  -17.5380  -38.8423 H         1 UNK         0.0600 
    178 H178        3.9777  -16.6838  -37.4788 H         1 UNK         0.0600 
    179 H179        5.9668  -16.0585  -40.9407 H         1 UNK         0.3000 
    180 H180        6.1555  -17.4533  -42.6857 H         1 UNK         0.0600 
    181 H181        5.2453  -18.9794  -44.3685 H         1 UNK         0.0600 
    182 H182        3.5880  -18.5947  -43.9103 H         1 UNK         0.0600 
    183 H183        4.6347  -19.4672  -42.7959 H         1 UNK         0.0600 
    184 H184        4.3547  -16.5002  -44.7202 H         1 UNK         0.3000 
    185 H185        4.2710  -13.4336  -44.4233 H         1 UNK         0.0600 
    186 H186        6.5013  -12.4684  -44.4622 H         1 UNK         0.0600 
    187 H187        7.0260  -13.5542  -45.7372 H         1 UNK         0.0600 
    188 H188        5.8065  -12.3233  -46.0672 H         1 UNK         0.0600 
    189 H189        3.4034  -14.3920  -46.2111 H         1 UNK         0.3000 
    190 H190       -1.9492  -19.3024  -48.0103 H         1 UNK         0.3000 
    191 H191       -3.0154  -20.7728  -50.1601 H         1 UNK         0.0600 
    192 H192       -4.0152  -18.6826  -49.3165 H         1 UNK         0.0600 
    193 H193       -5.2071  -19.9675  -49.2897 H         1 UNK         0.0600 
    194 H194       -4.4386  -19.4565  -47.7898 H         1 UNK         0.0600 
    195 H195       -3.1579  -21.4752  -46.6187 H         1 UNK         0.3000 
    196 H196       -4.7308  -23.8080  -46.7658 H         1 UNK         0.0600 
    197 H197       -3.7662  -24.3040  -44.5110 H         1 UNK         0.0600 
    198 H198       -4.2981  -22.6359  -44.6469 H         1 UNK         0.0600 
    199 H199       -2.5813  -23.0229  -44.7332 H         1 UNK         0.0600 
    200 H200       -1.1513  -23.4641  -46.8384 H         1 UNK         0.3000 
    201 H201       -0.5172  -26.2109  -47.1301 H         1 UNK         0.0600 
    202 H202        1.1364  -24.5051  -46.4362 H         1 UNK         0.0600 
    203 H203        1.0303  -23.7137  -48.0066 H         1 UNK         0.0600 
    204 H204        1.7049  -25.3342  -47.8777 H         1 UNK         0.0600 
    205 H205       -1.2024  -23.6939  -49.5675 H         1 UNK         0.3000 
    206 H206       -0.8446  -25.4210  -51.8728 H         1 UNK         0.0600 
    207 H207       -0.3927  -22.9944  -51.9799 H         1 UNK         0.0600 
    208 H208       -1.6923  -23.4124  -53.0876 H         1 UNK         0.0600 
    209 H209       -2.0618  -22.6423  -51.5447 H         1 UNK         0.0600 
    210 H210       -2.3717  -26.8841  -50.3548 H         1 UNK         0.3000 
    211 H211       -4.1971  -28.1415  -50.1696 H         1 UNK         0.0600 
    212 H212       -4.4389  -27.5010  -53.1522 H         1 UNK         0.0600 
    213 H213       -5.1402  -28.8974  -52.3444 H         1 UNK         0.0600 
    214 H214       -3.3963  -28.7275  -52.4401 H         1 UNK         0.0600 
    215 H215       -4.7928  -25.7161  -49.1357 H         1 UNK         0.3000 
    216 H216       -6.4107  -24.4267  -48.3474 H         1 UNK         0.0600 
    217 H217       -8.7114  -25.3003  -48.1690 H         1 UNK         0.0600 
    218 H218       -7.5503  -26.5698  -47.8156 H         1 UNK         0.0600 
    219 H219       -8.3799  -26.5381  -49.3707 H         1 UNK         0.0600 
    220 H220       -5.4173  -23.2331  -50.2507 H         1 UNK         0.3000 
    221 H221       -5.5402  -21.5549  -51.6356 H         1 UNK         0.0600 
    222 H222       -8.5510  -21.3916  -51.1099 H         1 UNK         0.0600 
    223 H223       -7.3202  -20.7553  -50.0225 H         1 UNK         0.0600 
    224 H224       -7.4881  -20.0952  -51.6388 H         1 UNK         0.0600 
    225 H225       -5.4826  -24.0362  -52.8805 H         1 UNK         0.3000 
    226 H226       -7.2913  -24.0890  -55.1775 H         1 UNK         0.0600 
    227 H227       -6.3344  -26.1803  -54.2201 H         1 UNK         0.0600 
    228 H228       -5.8431  -25.9640  -55.8948 H         1 UNK         0.0600 
    229 H229       -4.7044  -25.6255  -54.5989 H         1 UNK         0.0600 
    230 H230       -7.0941  -22.1420  -56.1872 H         1 UNK         0.3000 
    231 H231       -6.4687  -20.5689  -57.5817 H         1 UNK         0.0600 
    232 H232       -3.8110  -22.0091  -58.0755 H         1 UNK         0.0600 
    233 H233       -4.5023  -20.7176  -59.0412 H         1 UNK         0.0600 
    234 H234       -5.3003  -22.2813  -58.9807 H         1 UNK         0.0600 
    235 H235       -4.3218  -21.3850  -54.9925 H         1 UNK         0.3000 
    236 H236       -2.9237  -18.8815  -54.7205 H         1 UNK         0.0600 
    237 H237       -2.0161  -20.9955  -53.8512 H         1 UNK         0.0600 
    238 H238       -2.2957  -19.9047  -52.5054 H         1 UNK         0.0600 
    239 H239       -3.4212  -21.2207  -52.8100 H         1 UNK         0.0600 
    240 H240       -4.9184  -17.5978  -55.0892 H         1 UNK         0.3000 
    241 H241       -6.2089  -15.9591  -54.4225 H         1 UNK         0.0600 
    242 H242       -7.2087  -19.0421  -54.2905 H         1 UNK         0.3800 
    243 H243       -8.8584  -18.7664  -53.8057 H         1 UNK         0.3800 
    244 H244       -6.3383  -15.0609  -52.1684 H         1 UNK         0.0800 
    245 H245       -5.7539  -16.5432  -51.4733 H         1 UNK         0.0800 
    246 H246       -3.5317  -14.9046  -50.1552 H         1 UNK         0.0800 
    247 H247       -3.7480  -16.6012  -50.4978 H         1 UNK         0.0800 
@<TRIPOS>BOND
     1    1    2 1    
     2    1  127 1    
     3    1  128 1    
     4    1  129 1    
     5    2    3 2    
     6    2    4 am   BACKBONE|DICT|INTERRES
     7    4    5 1    
     8    4  130 1    
     9    5    6 1    
    10    5   65 1    
    11    5  131 1    
    12    6    7 1    
    13    6  132 1    
    14    6  133 1    
    15    7    8 1    
    16    8    9 1    
    17    8  134 1    
    18    8  135 1    
    19    9   10 ar   
    20    9   14 ar   
    21   10   11 ar   
    22   10  136 1    
    23   11   12 ar   
    24   11  126 1    
    25   12   13 ar   
    26   12  137 1    
    27   13   14 ar   
    28   13   15 1    
    29   14  138 1    
    30   15   16 1    
    31   15  139 1    
    32   15  140 1    
    33   16   17 1    
    34   17   18 1    
    35   17  141 1    
    36   17  142 1    
    37   18   19 1    
    38   18   67 1    
    39   18  143 1    
    40   19   20 am   BACKBONE|DICT|INTERRES
    41   19  144 1    
    42   20   21 2    
    43   20   22 1    
    44   22   23 1    
    45   22   24 1    
    46   22  145 1    
    47   23  146 1    
    48   23  147 1    
    49   23  148 1    
    50   24   25 am   BACKBONE|DICT|INTERRES
    51   24  149 1    
    52   25   26 2    
    53   25   27 1    
    54   27   28 1    
    55   27   29 1    
    56   27  150 1    
    57   28  151 1    
    58   28  152 1    
    59   28  153 1    
    60   29   30 am   BACKBONE|DICT|INTERRES
    61   29  154 1    
    62   30   31 2    
    63   30   32 1    
    64   32   33 1    
    65   32   34 1    
    66   32  155 1    
    67   33  156 1    
    68   33  157 1    
    69   33  158 1    
    70   34   35 am   BACKBONE|DICT|INTERRES
    71   34  159 1    
    72   35   36 2    
    73   35   37 1    
    74   37   38 1    
    75   37   39 1    
    76   37  160 1    
    77   38  161 1    
    78   38  162 1    
    79   38  163 1    
    80   39   40 am   BACKBONE|DICT|INTERRES
    81   39  164 1    
    82   40   41 2    
    83   40   42 1    
    84   42   43 1    
    85   42   44 1    
    86   42  165 1    
    87   43  166 1    
    88   43  167 1    
    89   43  168 1    
    90   44   45 am   BACKBONE|DICT|INTERRES
    91   44  169 1    
    92   45   46 2    
    93   45   47 1    
    94   47   48 1    
    95   47   49 1    
    96   47  170 1    
    97   48  171 1    
    98   48  172 1    
    99   48  173 1    
   100   49   50 am   BACKBONE|DICT|INTERRES
   101   49  174 1    
   102   50   51 2    
   103   50   52 1    
   104   52   53 1    
   105   52   54 1    
   106   52  175 1    
   107   53  176 1    
   108   53  177 1    
   109   53  178 1    
   110   54   55 am   BACKBONE|DICT|INTERRES
   111   54  179 1    
   112   55   56 2    
   113   55   57 1    
   114   57   58 1    
   115   57   59 1    
   116   57  180 1    
   117   58  181 1    
   118   58  182 1    
   119   58  183 1    
   120   59   60 am   BACKBONE|DICT|INTERRES
   121   59  184 1    
   122   60   61 2    
   123   60   62 1    
   124   62   63 1    
   125   62   64 1    
   126   62  185 1    
   127   63  186 1    
   128   63  187 1    
   129   63  188 1    
   130   64   65 am   BACKBONE|DICT|INTERRES
   131   64  189 1    
   132   65   66 2    
   133   67   68 2    
   134   67   69 am   BACKBONE|DICT|INTERRES
   135   69   70 1    
   136   69  190 1    
   137   70   71 1    
   138   70   72 1    
   139   70  191 1    
   140   71  192 1    
   141   71  193 1    
   142   71  194 1    
   143   72   73 2    
   144   72   74 am   BACKBONE|DICT|INTERRES
   145   74   75 1    
   146   74  195 1    
   147   75   76 1    
   148   75   77 1    
   149   75  196 1    
   150   76  197 1    
   151   76  198 1    
   152   76  199 1    
   153   77   78 2    
   154   77   79 am   BACKBONE|DICT|INTERRES
   155   79   80 1    
   156   79  200 1    
   157   80   81 1    
   158   80   82 1    
   159   80  201 1    
   160   81  202 1    
   161   81  203 1    
   162   81  204 1    
   163   82   83 2    
   164   82   84 am   BACKBONE|DICT|INTERRES
   165   84   85 1    
   166   84  205 1    
   167   85   86 1    
   168   85   87 1    
   169   85  206 1    
   170   86  207 1    
   171   86  208 1    
   172   86  209 1    
   173   87   88 2    
   174   87   89 am   BACKBONE|DICT|INTERRES
   175   89   90 1    
   176   89  210 1    
   177   90   91 1    
   178   90   92 1    
   179   90  211 1    
   180   91  212 1    
   181   91  213 1    
   182   91  214 1    
   183   92   93 2    
   184   92   94 am   BACKBONE|DICT|INTERRES
   185   94   95 1    
   186   94  215 1    
   187   95   96 1    
   188   95   97 1    
   189   95  216 1    
   190   96  217 1    
   191   96  218 1    
   192   96  219 1    
   193   97   98 2    
   194   97   99 am   BACKBONE|DICT|INTERRES
   195   99  100 1    
   196   99  220 1    
   197  100  101 1    
   198  100  102 1    
   199  100  221 1    
   200  101  222 1    
   201  101  223 1    
   202  101  224 1    
   203  102  103 2    
   204  102  104 am   BACKBONE|DICT|INTERRES
   205  104  105 1    
   206  104  225 1    
   207  105  106 1    
   208  105  107 1    
   209  105  226 1    
   210  106  227 1    
   211  106  228 1    
   212  106  229 1    
   213  107  108 2    
   214  107  109 am   BACKBONE|DICT|INTERRES
   215  109  110 1    
   216  109  230 1    
   217  110  111 1    
   218  110  112 1    
   219  110  231 1    
   220  111  232 1    
   221  111  233 1    
   222  111  234 1    
   223  112  113 2    
   224  112  114 am   BACKBONE|DICT|INTERRES
   225  114  115 1    
   226  114  235 1    
   227  115  116 1    
   228  115  117 1    
   229  115  236 1    
   230  116  237 1    
   231  116  238 1    
   232  116  239 1    
   233  117  118 2    
   234  117  119 am   BACKBONE|DICT|INTERRES
   235  119  120 1    
   236  119  240 1    
   237  120  121 1    
   238  120  124 1    
   239  120  241 1    
   240  121  122 am   BACKBONE|DICT|INTERRES
   241  121  123 2    
   242  122  242 1    
   243  122  243 1    
   244  124  125 1    
   245  124  244 1    
   246  124  245 1    
   247  125  126 1    
   248  126  246 1    
   249  126  247 1    
@<TRIPOS>SUBSTRUCTURE
     1 UNK         1 GROUP             0       ****    0 ROOT    
