@<TRIPOS>MOLECULE
3R540
247   249    1
SMALL
USER_CHARGES


@<TRIPOS>ATOM
      1 CA         -4.3791  -16.2461  -53.0343 C.3       0 UNK        -0.1800 
      2 C          -3.7494  -15.0715  -52.2977 C.2       0 UNK         0.5000 
      3 O          -4.3037  -13.9721  -52.3094 O.2       0 UNK        -0.5000 
      4 N          -2.5924  -15.2996  -51.6664 N.am      1 UNK        -0.5000 
      5 CA         -1.8747  -14.3320  -50.8312 C.3       1 UNK         0.1400 
      6 C6         -0.4052  -14.7869  -50.6400 C.3       23 UNK        -0.0398 
      7 S7          0.7678  -13.4198  -50.3357 S.3       23 UNK        -0.2404 
      8 C8          1.8386  -14.1131  -49.0213 C.3       23 UNK        -0.0205 
      9 C9          2.3366  -15.5314  -49.2957 C.ar      23 UNK        -0.0193 
     10 C10         2.7706  -15.9058  -50.5711 C.ar      23 UNK        -0.1150 
     11 C11         3.1678  -17.2180  -50.8326 C.ar      23 UNK        -0.0193 
     12 C12         3.1886  -18.1525  -49.7942 C.ar      23 UNK        -0.1150 
     13 C13         2.7840  -17.7885  -48.5079 C.ar      23 UNK        -0.0193 
     14 C14         2.3514  -16.4796  -48.2661 C.ar      23 UNK        -0.1150 
     15 C15         2.8302  -18.8046  -47.3775 C.3       23 UNK        -0.0205 
     16 S16         1.2431  -19.6664  -47.1623 S.3       23 UNK        -0.2404 
     17 C17         1.2664  -20.9353  -48.4758 C.3       23 UNK        -0.0398 
     18 CA          0.5936  -22.2751  -48.0683 C.3       11 UNK         0.1400 
     19 N           1.1639  -22.8122  -46.8315 N.am      11 UNK        -0.5000 
     20 C           1.1603  -24.1018  -46.4751 C.2       10 UNK         0.5000 
     21 O           0.7992  -25.0105  -47.2254 O.2       10 UNK        -0.5000 
     22 CA          1.6088  -24.4229  -45.0324 C.3       10 UNK         0.1400 
     23 CB          2.1663  -25.8531  -44.8727 C.3       10 UNK        -0.1800 
     24 N           2.5237  -23.4273  -44.4625 N.am      10 UNK        -0.5000 
     25 C           3.7823  -23.1551  -44.8374 C.2       9 UNK         0.5000 
     26 O           4.3706  -23.7347  -45.7506 O.2       9 UNK        -0.5000 
     27 CA          4.5130  -22.0388  -44.0640 C.3       9 UNK         0.1400 
     28 CB          4.4208  -20.7102  -44.8259 C.3       9 UNK        -0.1800 
     29 N           4.0140  -21.8374  -42.7018 N.am      9 UNK        -0.5000 
     30 C           4.2149  -22.6864  -41.6836 C.2       8 UNK         0.5000 
     31 O           4.8358  -23.7450  -41.7857 O.2       8 UNK        -0.5000 
     32 CA          3.6163  -22.2870  -40.3248 C.3       8 UNK         0.1400 
     33 CB          4.5178  -21.2683  -39.6093 C.3       8 UNK        -0.1800 
     34 N           2.2759  -21.7247  -40.4822 N.am      8 UNK        -0.5000 
     35 C           1.1488  -22.4504  -40.5014 C.2       7 UNK         0.5000 
     36 O           1.1169  -23.6689  -40.3271 O.2       7 UNK        -0.5000 
     37 CA         -0.1682  -21.6935  -40.7698 C.3       7 UNK         0.1400 
     38 CB         -0.8316  -21.2788  -39.4479 C.3       7 UNK        -0.1800 
     39 N           0.0097  -20.5066  -41.6074 N.am      7 UNK        -0.5000 
     40 C           0.3635  -20.5396  -42.8987 C.2       6 UNK         0.5000 
     41 O           0.5335  -21.5783  -43.5346 O.2       6 UNK        -0.5000 
     42 CA          0.6288  -19.1885  -43.5805 C.3       6 UNK         0.1400 
     43 CB         -0.6161  -18.6822  -44.3137 C.3       6 UNK        -0.1800 
     44 N           1.1176  -18.1436  -42.6830 N.am      6 UNK        -0.5000 
     45 C           2.2952  -18.1743  -42.0450 C.2       5 UNK         0.5000 
     46 O           3.0168  -19.1734  -42.0095 O.2       5 UNK        -0.5000 
     47 CA          2.7233  -16.8749  -41.3284 C.3       5 UNK         0.1400 
     48 CB          4.2562  -16.7375  -41.2262 C.3       5 UNK        -0.1800 
     49 N           2.1223  -15.6639  -41.9099 N.am      5 UNK        -0.5000 
     50 C           2.2728  -15.1960  -43.1591 C.2       4 UNK         0.5000 
     51 O           2.9837  -15.7237  -44.0160 O.2       4 UNK        -0.5000 
     52 CA          1.4374  -13.9523  -43.5188 C.3       4 UNK         0.1400 
     53 CB          2.1661  -13.0395  -44.5205 C.3       4 UNK        -0.1800 
     54 N           0.1470  -14.3285  -44.0922 N.am      4 UNK        -0.5000 
     55 C          -0.8822  -14.8947  -43.4532 C.2       3 UNK         0.5000 
     56 O          -0.8518  -15.1719  -42.2531 O.2       3 UNK        -0.5000 
     57 CA         -2.1499  -15.2075  -44.2891 C.3       3 UNK         0.1400 
     58 CB         -3.3715  -15.5175  -43.4051 C.3       3 UNK        -0.1800 
     59 N          -2.5259  -14.1698  -45.2579 N.am      3 UNK        -0.5000 
     60 C          -1.8889  -13.9040  -46.4045 C.2       2 UNK         0.5000 
     61 O          -0.8121  -14.4178  -46.7125 O.2       2 UNK        -0.5000 
     62 CA         -2.5300  -12.8588  -47.3370 C.3       2 UNK         0.1400 
     63 CB         -2.0877  -11.4435  -46.9351 C.3       2 UNK        -0.1800 
     64 N          -2.1435  -13.0938  -48.7289 N.am      2 UNK        -0.5000 
     65 C          -2.5932  -14.1079  -49.4784 C.2       1 UNK         0.5000 
     66 O          -3.5110  -14.8532  -49.1259 O.2       1 UNK        -0.5000 
     67 C          -0.9404  -22.1415  -47.9262 C.2       11 UNK         0.5000 
     68 O          -1.4548  -22.0176  -46.8107 O.2       11 UNK        -0.5000 
     69 N          -1.6527  -22.1180  -49.0606 N.am      12 UNK        -0.5000 
     70 CA         -3.1102  -21.9383  -49.1209 C.3       12 UNK         0.1400 
     71 CB         -3.6461  -22.4809  -50.4538 C.3       12 UNK        -0.1800 
     72 C          -3.5683  -20.4869  -48.8651 C.2       12 UNK         0.5000 
     73 O          -4.7714  -20.2203  -48.8383 O.2       12 UNK        -0.5000 
     74 N          -2.6118  -19.5763  -48.6391 N.am      13 UNK        -0.5000 
     75 CA         -2.8039  -18.1835  -48.2326 C.3       13 UNK         0.1400 
     76 CB         -1.4303  -17.5114  -48.1555 C.3       13 UNK        -0.1800 
     77 C          -3.5405  -18.0234  -46.8861 C.2       13 UNK         0.5000 
     78 O          -4.1250  -16.9710  -46.6393 O.2       13 UNK        -0.5000 
     79 N          -3.5347  -19.0773  -46.0540 N.am      14 UNK        -0.5000 
     80 CA         -4.3099  -19.1723  -44.8148 C.3       14 UNK         0.1400 
     81 CB         -3.9309  -20.4670  -44.0778 C.3       14 UNK        -0.1800 
     82 C          -5.8316  -19.1181  -45.0588 C.2       14 UNK         0.5000 
     83 O          -6.5553  -18.5313  -44.2539 O.2       14 UNK        -0.5000 
     84 N          -6.2774  -19.7128  -46.1738 N.am      15 UNK        -0.5000 
     85 CA         -7.6579  -19.6568  -46.6549 C.3       15 UNK         0.1400 
     86 CB         -8.0217  -21.0269  -47.2496 C.3       15 UNK        -0.1800 
     87 C          -7.8538  -18.5550  -47.7139 C.2       15 UNK         0.5000 
     88 O          -8.9863  -18.1209  -47.9252 O.2       15 UNK        -0.5000 
     89 N          -6.7568  -18.1569  -48.3785 N.am      16 UNK        -0.5000 
     90 CA         -6.6813  -17.2803  -49.5537 C.3       16 UNK         0.1400 
     91 CB         -7.1481  -15.8486  -49.2238 C.3       16 UNK        -0.1800 
     92 C          -7.3972  -17.9001  -50.7731 C.2       16 UNK         0.5000 
     93 O          -8.0065  -17.1893  -51.5732 O.2       16 UNK        -0.5000 
     94 N          -7.3142  -19.2337  -50.8771 N.am      17 UNK        -0.5000 
     95 CA         -8.0308  -20.0505  -51.8584 C.3       17 UNK         0.1400 
     96 CB         -8.2656  -21.4385  -51.2392 C.3       17 UNK        -0.1800 
     97 C          -7.2976  -20.1866  -53.2063 C.2       17 UNK         0.5000 
     98 O          -7.8627  -20.7641  -54.1363 O.2       17 UNK        -0.5000 
     99 N          -6.0502  -19.6971  -53.2760 N.am      18 UNK        -0.5000 
    100 CA        -5.0610  -19.8878  -54.3423 C.3       18 UNK         0.1400 
    101 CB        -5.5468  -19.3647  -55.7097 C.3       18 UNK        -0.1800 
    102 C         -4.5838  -21.3499  -54.3836 C.2       18 UNK         0.5000 
    103 O         -3.4813  -21.6351  -53.9119 O.2       18 UNK        -0.5000 
    104 N         -5.4379  -22.2437  -54.9035 N.am      19 UNK        -0.5000 
    105 CA        -5.3520  -23.7117  -54.8689 C.3       19 UNK         0.1400 
    106 CB        -5.5682  -24.2000  -53.4214 C.3       19 UNK        -0.1800 
    107 C         -4.0741  -24.3208  -55.4896 C.2       19 UNK         0.5000 
    108 O         -3.7521  -25.4745  -55.2012 O.2       19 UNK        -0.5000 
    109 N         -3.3561  -23.5305  -56.3031 N.am      20 UNK        -0.5000 
    110 CA        -2.0067  -23.7869  -56.8252 C.3       20 UNK         0.1400 
    111 CB        -2.0124  -24.9642  -57.8228 C.3       20 UNK        -0.1800 
    112 C         -0.9451  -23.9458  -55.7092 C.2       20 UNK         0.5000 
    113 O          0.0701  -24.6132  -55.9153 O.2       20 UNK        -0.5000 
    114 N         -1.1984  -23.3253  -54.5491 N.am      21 UNK        -0.5000 
    115 CA        -0.3813  -23.3973  -53.3391 C.3       21 UNK         0.1400 
    116 CB        -0.9644  -24.4658  -52.3968 C.3       21 UNK        -0.1800 
    117 C         -0.2612  -22.0124  -52.6772 C.2       21 UNK         0.5000 
    118 O         -0.1177  -21.9226  -51.4564 O.2       21 UNK        -0.5000 
    119 N         -0.3219  -20.9556  -53.4993 N.am      22 UNK        -0.5000 
    120 CA        -0.1514  -19.5404  -53.1266 C.3       22 UNK         0.1400 
    121 C         -1.2926  -18.9335  -52.2524 C.2       22 UNK         0.5000 
    122 N         -2.4260  -19.6001  -52.0890 N.am      22 UNK        -0.7600 
    123 O         -1.1753  -17.8253  -51.7394 O.2       22 UNK        -0.5000 
    124 C124        1.2679  -19.2594  -52.5524 C.3       23 UNK        -0.0398 
    125 S125        2.0528  -17.7887  -53.2926 S.3       23 UNK        -0.2404 
    126 C126        3.5367  -17.6261  -52.2489 C.3       23 UNK        -0.0205 
    127 H127       -4.3894  -16.0561  -54.1075 H         1 UNK         0.0600 
    128 H128       -3.8310  -17.1705  -52.8580 H         1 UNK         0.0600 
    129 H129       -5.4072  -16.3912  -52.7037 H         1 UNK         0.0600 
    130 H130       -2.1806  -16.2304  -51.6910 H         1 UNK         0.3000 
    131 H131       -1.8766  -13.3808  -51.3677 H         1 UNK         0.0600 
    132 H132       -0.0492  -15.2874  -51.5423 H         1 UNK         0.0800 
    133 H133       -0.3287  -15.5334  -49.8508 H         1 UNK         0.0800 
    134 H134        1.2928  -14.0814  -48.0793 H         1 UNK         0.0800 
    135 H135        2.7023  -13.4599  -48.8936 H         1 UNK         0.0800 
    136 H136        2.7591  -15.1863  -51.3775 H         1 UNK         0.1150 
    137 H137        3.5053  -19.1671  -49.9902 H         1 UNK         0.1150 
    138 H138        2.0232  -16.2017  -47.2736 H         1 UNK         0.1150 
    139 H139        3.6290  -19.5277  -47.5454 H         1 UNK         0.0800 
    140 H140        3.0754  -18.2940  -46.4447 H         1 UNK         0.0800 
    141 H141        2.3021  -21.1344  -48.7526 H         1 UNK         0.0800 
    142 H142        0.8005  -20.5169  -49.3690 H         1 UNK         0.0800 
    143 H143        0.7810  -22.9907  -48.8721 H         1 UNK         0.0600 
    144 H144        1.4041  -22.1270  -46.1295 H         1 UNK         0.3000 
    145 H145        0.7030  -24.3623  -44.4275 H         1 UNK         0.0600 
    146 H146        2.4698  -26.0449  -43.8435 H         1 UNK         0.0600 
    147 H147        1.4123  -26.5973  -45.1312 H         1 UNK         0.0600 
    148 H148        3.0288  -26.0278  -45.5161 H         1 UNK         0.0600 
    149 H149        2.1026  -22.8284  -43.7600 H         1 UNK         0.3000 
    150 H150        5.5664  -22.3194  -44.0000 H         1 UNK         0.0600 
    151 H151        4.8460  -20.8046  -45.8256 H         1 UNK         0.0600 
    152 H152        4.9665  -19.9183  -44.3123 H         1 UNK         0.0600 
    153 H153        3.3866  -20.3874  -44.9348 H         1 UNK         0.0600 
    154 H154        3.5448  -20.9560  -42.5139 H         1 UNK         0.3000 
    155 H155        3.5664  -23.1826  -39.7016 H         1 UNK         0.0600 
    156 H156        4.6250  -20.3457  -40.1806 H         1 UNK         0.0600 
    157 H157        5.5179  -21.6754  -39.4552 H         1 UNK         0.0600 
    158 H158        4.1177  -21.0098  -38.6288 H         1 UNK         0.0600 
    159 H159        2.2251  -20.7358  -40.6892 H         1 UNK         0.3000 
    160 H160       -0.8417  -22.3777  -41.2906 H         1 UNK         0.0600 
    161 H161       -1.0030  -22.1458  -38.8084 H         1 UNK         0.0600 
    162 H162       -1.7998  -20.8092  -39.6226 H         1 UNK         0.0600 
    163 H163       -0.2120  -20.5761  -38.8893 H         1 UNK         0.0600 
    164 H164       -0.1002  -19.6083  -41.1605 H         1 UNK         0.3000 
    165 H165        1.4092  -19.3580  -44.3213 H         1 UNK         0.0600 
    166 H166       -0.3741  -17.8087  -44.9177 H         1 UNK         0.0600 
    167 H167       -0.9966  -19.4451  -44.9934 H         1 UNK         0.0600 
    168 H168       -1.4165  -18.4143  -43.6235 H         1 UNK         0.0600 
    169 H169        0.5793  -17.2903  -42.6367 H         1 UNK         0.3000 
    170 H170        2.3321  -16.9513  -40.3132 H         1 UNK         0.0600 
    171 H171        4.6867  -17.5657  -40.6620 H         1 UNK         0.0600 
    172 H172        4.5369  -15.8174  -40.7139 H         1 UNK         0.0600 
    173 H173        4.7292  -16.7334  -42.2086 H         1 UNK         0.0600 
    174 H174        1.4575  -15.1870  -41.3144 H         1 UNK         0.3000 
    175 H175        1.2597  -13.3770  -42.6079 H         1 UNK         0.0600 
    176 H176        1.6003  -12.1258  -44.7033 H         1 UNK         0.0600 
    177 H177        3.1455  -12.7459  -44.1407 H         1 UNK         0.0600 
    178 H178        2.3193  -13.5335  -45.4812 H         1 UNK         0.0600 
    179 H179        0.0456  -14.2108  -45.0974 H         1 UNK         0.3000 
    180 H180       -1.9301  -16.1107  -44.8590 H         1 UNK         0.0600 
    181 H181       -3.6479  -14.6612  -42.7890 H         1 UNK         0.0600 
    182 H182       -3.1725  -16.3553  -42.7356 H         1 UNK         0.0600 
    183 H183       -4.2371  -15.7901  -44.0095 H         1 UNK         0.0600 
    184 H184       -3.3806  -13.6722  -45.0553 H         1 UNK         0.3000 
    185 H185       -3.6167  -12.9297  -47.2552 H         1 UNK         0.0600 
    186 H186       -1.0048  -11.3271  -46.9988 H         1 UNK         0.0600 
    187 H187       -2.5447  -10.6900  -47.5769 H         1 UNK         0.0600 
    188 H188       -2.3819  -11.2169  -45.9095 H         1 UNK         0.0600 
    189 H189       -1.3473  -12.5693  -49.0627 H         1 UNK         0.3000 
    190 H190       -1.1607  -22.1574  -49.9521 H         1 UNK         0.3000 
    191 H191       -3.5622  -22.5357  -48.3265 H         1 UNK         0.0600 
    192 H192       -3.5554  -23.5660  -50.4889 H         1 UNK         0.0600 
    193 H193       -3.1027  -22.0764  -51.3043 H         1 UNK         0.0600 
    194 H194       -4.7022  -22.2457  -50.5929 H         1 UNK         0.0600 
    195 H195       -1.6546  -19.8893  -48.6947 H         1 UNK         0.3000 
    196 H196       -3.3908  -17.6878  -49.0074 H         1 UNK         0.0600 
    197 H197       -1.5436  -16.4342  -48.0786 H         1 UNK         0.0600 
    198 H198       -0.8232  -17.7175  -49.0369 H         1 UNK         0.0600 
    199 H199       -0.8735  -17.8314  -47.2775 H         1 UNK         0.0600 
    200 H200       -3.0081  -19.8971  -46.3232 H         1 UNK         0.3000 
    201 H201       -4.0416  -18.3245  -44.1827 H         1 UNK         0.0600 
    202 H202       -2.8724  -20.4890  -43.8212 H         1 UNK         0.0600 
    203 H203       -4.1443  -21.3505  -44.6808 H         1 UNK         0.0600 
    204 H204       -4.4894  -20.5629  -43.1458 H         1 UNK         0.0600 
    205 H205       -5.6089  -20.1628  -46.7853 H         1 UNK         0.3000 
    206 H206       -8.3402  -19.4511  -45.8275 H         1 UNK         0.0600 
    207 H207       -7.9426  -21.8142  -46.4998 H         1 UNK         0.0600 
    208 H208       -9.0478  -21.0335  -47.6198 H         1 UNK         0.0600 
    209 H209       -7.3696  -21.2919  -48.0830 H         1 UNK         0.0600 
    210 H210       -5.8937  -18.6332  -48.1518 H         1 UNK         0.3000 
    211 H211       -5.6261  -17.2206  -49.8225 H         1 UNK         0.0600 
    212 H212       -8.2164  -15.8045  -49.0116 H         1 UNK         0.0600 
    213 H213       -6.9512  -15.1746  -50.0584 H         1 UNK         0.0600 
    214 H214       -6.6141  -15.4539  -48.3590 H         1 UNK         0.0600 
    215 H215       -6.7760  -19.7329  -50.1811 H         1 UNK         0.3000 
    216 H216       -9.0037  -19.5977  -52.0607 H         1 UNK         0.0600 
    217 H217       -8.8231  -22.0847  -51.9186 H         1 UNK         0.0600 
    218 H218       -8.8442  -21.3657  -50.3182 H         1 UNK         0.0600 
    219 H219       -7.3253  -21.9405  -51.0069 H         1 UNK         0.0600 
    220 H220       -5.7026  -19.2535  -52.4400 H         1 UNK         0.3000 
    221 H221       -4.1977  -19.2809  -54.0719 H         1 UNK         0.0600 
    222 H222       -6.4075  -19.9108  -56.0944 H         1 UNK         0.0600 
    223 H223       -5.8248  -18.3126  -55.6455 H         1 UNK         0.0600 
    224 H224       -4.7549  -19.4443  -56.4553 H         1 UNK         0.0600 
    225 H225       -6.3331  -21.8771  -55.2062 H         1 UNK         0.3000 
    226 H226       -6.1838  -24.0785  -55.4715 H         1 UNK         0.0600 
    227 H227       -6.4709  -23.7681  -52.9887 H         1 UNK         0.0600 
    228 H228       -5.6786  -25.2841  -53.3814 H         1 UNK         0.0600 
    229 H229       -4.7280  -23.9328  -52.7803 H         1 UNK         0.0600 
    230 H230       -3.7200  -22.6040  -56.4738 H         1 UNK         0.3000 
    231 H231       -1.7233  -22.8912  -57.3795 H         1 UNK         0.0600 
    232 H232       -2.7723  -24.8259  -58.5918 H         1 UNK         0.0600 
    233 H233       -2.2048  -25.9163  -57.3277 H         1 UNK         0.0600 
    234 H234       -1.0512  -25.0506  -58.3308 H         1 UNK         0.0600 
    235 H235       -2.0595  -22.7912  -54.4561 H         1 UNK         0.3000 
    236 H236        0.6383  -23.6899  -53.5963 H         1 UNK         0.0600 
    237 H237       -0.3933  -24.5401  -51.4706 H         1 UNK         0.0600 
    238 H238       -1.9982  -24.2429  -52.1363 H         1 UNK         0.0600 
    239 H239       -0.9481  -25.4496  -52.8659 H         1 UNK         0.0600 
    240 H240       -0.4701  -21.1336  -54.4817 H         1 UNK         0.3000 
    241 H241       -0.2446  -19.0142  -54.0769 H         1 UNK         0.0600 
    242 H242       -3.1359  -19.2033  -51.5016 H         1 UNK         0.3800 
    243 H243       -2.5806  -20.4751  -52.5764 H         1 UNK         0.3800 
    244 H244        1.2341  -19.1619  -51.4669 H         1 UNK         0.0800 
    245 H245        1.9399  -20.0961  -52.7475 H         1 UNK         0.0800 
    246 H246        4.1967  -16.8738  -52.6829 H         1 UNK         0.0800 
    247 H247        4.0937  -18.5643  -52.2536 H         1 UNK         0.0800 
@<TRIPOS>BOND
     1    1    2 1    
     2    1  127 1    
     3    1  128 1    
     4    1  129 1    
     5    2    3 2    
     6    2    4 am   BACKBONE|DICT|INTERRES
     7    4    5 1    
     8    4  130 1    
     9    5    6 1    
    10    5   65 1    
    11    5  131 1    
    12    6    7 1    
    13    6  132 1    
    14    6  133 1    
    15    7    8 1    
    16    8    9 1    
    17    8  134 1    
    18    8  135 1    
    19    9   10 ar   
    20    9   14 ar   
    21   10   11 ar   
    22   10  136 1    
    23   11   12 ar   
    24   11  126 1    
    25   12   13 ar   
    26   12  137 1    
    27   13   14 ar   
    28   13   15 1    
    29   14  138 1    
    30   15   16 1    
    31   15  139 1    
    32   15  140 1    
    33   16   17 1    
    34   17   18 1    
    35   17  141 1    
    36   17  142 1    
    37   18   19 1    
    38   18   67 1    
    39   18  143 1    
    40   19   20 am   BACKBONE|DICT|INTERRES
    41   19  144 1    
    42   20   21 2    
    43   20   22 1    
    44   22   23 1    
    45   22   24 1    
    46   22  145 1    
    47   23  146 1    
    48   23  147 1    
    49   23  148 1    
    50   24   25 am   BACKBONE|DICT|INTERRES
    51   24  149 1    
    52   25   26 2    
    53   25   27 1    
    54   27   28 1    
    55   27   29 1    
    56   27  150 1    
    57   28  151 1    
    58   28  152 1    
    59   28  153 1    
    60   29   30 am   BACKBONE|DICT|INTERRES
    61   29  154 1    
    62   30   31 2    
    63   30   32 1    
    64   32   33 1    
    65   32   34 1    
    66   32  155 1    
    67   33  156 1    
    68   33  157 1    
    69   33  158 1    
    70   34   35 am   BACKBONE|DICT|INTERRES
    71   34  159 1    
    72   35   36 2    
    73   35   37 1    
    74   37   38 1    
    75   37   39 1    
    76   37  160 1    
    77   38  161 1    
    78   38  162 1    
    79   38  163 1    
    80   39   40 am   BACKBONE|DICT|INTERRES
    81   39  164 1    
    82   40   41 2    
    83   40   42 1    
    84   42   43 1    
    85   42   44 1    
    86   42  165 1    
    87   43  166 1    
    88   43  167 1    
    89   43  168 1    
    90   44   45 am   BACKBONE|DICT|INTERRES
    91   44  169 1    
    92   45   46 2    
    93   45   47 1    
    94   47   48 1    
    95   47   49 1    
    96   47  170 1    
    97   48  171 1    
    98   48  172 1    
    99   48  173 1    
   100   49   50 am   BACKBONE|DICT|INTERRES
   101   49  174 1    
   102   50   51 2    
   103   50   52 1    
   104   52   53 1    
   105   52   54 1    
   106   52  175 1    
   107   53  176 1    
   108   53  177 1    
   109   53  178 1    
   110   54   55 am   BACKBONE|DICT|INTERRES
   111   54  179 1    
   112   55   56 2    
   113   55   57 1    
   114   57   58 1    
   115   57   59 1    
   116   57  180 1    
   117   58  181 1    
   118   58  182 1    
   119   58  183 1    
   120   59   60 am   BACKBONE|DICT|INTERRES
   121   59  184 1    
   122   60   61 2    
   123   60   62 1    
   124   62   63 1    
   125   62   64 1    
   126   62  185 1    
   127   63  186 1    
   128   63  187 1    
   129   63  188 1    
   130   64   65 am   BACKBONE|DICT|INTERRES
   131   64  189 1    
   132   65   66 2    
   133   67   68 2    
   134   67   69 am   BACKBONE|DICT|INTERRES
   135   69   70 1    
   136   69  190 1    
   137   70   71 1    
   138   70   72 1    
   139   70  191 1    
   140   71  192 1    
   141   71  193 1    
   142   71  194 1    
   143   72   73 2    
   144   72   74 am   BACKBONE|DICT|INTERRES
   145   74   75 1    
   146   74  195 1    
   147   75   76 1    
   148   75   77 1    
   149   75  196 1    
   150   76  197 1    
   151   76  198 1    
   152   76  199 1    
   153   77   78 2    
   154   77   79 am   BACKBONE|DICT|INTERRES
   155   79   80 1    
   156   79  200 1    
   157   80   81 1    
   158   80   82 1    
   159   80  201 1    
   160   81  202 1    
   161   81  203 1    
   162   81  204 1    
   163   82   83 2    
   164   82   84 am   BACKBONE|DICT|INTERRES
   165   84   85 1    
   166   84  205 1    
   167   85   86 1    
   168   85   87 1    
   169   85  206 1    
   170   86  207 1    
   171   86  208 1    
   172   86  209 1    
   173   87   88 2    
   174   87   89 am   BACKBONE|DICT|INTERRES
   175   89   90 1    
   176   89  210 1    
   177   90   91 1    
   178   90   92 1    
   179   90  211 1    
   180   91  212 1    
   181   91  213 1    
   182   91  214 1    
   183   92   93 2    
   184   92   94 am   BACKBONE|DICT|INTERRES
   185   94   95 1    
   186   94  215 1    
   187   95   96 1    
   188   95   97 1    
   189   95  216 1    
   190   96  217 1    
   191   96  218 1    
   192   96  219 1    
   193   97   98 2    
   194   97   99 am   BACKBONE|DICT|INTERRES
   195   99  100 1    
   196   99  220 1    
   197  100  101 1    
   198  100  102 1    
   199  100  221 1    
   200  101  222 1    
   201  101  223 1    
   202  101  224 1    
   203  102  103 2    
   204  102  104 am   BACKBONE|DICT|INTERRES
   205  104  105 1    
   206  104  225 1    
   207  105  106 1    
   208  105  107 1    
   209  105  226 1    
   210  106  227 1    
   211  106  228 1    
   212  106  229 1    
   213  107  108 2    
   214  107  109 am   BACKBONE|DICT|INTERRES
   215  109  110 1    
   216  109  230 1    
   217  110  111 1    
   218  110  112 1    
   219  110  231 1    
   220  111  232 1    
   221  111  233 1    
   222  111  234 1    
   223  112  113 2    
   224  112  114 am   BACKBONE|DICT|INTERRES
   225  114  115 1    
   226  114  235 1    
   227  115  116 1    
   228  115  117 1    
   229  115  236 1    
   230  116  237 1    
   231  116  238 1    
   232  116  239 1    
   233  117  118 2    
   234  117  119 am   BACKBONE|DICT|INTERRES
   235  119  120 1    
   236  119  240 1    
   237  120  121 1    
   238  120  124 1    
   239  120  241 1    
   240  121  122 am   BACKBONE|DICT|INTERRES
   241  121  123 2    
   242  122  242 1    
   243  122  243 1    
   244  124  125 1    
   245  124  244 1    
   246  124  245 1    
   247  125  126 1    
   248  126  246 1    
   249  126  247 1    
@<TRIPOS>SUBSTRUCTURE
     1 UNK         1 GROUP             0       ****    0 ROOT    
