@<TRIPOS>MOLECULE
3R540
247   249    1
SMALL
USER_CHARGES


@<TRIPOS>ATOM
      1 CA         -2.6155   -9.1289  -49.4964 C.3       0 UNK        -0.1800 
      2 C          -2.2781  -10.5177  -48.9723 C.2       0 UNK         0.5000 
      3 O          -3.1696  -11.2234  -48.5009 O.2       0 UNK        -0.5000 
      4 N          -0.9968  -10.9027  -49.0545 N.am      1 UNK        -0.5000 
      5 CA         -0.4388  -12.1916  -48.6188 C.3       1 UNK         0.1400 
      6 C6         -0.9306  -13.4095  -49.4489 C.3       23 UNK        -0.0398 
      7 S7         -0.4453  -13.2798  -51.2009 S.3       23 UNK        -0.2404 
      8 C8          1.1672  -14.1282  -51.1823 C.3       23 UNK        -0.0205 
      9 C9          1.0271  -15.6440  -51.1756 C.ar      23 UNK        -0.0193 
     10 C10         0.6611  -16.3076  -52.3476 C.ar      23 UNK        -0.1150 
     11 C11         0.5764  -17.7003  -52.3775 C.ar      23 UNK        -0.0193 
     12 C12         0.8577  -18.4340  -51.2216 C.ar      23 UNK        -0.1150 
     13 C13         1.2264  -17.7864  -50.0330 C.ar      23 UNK        -0.0193 
     14 C14         1.3032  -16.3880  -50.0232 C.ar      23 UNK        -0.1150 
     15 C15         1.6014  -18.5395  -48.7523 C.3       23 UNK        -0.0205 
     16 S16         1.3358  -20.3499  -48.7656 S.3       23 UNK        -0.2404 
     17 C17        -0.4330  -20.4786  -48.3375 C.3       23 UNK        -0.0398 
     18 CA         -0.7380  -21.7644  -47.5308 C.3       11 UNK         0.1400 
     19 N          -0.0719  -21.7962  -46.2215 N.am      11 UNK        -0.5000 
     20 C           0.0092  -22.8861  -45.4439 C.2       10 UNK         0.5000 
     21 O          -0.4583  -23.9802  -45.7579 O.2       10 UNK        -0.5000 
     22 CA          0.6716  -22.7231  -44.0634 C.3       10 UNK         0.1400 
     23 CB          2.2020  -22.6790  -44.1835 C.3       10 UNK        -0.1800 
     24 N           0.1854  -21.5462  -43.3413 N.am      10 UNK        -0.5000 
     25 C          -1.0817  -21.3874  -42.9313 C.2       9 UNK         0.5000 
     26 O          -1.9578  -22.2364  -43.0840 O.2       9 UNK        -0.5000 
     27 CA         -1.4535  -20.0405  -42.2876 C.3       9 UNK         0.1400 
     28 CB         -1.0844  -20.0256  -40.7971 C.3       9 UNK        -0.1800 
     29 N          -0.8313  -18.9036  -42.9624 N.am      9 UNK        -0.5000 
     30 C          -1.0482  -18.5606  -44.2403 C.2       8 UNK         0.5000 
     31 O          -1.8452  -19.1352  -44.9819 O.2       8 UNK        -0.5000 
     32 CA         -0.1705  -17.4295  -44.8017 C.3       8 UNK         0.1400 
     33 CB         -0.6816  -16.0570  -44.3453 C.3       8 UNK        -0.1800 
     34 N           1.2366  -17.5932  -44.4284 N.am      8 UNK        -0.5000 
     35 C           1.9969  -18.6272  -44.8174 C.2       7 UNK         0.5000 
     36 O           1.6005  -19.5117  -45.5730 O.2       7 UNK        -0.5000 
     37 CA          3.4090  -18.7326  -44.2193 C.3       7 UNK         0.1400 
     38 CB          4.4474  -18.0232  -45.0965 C.3       7 UNK        -0.1800 
     39 N           3.4660  -18.2253  -42.8475 N.am      7 UNK        -0.5000 
     40 C           2.9680  -18.9054  -41.8048 C.2       6 UNK         0.5000 
     41 O           2.4212  -20.0044  -41.9086 O.2       6 UNK        -0.5000 
     42 CA          3.0693  -18.2405  -40.4219 C.3       6 UNK         0.1400 
     43 CB          4.5033  -18.3270  -39.8778 C.3       6 UNK        -0.1800 
     44 N           2.6308  -16.8458  -40.4059 N.am      6 UNK        -0.5000 
     45 C           1.4064  -16.4055  -40.7175 C.2       5 UNK         0.5000 
     46 O           0.5115  -17.1346  -41.1428 O.2       5 UNK        -0.5000 
     47 CA          1.1238  -14.9023  -40.5321 C.3       5 UNK         0.1400 
     48 CB          0.7836  -14.5736  -39.0666 C.3       5 UNK        -0.1800 
     49 N           2.1706  -14.0198  -41.0591 N.am      5 UNK        -0.5000 
     50 C           3.4363  -13.8506  -40.6469 C.2       4 UNK         0.5000 
     51 O           3.9124  -14.4207  -39.6633 O.2       4 UNK        -0.5000 
     52 CA          4.3258  -12.9071  -41.4908 C.3       4 UNK         0.1400 
     53 CB          5.8194  -13.2883  -41.4185 C.3       4 UNK        -0.1800 
     54 N           3.9002  -12.7753  -42.8914 N.am      4 UNK        -0.5000 
     55 C           3.7721  -13.7586  -43.7959 C.2       3 UNK         0.5000 
     56 O           4.0111  -14.9444  -43.5582 O.2       3 UNK        -0.5000 
     57 CA          3.2431  -13.3302  -45.1835 C.3       3 UNK         0.1400 
     58 CB          2.8506  -14.5236  -46.0763 C.3       3 UNK        -0.1800 
     59 N           2.1316  -12.3689  -45.1569 N.am      3 UNK        -0.5000 
     60 C           1.0127  -12.3980  -44.4124 C.2       2 UNK         0.5000 
     61 O           0.8293  -13.1437  -43.4514 O.2       2 UNK        -0.5000 
     62 CA         -0.1139  -11.4453  -44.8570 C.3       2 UNK         0.1400 
     63 CB          0.1035  -10.0365  -44.2850 C.3       2 UNK        -0.1800 
     64 N          -0.2220  -11.3731  -46.3177 N.am      2 UNK        -0.5000 
     65 C          -0.5860  -12.4040  -47.0969 C.2       1 UNK         0.5000 
     66 O          -0.9981  -13.4774  -46.6556 O.2       1 UNK        -0.5000 
     67 C          -2.2599  -21.9976  -47.4208 C.2       11 UNK         0.5000 
     68 O          -2.8396  -22.6044  -48.3231 O.2       11 UNK        -0.5000 
     69 N          -2.8806  -21.5399  -46.3246 N.am      12 UNK        -0.5000 
     70 CA         -4.2798  -21.8111  -45.9974 C.3       12 UNK         0.1400 
     71 CB         -4.7541  -20.8559  -44.8928 C.3       12 UNK        -0.1800 
     72 C          -4.5094  -23.2805  -45.6020 C.2       12 UNK         0.5000 
     73 O          -5.4369  -23.9021  -46.1187 O.2       12 UNK        -0.5000 
     74 N          -3.6464  -23.8247  -44.7314 N.am      13 UNK        -0.5000 
     75 CA         -3.6820  -25.2171  -44.2707 C.3       13 UNK         0.1400 
     76 CB         -2.6633  -25.4120  -43.1378 C.3       13 UNK        -0.1800 
     77 C          -3.4375  -26.2366  -45.3986 C.2       13 UNK         0.5000 
     78 O          -4.0768  -27.2888  -45.4185 O.2       13 UNK        -0.5000 
     79 N          -2.5503  -25.8868  -46.3392 N.am      14 UNK        -0.5000 
     80 CA         -2.2815  -26.6392  -47.5665 C.3       14 UNK         0.1400 
     81 CB         -0.9595  -26.1357  -48.1687 C.3       14 UNK        -0.1800 
     82 C          -3.4115  -26.5375  -48.6130 C.2       14 UNK         0.5000 
     83 O          -3.3781  -27.2722  -49.6003 O.2       14 UNK        -0.5000 
     84 N          -4.3602  -25.6115  -48.4016 N.am      15 UNK        -0.5000 
     85 CA         -5.4791  -25.2369  -49.2736 C.3       15 UNK         0.1400 
     86 CB         -6.4252  -26.4277  -49.5271 C.3       15 UNK        -0.1800 
     87 C          -5.0472  -24.5397  -50.5795 C.2       15 UNK         0.5000 
     88 O          -5.8839  -24.3273  -51.4565 O.2       15 UNK        -0.5000 
     89 N          -3.7716  -24.1429  -50.6745 N.am      16 UNK        -0.5000 
     90 CA         -3.1969  -23.4097  -51.7991 C.3       16 UNK         0.1400 
     91 CB         -1.6697  -23.3487  -51.6398 C.3       16 UNK        -0.1800 
     92 C          -3.7996  -22.0023  -51.9145 C.2       16 UNK         0.5000 
     93 O          -4.2303  -21.6104  -52.9980 O.2       16 UNK        -0.5000 
     94 N          -3.8907  -21.2997  -50.7762 N.am      17 UNK        -0.5000 
     95 CA         -4.5086  -19.9756  -50.6810 C.3       17 UNK         0.1400 
     96 CB         -4.1612  -19.3412  -49.3259 C.3       17 UNK        -0.1800 
     97 C          -6.0349  -20.0112  -50.8919 C.2       17 UNK         0.5000 
     98 O          -6.5955  -19.0439  -51.4064 O.2       17 UNK        -0.5000 
     99 N          -6.6731  -21.1284  -50.5134 N.am      18 UNK        -0.5000 
    100 CA        -8.1037  -21.3721  -50.7036 C.3       18 UNK         0.1400 
    101 CB        -8.5525  -22.5334  -49.8024 C.3       18 UNK        -0.1800 
    102 C         -8.4508  -21.6493  -52.1778 C.2       18 UNK         0.5000 
    103 O         -9.4334  -21.1072  -52.6846 O.2       18 UNK        -0.5000 
    104 N         -7.6240  -22.4671  -52.8442 N.am      19 UNK        -0.5000 
    105 CA        -7.7373  -22.7921  -54.2678 C.3       19 UNK         0.1400 
    106 CB        -6.9098  -24.0565  -54.5499 C.3       19 UNK        -0.1800 
    107 C         -7.2815  -21.6495  -55.1968 C.2       19 UNK         0.5000 
    108 O         -7.6284  -21.6651  -56.3784 O.2       19 UNK        -0.5000 
    109 N         -6.4938  -20.7090  -54.6543 N.am      20 UNK        -0.5000 
    110 CA        -5.7635  -19.6421  -55.3465 C.3       20 UNK         0.1400 
    111 CB        -6.7253  -18.6448  -56.0256 C.3       20 UNK        -0.1800 
    112 C         -4.6881  -20.2120  -56.2967 C.2       20 UNK         0.5000 
    113 O         -4.4988  -19.7083  -57.4057 O.2       20 UNK        -0.5000 
    114 N         -4.0101  -21.2669  -55.8317 N.am      21 UNK        -0.5000 
    115 CA        -2.9088  -21.9430  -56.5056 C.3       21 UNK         0.1400 
    116 CB        -3.0917  -23.4593  -56.3367 C.3       21 UNK        -0.1800 
    117 C         -1.5863  -21.4891  -55.8725 C.2       21 UNK         0.5000 
    118 O         -1.5375  -21.2630  -54.6623 O.2       21 UNK        -0.5000 
    119 N         -0.5352  -21.3763  -56.6890 N.am      22 UNK        -0.5000 
    120 CA         0.7896  -20.8948  -56.2641 C.3       22 UNK         0.1400 
    121 C          1.9684  -21.5505  -57.0420 C.2       22 UNK         0.5000 
    122 N          1.7621  -22.6593  -57.7437 N.am      22 UNK        -0.7600 
    123 O          3.0939  -21.0609  -57.0063 O.2       22 UNK        -0.5000 
    124 C124        0.8456  -19.3381  -56.2299 C.3       23 UNK        -0.0398 
    125 S125        1.6452  -18.6880  -54.7243 S.3       23 UNK        -0.2404 
    126 C126        0.1912  -18.4070  -53.6654 C.3       23 UNK        -0.0205 
    127 H127       -1.7356   -8.6168  -49.8867 H         1 UNK         0.0600 
    128 H128       -3.0374   -8.5188  -48.6977 H         1 UNK         0.0600 
    129 H129       -3.3507   -9.1992  -50.2980 H         1 UNK         0.0600 
    130 H130       -0.3281  -10.2661  -49.4654 H         1 UNK         0.3000 
    131 H131        0.6374  -12.1129  -48.7799 H         1 UNK         0.0600 
    132 H132       -0.5317  -14.3436  -49.0510 H         1 UNK         0.0800 
    133 H133       -2.0159  -13.5026  -49.3934 H         1 UNK         0.0800 
    134 H134        1.7559  -13.7880  -50.3291 H         1 UNK         0.0800 
    135 H135        1.7263  -13.8293  -52.0701 H         1 UNK         0.0800 
    136 H136        0.4546  -15.7381  -53.2432 H         1 UNK         0.1150 
    137 H137        0.8029  -19.5112  -51.2698 H         1 UNK         0.1150 
    138 H138        1.6012  -15.8777  -49.1177 H         1 UNK         0.1150 
    139 H139        1.0704  -18.1037  -47.9056 H         1 UNK         0.0800 
    140 H140        2.6613  -18.3668  -48.5615 H         1 UNK         0.0800 
    141 H141       -0.9919  -20.4665  -49.2750 H         1 UNK         0.0800 
    142 H142       -0.7459  -19.5973  -47.7750 H         1 UNK         0.0800 
    143 H143       -0.3466  -22.6072  -48.1048 H         1 UNK         0.0600 
    144 H144        0.3850  -20.9381  -45.9213 H         1 UNK         0.3000 
    145 H145        0.4119  -23.6007  -43.4678 H         1 UNK         0.0600 
    146 H146        2.5805  -23.5968  -44.6349 H         1 UNK         0.0600 
    147 H147        2.6732  -22.5785  -43.2056 H         1 UNK         0.0600 
    148 H148        2.5379  -21.8503  -44.8052 H         1 UNK         0.0600 
    149 H149        0.8603  -20.8179  -43.1400 H         1 UNK         0.3000 
    150 H150       -2.5356  -19.9215  -42.3696 H         1 UNK         0.0600 
    151 H151       -0.0072  -20.1018  -40.6471 H         1 UNK         0.0600 
    152 H152       -1.5504  -20.8595  -40.2706 H         1 UNK         0.0600 
    153 H153       -1.4234  -19.1073  -40.3173 H         1 UNK         0.0600 
    154 H154       -0.1881  -18.3457  -42.4060 H         1 UNK         0.3000 
    155 H155       -0.2370  -17.4677  -45.8908 H         1 UNK         0.0600 
    156 H156       -0.1211  -15.2556  -44.8224 H         1 UNK         0.0600 
    157 H157       -0.6018  -15.9255  -43.2667 H         1 UNK         0.0600 
    158 H158       -1.7289  -15.9200  -44.6171 H         1 UNK         0.0600 
    159 H159        1.6226  -16.9260  -43.7771 H         1 UNK         0.3000 
    160 H160        3.6755  -19.7914  -44.2033 H         1 UNK         0.0600 
    161 H161        4.2765  -16.9511  -45.1331 H         1 UNK         0.0600 
    162 H162        4.4141  -18.3969  -46.1209 H         1 UNK         0.0600 
    163 H163        5.4575  -18.1876  -44.7214 H         1 UNK         0.0600 
    164 H164        3.8681  -17.3076  -42.7061 H         1 UNK         0.3000 
    165 H165        2.4162  -18.7950  -39.7449 H         1 UNK         0.0600 
    166 H166        4.8575  -19.3587  -39.8696 H         1 UNK         0.0600 
    167 H167        5.1996  -17.7437  -40.4816 H         1 UNK         0.0600 
    168 H168        4.5584  -17.9569  -38.8538 H         1 UNK         0.0600 
    169 H169        3.2949  -16.1548  -40.0676 H         1 UNK         0.3000 
    170 H170        0.2361  -14.6805  -41.1265 H         1 UNK         0.0600 
    171 H171        0.5234  -13.5216  -38.9494 H         1 UNK         0.0600 
    172 H172        1.6124  -14.7920  -38.3930 H         1 UNK         0.0600 
    173 H173       -0.0716  -15.1597  -38.7278 H         1 UNK         0.0600 
    174 H174        1.8969  -13.5465  -41.9169 H         1 UNK         0.3000 
    175 H175        4.2163  -11.9175  -41.0453 H         1 UNK         0.0600 
    176 H176        5.9966  -14.2998  -41.7854 H         1 UNK         0.0600 
    177 H177        6.1878  -13.2436  -40.3930 H         1 UNK         0.0600 
    178 H178        6.4298  -12.6054  -42.0094 H         1 UNK         0.0600 
    179 H179        3.6423  -11.8424  -43.1815 H         1 UNK         0.3000 
    180 H180        4.0725  -12.8176  -45.6729 H         1 UNK         0.0600 
    181 H181        2.1182  -15.1668  -45.5906 H         1 UNK         0.0600 
    182 H182        3.7224  -15.1290  -46.3204 H         1 UNK         0.0600 
    183 H183        2.4234  -14.1893  -47.0218 H         1 UNK         0.0600 
    184 H184        2.1677  -11.6680  -45.8827 H         1 UNK         0.3000 
    185 H185       -1.0553  -11.8343  -44.4630 H         1 UNK         0.0600 
    186 H186        0.1723  -10.0647  -43.1967 H         1 UNK         0.0600 
    187 H187        1.0215   -9.5828  -44.6606 H         1 UNK         0.0600 
    188 H188       -0.7258   -9.3763  -44.5399 H         1 UNK         0.0600 
    189 H189        0.0650  -10.5102  -46.7565 H         1 UNK         0.3000 
    190 H190       -2.3570  -20.9765  -45.6624 H         1 UNK         0.3000 
    191 H191       -4.8826  -21.6158  -46.8861 H         1 UNK         0.0600 
    192 H192       -4.6524  -19.8158  -45.2033 H         1 UNK         0.0600 
    193 H193       -5.8054  -21.0242  -44.6565 H         1 UNK         0.0600 
    194 H194       -4.1859  -20.9857  -43.9722 H         1 UNK         0.0600 
    195 H195       -2.9317  -23.2332  -44.3131 H         1 UNK         0.3000 
    196 H196       -4.6786  -25.4064  -43.8669 H         1 UNK         0.0600 
    197 H197       -2.6761  -26.4391  -42.7711 H         1 UNK         0.0600 
    198 H198       -2.8867  -24.7623  -42.2915 H         1 UNK         0.0600 
    199 H199       -1.6477  -25.1928  -43.4690 H         1 UNK         0.0600 
    200 H200       -2.0018  -25.0422  -46.1974 H         1 UNK         0.3000 
    201 H201       -2.1645  -27.6937  -47.3091 H         1 UNK         0.0600 
    202 H202       -0.6978  -26.6935  -49.0688 H         1 UNK         0.0600 
    203 H203       -0.1357  -26.2531  -47.4645 H         1 UNK         0.0600 
    204 H204       -1.0191  -25.0812  -48.4409 H         1 UNK         0.0600 
    205 H205       -4.2992  -25.0695  -47.5482 H         1 UNK         0.3000 
    206 H206       -6.0451  -24.4887  -48.7178 H         1 UNK         0.0600 
    207 H207       -6.7218  -26.9013  -48.5912 H         1 UNK         0.0600 
    208 H208       -7.3376  -26.1013  -50.0275 H         1 UNK         0.0600 
    209 H209       -5.9646  -27.1874  -50.1588 H         1 UNK         0.0600 
    210 H210       -3.1802  -24.2659  -49.8643 H         1 UNK         0.3000 
    211 H211       -3.4282  -23.9536  -52.7173 H         1 UNK         0.0600 
    212 H212       -1.2375  -24.3489  -51.6094 H         1 UNK         0.0600 
    213 H213       -1.2108  -22.8224  -52.4772 H         1 UNK         0.0600 
    214 H214       -1.3756  -22.8299  -50.7268 H         1 UNK         0.0600 
    215 H215       -3.5460  -21.7205  -49.9185 H         1 UNK         0.3000 
    216 H216       -4.0834  -19.3476  -51.4671 H         1 UNK         0.0600 
    217 H217       -4.5348  -19.9367  -48.4938 H         1 UNK         0.0600 
    218 H218       -4.5993  -18.3462  -49.2378 H         1 UNK         0.0600 
    219 H219       -3.0845  -19.2291  -49.2051 H         1 UNK         0.0600 
    220 H220       -6.1279  -21.8812  -50.1234 H         1 UNK         0.3000 
    221 H221       -8.6475  -20.4770  -50.3938 H         1 UNK         0.0600 
    222 H222       -8.0667  -23.4708  -50.0726 H         1 UNK         0.0600 
    223 H223       -8.3309  -22.3298  -48.7547 H         1 UNK         0.0600 
    224 H224       -9.6288  -22.6910  -49.8818 H         1 UNK         0.0600 
    225 H225       -6.8758  -22.9335  -52.3384 H         1 UNK         0.3000 
    226 H226       -8.7835  -23.0077  -54.4944 H         1 UNK         0.0600 
    227 H227       -7.2540  -24.8963  -53.9461 H         1 UNK         0.0600 
    228 H228       -6.9892  -24.3537  -55.5963 H         1 UNK         0.0600 
    229 H229       -5.8522  -23.8992  -54.3322 H         1 UNK         0.0600 
    230 H230       -6.2271  -20.8476  -53.6883 H         1 UNK         0.3000 
    231 H231       -5.2228  -19.0978  -54.5708 H         1 UNK         0.0600 
    232 H232       -7.2508  -19.0926  -56.8692 H         1 UNK         0.0600 
    233 H233       -6.1818  -17.7788  -56.4047 H         1 UNK         0.0600 
    234 H234       -7.4715  -18.2766  -55.3214 H         1 UNK         0.0600 
    235 H235       -4.1493  -21.5248  -54.8567 H         1 UNK         0.3000 
    236 H236       -2.9052  -21.7027  -57.5708 H         1 UNK         0.0600 
    237 H237       -3.0843  -23.7511  -55.2855 H         1 UNK         0.0600 
    238 H238       -4.0364  -23.7914  -56.7677 H         1 UNK         0.0600 
    239 H239       -2.2933  -24.0085  -56.8371 H         1 UNK         0.0600 
    240 H240       -0.6397  -21.5683  -57.6755 H         1 UNK         0.3000 
    241 H241        0.9402  -21.2632  -55.2473 H         1 UNK         0.0600 
    242 H242        0.8683  -23.1238  -57.7429 H         1 UNK         0.3800 
    243 H243        2.5351  -23.0746  -58.2407 H         1 UNK         0.3800 
    244 H244        1.3681  -18.9402  -57.1013 H         1 UNK         0.0800 
    245 H245       -0.1558  -18.9098  -56.2901 H         1 UNK         0.0800 
    246 H246       -0.5503  -17.8130  -54.2019 H         1 UNK         0.0800 
    247 H247       -0.2824  -19.3622  -53.4380 H         1 UNK         0.0800 
@<TRIPOS>BOND
     1    1    2 1    
     2    1  127 1    
     3    1  128 1    
     4    1  129 1    
     5    2    3 2    
     6    2    4 am   BACKBONE|DICT|INTERRES
     7    4    5 1    
     8    4  130 1    
     9    5    6 1    
    10    5   65 1    
    11    5  131 1    
    12    6    7 1    
    13    6  132 1    
    14    6  133 1    
    15    7    8 1    
    16    8    9 1    
    17    8  134 1    
    18    8  135 1    
    19    9   10 ar   
    20    9   14 ar   
    21   10   11 ar   
    22   10  136 1    
    23   11   12 ar   
    24   11  126 1    
    25   12   13 ar   
    26   12  137 1    
    27   13   14 ar   
    28   13   15 1    
    29   14  138 1    
    30   15   16 1    
    31   15  139 1    
    32   15  140 1    
    33   16   17 1    
    34   17   18 1    
    35   17  141 1    
    36   17  142 1    
    37   18   19 1    
    38   18   67 1    
    39   18  143 1    
    40   19   20 am   BACKBONE|DICT|INTERRES
    41   19  144 1    
    42   20   21 2    
    43   20   22 1    
    44   22   23 1    
    45   22   24 1    
    46   22  145 1    
    47   23  146 1    
    48   23  147 1    
    49   23  148 1    
    50   24   25 am   BACKBONE|DICT|INTERRES
    51   24  149 1    
    52   25   26 2    
    53   25   27 1    
    54   27   28 1    
    55   27   29 1    
    56   27  150 1    
    57   28  151 1    
    58   28  152 1    
    59   28  153 1    
    60   29   30 am   BACKBONE|DICT|INTERRES
    61   29  154 1    
    62   30   31 2    
    63   30   32 1    
    64   32   33 1    
    65   32   34 1    
    66   32  155 1    
    67   33  156 1    
    68   33  157 1    
    69   33  158 1    
    70   34   35 am   BACKBONE|DICT|INTERRES
    71   34  159 1    
    72   35   36 2    
    73   35   37 1    
    74   37   38 1    
    75   37   39 1    
    76   37  160 1    
    77   38  161 1    
    78   38  162 1    
    79   38  163 1    
    80   39   40 am   BACKBONE|DICT|INTERRES
    81   39  164 1    
    82   40   41 2    
    83   40   42 1    
    84   42   43 1    
    85   42   44 1    
    86   42  165 1    
    87   43  166 1    
    88   43  167 1    
    89   43  168 1    
    90   44   45 am   BACKBONE|DICT|INTERRES
    91   44  169 1    
    92   45   46 2    
    93   45   47 1    
    94   47   48 1    
    95   47   49 1    
    96   47  170 1    
    97   48  171 1    
    98   48  172 1    
    99   48  173 1    
   100   49   50 am   BACKBONE|DICT|INTERRES
   101   49  174 1    
   102   50   51 2    
   103   50   52 1    
   104   52   53 1    
   105   52   54 1    
   106   52  175 1    
   107   53  176 1    
   108   53  177 1    
   109   53  178 1    
   110   54   55 am   BACKBONE|DICT|INTERRES
   111   54  179 1    
   112   55   56 2    
   113   55   57 1    
   114   57   58 1    
   115   57   59 1    
   116   57  180 1    
   117   58  181 1    
   118   58  182 1    
   119   58  183 1    
   120   59   60 am   BACKBONE|DICT|INTERRES
   121   59  184 1    
   122   60   61 2    
   123   60   62 1    
   124   62   63 1    
   125   62   64 1    
   126   62  185 1    
   127   63  186 1    
   128   63  187 1    
   129   63  188 1    
   130   64   65 am   BACKBONE|DICT|INTERRES
   131   64  189 1    
   132   65   66 2    
   133   67   68 2    
   134   67   69 am   BACKBONE|DICT|INTERRES
   135   69   70 1    
   136   69  190 1    
   137   70   71 1    
   138   70   72 1    
   139   70  191 1    
   140   71  192 1    
   141   71  193 1    
   142   71  194 1    
   143   72   73 2    
   144   72   74 am   BACKBONE|DICT|INTERRES
   145   74   75 1    
   146   74  195 1    
   147   75   76 1    
   148   75   77 1    
   149   75  196 1    
   150   76  197 1    
   151   76  198 1    
   152   76  199 1    
   153   77   78 2    
   154   77   79 am   BACKBONE|DICT|INTERRES
   155   79   80 1    
   156   79  200 1    
   157   80   81 1    
   158   80   82 1    
   159   80  201 1    
   160   81  202 1    
   161   81  203 1    
   162   81  204 1    
   163   82   83 2    
   164   82   84 am   BACKBONE|DICT|INTERRES
   165   84   85 1    
   166   84  205 1    
   167   85   86 1    
   168   85   87 1    
   169   85  206 1    
   170   86  207 1    
   171   86  208 1    
   172   86  209 1    
   173   87   88 2    
   174   87   89 am   BACKBONE|DICT|INTERRES
   175   89   90 1    
   176   89  210 1    
   177   90   91 1    
   178   90   92 1    
   179   90  211 1    
   180   91  212 1    
   181   91  213 1    
   182   91  214 1    
   183   92   93 2    
   184   92   94 am   BACKBONE|DICT|INTERRES
   185   94   95 1    
   186   94  215 1    
   187   95   96 1    
   188   95   97 1    
   189   95  216 1    
   190   96  217 1    
   191   96  218 1    
   192   96  219 1    
   193   97   98 2    
   194   97   99 am   BACKBONE|DICT|INTERRES
   195   99  100 1    
   196   99  220 1    
   197  100  101 1    
   198  100  102 1    
   199  100  221 1    
   200  101  222 1    
   201  101  223 1    
   202  101  224 1    
   203  102  103 2    
   204  102  104 am   BACKBONE|DICT|INTERRES
   205  104  105 1    
   206  104  225 1    
   207  105  106 1    
   208  105  107 1    
   209  105  226 1    
   210  106  227 1    
   211  106  228 1    
   212  106  229 1    
   213  107  108 2    
   214  107  109 am   BACKBONE|DICT|INTERRES
   215  109  110 1    
   216  109  230 1    
   217  110  111 1    
   218  110  112 1    
   219  110  231 1    
   220  111  232 1    
   221  111  233 1    
   222  111  234 1    
   223  112  113 2    
   224  112  114 am   BACKBONE|DICT|INTERRES
   225  114  115 1    
   226  114  235 1    
   227  115  116 1    
   228  115  117 1    
   229  115  236 1    
   230  116  237 1    
   231  116  238 1    
   232  116  239 1    
   233  117  118 2    
   234  117  119 am   BACKBONE|DICT|INTERRES
   235  119  120 1    
   236  119  240 1    
   237  120  121 1    
   238  120  124 1    
   239  120  241 1    
   240  121  122 am   BACKBONE|DICT|INTERRES
   241  121  123 2    
   242  122  242 1    
   243  122  243 1    
   244  124  125 1    
   245  124  244 1    
   246  124  245 1    
   247  125  126 1    
   248  126  246 1    
   249  126  247 1    
@<TRIPOS>SUBSTRUCTURE
     1 UNK         1 GROUP             0       ****    0 ROOT    
