@<TRIPOS>MOLECULE
3R540
247   249    1
SMALL
USER_CHARGES


@<TRIPOS>ATOM
      1 CA          0.9120   -9.3815  -44.4023 C.3       0 UNK        -0.1800 
      2 C           0.5645  -10.7908  -44.8559 C.2       0 UNK         0.5000 
      3 O           0.7589  -11.7413  -44.0989 O.2       0 UNK        -0.5000 
      4 N           0.0380  -10.9303  -46.0798 N.am      1 UNK        -0.5000 
      5 CA         -0.2956  -12.2039  -46.7387 C.3       1 UNK         0.1400 
      6 C6         -0.7395  -11.9718  -48.2077 C.3       23 UNK        -0.0398 
      7 S7         -0.1299  -13.2567  -49.3487 S.3       23 UNK        -0.2404 
      8 C8         -1.6572  -14.2030  -49.6705 C.3       23 UNK        -0.0205 
      9 C9         -1.5305  -15.3155  -50.7150 C.ar      23 UNK        -0.0193 
     10 C10        -0.2998  -15.8760  -51.0894 C.ar      23 UNK        -0.1150 
     11 C11        -0.2353  -16.8818  -52.0588 C.ar      23 UNK        -0.0193 
     12 C12        -1.4155  -17.3381  -52.6495 C.ar      23 UNK        -0.1150 
     13 C13        -2.6520  -16.8176  -52.2650 C.ar      23 UNK        -0.0193 
     14 C14        -2.7006  -15.8048  -51.3036 C.ar      23 UNK        -0.1150 
     15 C15        -3.9313  -17.3433  -52.8996 C.3       23 UNK        -0.0205 
     16 S16        -4.3349  -19.0304  -52.3441 S.3       23 UNK        -0.2404 
     17 C17        -4.7676  -18.7583  -50.5897 C.3       23 UNK        -0.0398 
     18 CA         -4.4033  -19.9803  -49.7175 C.3       11 UNK         0.1400 
     19 N          -2.9762  -20.3107  -49.7833 N.am      11 UNK        -0.5000 
     20 C          -2.4439  -21.4567  -49.3406 C.2       10 UNK         0.5000 
     21 O          -3.1159  -22.3763  -48.8732 O.2       10 UNK        -0.5000 
     22 CA         -0.9076  -21.5623  -49.3528 C.3       10 UNK         0.1400 
     23 CB         -0.4184  -22.2686  -50.6194 C.3       10 UNK        -0.1800 
     24 N          -0.2193  -20.2744  -49.2285 N.am      10 UNK        -0.5000 
     25 C          -0.3158  -19.4486  -48.1809 C.2       9 UNK         0.5000 
     26 O          -1.0594  -19.6578  -47.2234 O.2       9 UNK        -0.5000 
     27 CA          0.5453  -18.1761  -48.2082 C.3       9 UNK         0.1400 
     28 CB         -0.2781  -16.9597  -47.7651 C.3       9 UNK        -0.1800 
     29 N           1.7016  -18.3023  -47.3285 N.am      9 UNK        -0.5000 
     30 C           2.7272  -19.1465  -47.5022 C.2       8 UNK         0.5000 
     31 O           2.8534  -19.8845  -48.4794 O.2       8 UNK        -0.5000 
     32 CA          3.7911  -19.1706  -46.3929 C.3       8 UNK         0.1400 
     33 CB          4.8263  -18.0560  -46.6139 C.3       8 UNK        -0.1800 
     34 N           3.1848  -19.0110  -45.0702 N.am      8 UNK        -0.5000 
     35 C           2.8245  -20.0248  -44.2706 C.2       7 UNK         0.5000 
     36 O           3.0075  -21.2101  -44.5492 O.2       7 UNK        -0.5000 
     37 CA          2.1631  -19.6669  -42.9233 C.3       7 UNK         0.1400 
     38 CB          3.2026  -19.6966  -41.7924 C.3       7 UNK        -0.1800 
     39 N           1.5155  -18.3552  -42.9327 N.am      7 UNK        -0.5000 
     40 C           0.3348  -18.0958  -43.5107 C.2       6 UNK         0.5000 
     41 O          -0.3814  -18.9616  -44.0070 O.2       6 UNK        -0.5000 
     42 CA         -0.1219  -16.6231  -43.5536 C.3       6 UNK         0.1400 
     43 CB         -1.1752  -16.3694  -42.4669 C.3       6 UNK        -0.1800 
     44 N           0.9689  -15.6443  -43.4327 N.am      6 UNK        -0.5000 
     45 C           1.9818  -15.5264  -44.3076 C.2       5 UNK         0.5000 
     46 O           2.1056  -16.2656  -45.2851 O.2       5 UNK        -0.5000 
     47 CA          3.0643  -14.4627  -44.0411 C.3       5 UNK         0.1400 
     48 CB          3.4159  -13.6725  -45.3123 C.3       5 UNK        -0.1800 
     49 N           2.6828  -13.5231  -42.9877 N.am      5 UNK        -0.5000 
     50 C           3.1711  -13.5272  -41.7415 C.2       4 UNK         0.5000 
     51 O           4.0022  -14.3403  -41.3351 O.2       4 UNK        -0.5000 
     52 CA          2.6401  -12.4495  -40.7746 C.3       4 UNK         0.1400 
     53 CB          3.5479  -11.2105  -40.8105 C.3       4 UNK        -0.1800 
     54 N           1.2574  -12.0266  -41.0157 N.am      4 UNK        -0.5000 
     55 C           0.1812  -12.8238  -40.9997 C.2       3 UNK         0.5000 
     56 O           0.2447  -14.0439  -40.8526 O.2       3 UNK        -0.5000 
     57 CA         -1.1937  -12.1621  -41.1841 C.3       3 UNK         0.1400 
     58 CB         -1.2057  -10.6420  -40.9237 C.3       3 UNK        -0.1800 
     59 N          -1.6669  -12.4237  -42.5393 N.am      3 UNK        -0.5000 
     60 C          -2.9102  -12.8041  -42.8627 C.2       2 UNK         0.5000 
     61 O          -3.7967  -12.9928  -42.0282 O.2       2 UNK        -0.5000 
     62 CA         -3.2335  -12.9971  -44.3600 C.3       2 UNK         0.1400 
     63 CB         -4.6034  -12.3979  -44.7249 C.3       2 UNK        -0.1800 
     64 N          -2.2197  -12.3878  -45.2222 N.am      2 UNK        -0.5000 
     65 C          -1.3263  -13.0565  -45.9619 C.2       1 UNK         0.5000 
     66 O          -1.2770  -14.2833  -46.0275 O.2       1 UNK        -0.5000 
     67 C          -4.9169  -19.8159  -48.2671 C.2       11 UNK         0.5000 
     68 O          -6.1183  -19.9595  -48.0421 O.2       11 UNK        -0.5000 
     69 N          -4.0117  -19.5595  -47.3119 N.am      12 UNK        -0.5000 
     70 CA         -4.2921  -19.5620  -45.8796 C.3       12 UNK         0.1400 
     71 CB         -3.6256  -18.3409  -45.2238 C.3       12 UNK        -0.1800 
     72 C          -3.8075  -20.8780  -45.2468 C.2       12 UNK         0.5000 
     73 O          -4.5997  -21.5629  -44.5998 O.2       12 UNK        -0.5000 
     74 N          -2.5305  -21.2249  -45.4649 N.am      13 UNK        -0.5000 
     75 CA         -1.8314  -22.3483  -44.8333 C.3       13 UNK         0.1400 
     76 CB         -0.3419  -22.3015  -45.2076 C.3       13 UNK        -0.1800 
     77 C          -2.4152  -23.7334  -45.1638 C.2       13 UNK         0.5000 
     78 O          -2.4643  -24.5905  -44.2808 O.2       13 UNK        -0.5000 
     79 N          -2.8579  -23.9226  -46.4131 N.am      14 UNK        -0.5000 
     80 CA         -3.5206  -25.1373  -46.8926 C.3       14 UNK         0.1400 
     81 CB         -2.8066  -25.6372  -48.1630 C.3       14 UNK        -0.1800 
     82 C          -5.0189  -24.8874  -47.1474 C.2       14 UNK         0.5000 
     83 O          -5.6584  -25.6968  -47.8192 O.2       14 UNK        -0.5000 
     84 N          -5.5518  -23.7601  -46.6459 N.am      15 UNK        -0.5000 
     85 CA         -6.9486  -23.3121  -46.7365 C.3       15 UNK         0.1400 
     86 CB         -7.8367  -24.1811  -45.8230 C.3       15 UNK        -0.1800 
     87 C          -7.4949  -23.2264  -48.1802 C.2       15 UNK         0.5000 
     88 O          -8.6981  -23.3854  -48.3920 O.2       15 UNK        -0.5000 
     89 N          -6.5895  -23.0057  -49.1456 N.am      16 UNK        -0.5000 
     90 CA         -6.8199  -22.9738  -50.5924 C.3       16 UNK         0.1400 
     91 CB         -7.7877  -21.8369  -50.9840 C.3       16 UNK        -0.1800 
     92 C          -7.2088  -24.3370  -51.2047 C.2       16 UNK         0.5000 
     93 O          -7.6546  -24.3733  -52.3521 O.2       16 UNK        -0.5000 
     94 N          -6.9732  -25.4436  -50.4802 N.am      17 UNK        -0.5000 
     95 CA         -7.0627  -26.8051  -51.0216 C.3       17 UNK         0.1400 
     96 CB         -7.1070  -27.8190  -49.8688 C.3       17 UNK        -0.1800 
     97 C          -5.8897  -27.1147  -51.9739 C.2       17 UNK         0.5000 
     98 O          -6.0464  -27.9044  -52.9054 O.2       17 UNK        -0.5000 
     99 N          -4.7537  -26.4483  -51.7372 N.am      18 UNK        -0.5000 
    100 CA        -3.5792  -26.4044  -52.5988 C.3       18 UNK         0.1400 
    101 CB        -2.4295  -27.1839  -51.9342 C.3       18 UNK        -0.1800 
    102 C         -3.2427  -24.9242  -52.8412 C.2       18 UNK         0.5000 
    103 O         -2.1680  -24.4598  -52.4631 O.2       18 UNK        -0.5000 
    104 N         -4.2036  -24.1855  -53.4146 N.am      19 UNK        -0.5000 
    105 CA        -4.0966  -22.7548  -53.7081 C.3       19 UNK         0.1400 
    106 CB        -5.4026  -22.2692  -54.3539 C.3       19 UNK        -0.1800 
    107 C         -2.8978  -22.4241  -54.6170 C.2       19 UNK         0.5000 
    108 O         -2.6688  -23.1233  -55.6064 O.2       19 UNK        -0.5000 
    109 N         -2.1673  -21.3632  -54.2516 N.am      20 UNK        -0.5000 
    110 CA        -0.9836  -20.8234  -54.9297 C.3       20 UNK         0.1400 
    111 CB        -1.3354  -20.3144  -56.3426 C.3       20 UNK        -0.1800 
    112 C          0.2609  -21.7370  -54.9206 C.2       20 UNK         0.5000 
    113 O          1.2413  -21.4153  -55.5936 O.2       20 UNK        -0.5000 
    114 N          0.2630  -22.8071  -54.1115 N.am      21 UNK        -0.5000 
    115 CA         1.4163  -23.6855  -53.8751 C.3       21 UNK         0.1400 
    116 CB         0.9072  -25.0716  -53.4408 C.3       21 UNK        -0.1800 
    117 C          2.4102  -23.0753  -52.8577 C.2       21 UNK         0.5000 
    118 O          2.8677  -23.7628  -51.9435 O.2       21 UNK        -0.5000 
    119 N          2.6955  -21.7783  -53.0142 N.am      22 UNK        -0.5000 
    120 CA         3.4831  -20.9455  -52.0912 C.3       22 UNK         0.1400 
    121 C          5.0260  -21.1149  -52.2189 C.2       22 UNK         0.5000 
    122 N          5.5390  -21.8614  -53.1895 N.am      22 UNK        -0.7600 
    123 O          5.7752  -20.5624  -51.4184 O.2       22 UNK        -0.5000 
    124 C124        3.0776  -19.4516  -52.2003 C.3       23 UNK        -0.0398 
    125 S125        1.2980  -19.1786  -51.9014 S.3       23 UNK        -0.2404 
    126 C126        1.1067  -17.4654  -52.4787 C.3       23 UNK        -0.0205 
    127 H127        1.8985   -9.3697  -43.9387 H         1 UNK         0.0600 
    128 H128        0.1848   -9.0310  -43.6708 H         1 UNK         0.0600 
    129 H129        0.9222   -8.6808  -45.2374 H         1 UNK         0.0600 
    130 H130       -0.1079  -10.1012  -46.6381 H         1 UNK         0.3000 
    131 H131        0.6294  -12.7811  -46.7504 H         1 UNK         0.0600 
    132 H132       -1.8217  -11.8568  -48.2954 H         1 UNK         0.0800 
    133 H133       -0.3246  -11.0349  -48.5821 H         1 UNK         0.0800 
    134 H134       -2.4266  -13.5016  -49.9971 H         1 UNK         0.0800 
    135 H135       -2.0095  -14.6368  -48.7341 H         1 UNK         0.0800 
    136 H136        0.6168  -15.5329  -50.6330 H         1 UNK         0.1150 
    137 H137       -1.3767  -18.1072  -53.4040 H         1 UNK         0.1150 
    138 H138       -3.6566  -15.3927  -51.0119 H         1 UNK         0.1150 
    139 H139       -4.7733  -16.6825  -52.6875 H         1 UNK         0.0800 
    140 H140       -3.8144  -17.3494  -53.9842 H         1 UNK         0.0800 
    141 H141       -5.8390  -18.5557  -50.5405 H         1 UNK         0.0800 
    142 H142       -4.2683  -17.8660  -50.2115 H         1 UNK         0.0800 
    143 H143       -4.9401  -20.8336  -50.1296 H         1 UNK         0.0600 
    144 H144       -2.3623  -19.5996  -50.1528 H         1 UNK         0.3000 
    145 H145       -0.6174  -22.1731  -48.4978 H         1 UNK         0.0600 
    146 H146        0.6684  -22.3423  -50.6279 H         1 UNK         0.0600 
    147 H147       -0.8074  -23.2851  -50.6641 H         1 UNK         0.0600 
    148 H148       -0.7304  -21.7458  -51.5238 H         1 UNK         0.0600 
    149 H149        0.4254  -20.0358  -49.9721 H         1 UNK         0.3000 
    150 H150        0.8978  -17.9990  -49.2249 H         1 UNK         0.0600 
    151 H151       -1.1877  -16.8701  -48.3579 H         1 UNK         0.0600 
    152 H152        0.2864  -16.0340  -47.8774 H         1 UNK         0.0600 
    153 H153       -0.5830  -17.0387  -46.7225 H         1 UNK         0.0600 
    154 H154        1.7093  -17.6954  -46.5149 H         1 UNK         0.3000 
    155 H155        4.3138  -20.1278  -46.4501 H         1 UNK         0.0600 
    156 H156        5.3123  -18.1643  -47.5844 H         1 UNK         0.0600 
    157 H157        5.6069  -18.0878  -45.8538 H         1 UNK         0.0600 
    158 H158        4.3706  -17.0657  -46.5848 H         1 UNK         0.0600 
    159 H159        2.9395  -18.0653  -44.8040 H         1 UNK         0.3000 
    160 H160        1.4090  -20.4286  -42.7128 H         1 UNK         0.0600 
    161 H161        3.9821  -18.9483  -41.9417 H         1 UNK         0.0600 
    162 H162        3.6896  -20.6710  -41.7350 H         1 UNK         0.0600 
    163 H163        2.7377  -19.5098  -40.8242 H         1 UNK         0.0600 
    164 H164        2.0271  -17.5881  -42.5224 H         1 UNK         0.3000 
    165 H165       -0.5993  -16.4613  -44.5202 H         1 UNK         0.0600 
    166 H166       -1.5713  -15.3582  -42.5321 H         1 UNK         0.0600 
    167 H167       -2.0185  -17.0532  -42.5717 H         1 UNK         0.0600 
    168 H168       -0.7624  -16.5073  -41.4671 H         1 UNK         0.0600 
    169 H169        0.9339  -15.0249  -42.6309 H         1 UNK         0.3000 
    170 H170        3.9601  -15.0135  -43.7483 H         1 UNK         0.0600 
    171 H171        3.7235  -14.3355  -46.1219 H         1 UNK         0.0600 
    172 H172        2.5713  -13.0871  -45.6684 H         1 UNK         0.0600 
    173 H173        4.2411  -12.9846  -45.1283 H         1 UNK         0.0600 
    174 H174        1.9840  -12.8278  -43.2438 H         1 UNK         0.3000 
    175 H175        2.6793  -12.8719  -39.7686 H         1 UNK         0.0600 
    176 H176        3.5168  -10.7195  -41.7842 H         1 UNK         0.0600 
    177 H177        3.2522  -10.4813  -40.0560 H         1 UNK         0.0600 
    178 H178        4.5861  -11.4792  -40.6110 H         1 UNK         0.0600 
    179 H179        1.1156  -11.0408  -41.1779 H         1 UNK         0.3000 
    180 H180       -1.8533  -12.6346  -40.4533 H         1 UNK         0.0600 
    181 H181       -2.2222  -10.2507  -40.9690 H         1 UNK         0.0600 
    182 H182       -0.6124  -10.0953  -41.6562 H         1 UNK         0.0600 
    183 H183       -0.8168  -10.4082  -39.9317 H         1 UNK         0.0600 
    184 H184       -0.9678  -12.3339  -43.2697 H         1 UNK         0.3000 
    185 H185       -3.2827  -14.0745  -44.5312 H         1 UNK         0.0600 
    186 H186       -4.6406  -11.3270  -44.5216 H         1 UNK         0.0600 
    187 H187       -4.8284  -12.5469  -45.7811 H         1 UNK         0.0600 
    188 H188       -5.4058  -12.8697  -44.1564 H         1 UNK         0.0600 
    189 H189       -2.1699  -11.3789  -45.2089 H         1 UNK         0.3000 
    190 H190       -3.0315  -19.4988  -47.5647 H         1 UNK         0.3000 
    191 H191       -5.3664  -19.4850  -45.6989 H         1 UNK         0.0600 
    192 H192       -3.7632  -18.3523  -44.1419 H         1 UNK         0.0600 
    193 H193       -4.0562  -17.4121  -45.5979 H         1 UNK         0.0600 
    194 H194       -2.5539  -18.3076  -45.4182 H         1 UNK         0.0600 
    195 H195       -1.9465  -20.5960  -46.0153 H         1 UNK         0.3000 
    196 H196       -1.9105  -22.2071  -43.7535 H         1 UNK         0.0600 
    197 H197       -0.1864  -22.4609  -46.2734 H         1 UNK         0.0600 
    198 H198        0.2200  -23.0704  -44.6761 H         1 UNK         0.0600 
    199 H199        0.1026  -21.3416  -44.9507 H         1 UNK         0.0600 
    200 H200       -2.8035  -23.1647  -47.0865 H         1 UNK         0.3000 
    201 H201       -3.4597  -25.9294  -46.1442 H         1 UNK         0.0600 
    202 H202       -2.9219  -24.9470  -48.9984 H         1 UNK         0.0600 
    203 H203       -3.2056  -26.6009  -48.4818 H         1 UNK         0.0600 
    204 H204       -1.7395  -25.7732  -47.9875 H         1 UNK         0.0600 
    205 H205       -4.9474  -23.1642  -46.0937 H         1 UNK         0.3000 
    206 H206       -6.9668  -22.2930  -46.3475 H         1 UNK         0.0600 
    207 H207       -7.4455  -24.2099  -44.8060 H         1 UNK         0.0600 
    208 H208       -8.8512  -23.7850  -45.7662 H         1 UNK         0.0600 
    209 H209       -7.9044  -25.2074  -46.1859 H         1 UNK         0.0600 
    210 H210       -5.6252  -22.9130  -48.8546 H         1 UNK         0.3000 
    211 H211       -5.8521  -22.7396  -51.0358 H         1 UNK         0.0600 
    212 H212       -7.8169  -21.6967  -52.0644 H         1 UNK         0.0600 
    213 H213       -7.4812  -20.8876  -50.5449 H         1 UNK         0.0600 
    214 H214       -8.8078  -22.0418  -50.6593 H         1 UNK         0.0600 
    215 H215       -6.6166  -25.3579  -49.5327 H         1 UNK         0.3000 
    216 H216       -7.9917  -26.8939  -51.5887 H         1 UNK         0.0600 
    217 H217       -6.1720  -27.8351  -49.3081 H         1 UNK         0.0600 
    218 H218       -7.2772  -28.8279  -50.2465 H         1 UNK         0.0600 
    219 H219       -7.9133  -27.5909  -49.1714 H         1 UNK         0.0600 
    220 H220       -4.7382  -25.8170  -50.9495 H         1 UNK         0.3000 
    221 H221       -3.7912  -26.8543  -53.5708 H         1 UNK         0.0600 
    222 H222       -2.7006  -28.2284  -51.7810 H         1 UNK         0.0600 
    223 H223       -2.1624  -26.7620  -50.9646 H         1 UNK         0.0600 
    224 H224       -1.5351  -27.1668  -52.5582 H         1 UNK         0.0600 
    225 H225       -5.0586  -24.6405  -53.7003 H         1 UNK         0.3000 
    226 H226       -3.9701  -22.2370  -52.7548 H         1 UNK         0.0600 
    227 H227       -5.5918  -22.7713  -55.3035 H         1 UNK         0.0600 
    228 H228       -6.2584  -22.4486  -53.7058 H         1 UNK         0.0600 
    229 H229       -5.3657  -21.1969  -54.5508 H         1 UNK         0.0600 
    230 H230       -2.4538  -20.8546  -53.4267 H         1 UNK         0.3000 
    231 H231       -0.6835  -19.9562  -54.3444 H         1 UNK         0.0600 
    232 H232       -1.5757  -21.1328  -57.0215 H         1 UNK         0.0600 
    233 H233       -0.5021  -19.7637  -56.7805 H         1 UNK         0.0600 
    234 H234       -2.1892  -19.6373  -56.3157 H         1 UNK         0.0600 
    235 H235       -0.5701  -23.0163  -53.5769 H         1 UNK         0.3000 
    236 H236        1.9579  -23.8152  -54.8143 H         1 UNK         0.0600 
    237 H237        0.1829  -25.4693  -54.1520 H         1 UNK         0.0600 
    238 H238        1.7272  -25.7876  -53.3774 H         1 UNK         0.0600 
    239 H239        0.4292  -25.0342  -52.4613 H         1 UNK         0.0600 
    240 H240        2.3008  -21.3053  -53.8180 H         1 UNK         0.3000 
    241 H241        3.2404  -21.2686  -51.0767 H         1 UNK         0.0600 
    242 H242        6.5390  -21.9674  -53.2605 H         1 UNK         0.3800 
    243 H243        4.9365  -22.3240  -53.8511 H         1 UNK         0.3800 
    244 H244        3.3352  -19.0604  -53.1860 H         1 UNK         0.0800 
    245 H245        3.6291  -18.8525  -51.4733 H         1 UNK         0.0800 
    246 H246        1.1936  -17.4377  -53.5659 H         1 UNK         0.0800 
    247 H247        1.9244  -16.8593  -52.0856 H         1 UNK         0.0800 
@<TRIPOS>BOND
     1    1    2 1    
     2    1  127 1    
     3    1  128 1    
     4    1  129 1    
     5    2    3 2    
     6    2    4 am   BACKBONE|DICT|INTERRES
     7    4    5 1    
     8    4  130 1    
     9    5    6 1    
    10    5   65 1    
    11    5  131 1    
    12    6    7 1    
    13    6  132 1    
    14    6  133 1    
    15    7    8 1    
    16    8    9 1    
    17    8  134 1    
    18    8  135 1    
    19    9   10 ar   
    20    9   14 ar   
    21   10   11 ar   
    22   10  136 1    
    23   11   12 ar   
    24   11  126 1    
    25   12   13 ar   
    26   12  137 1    
    27   13   14 ar   
    28   13   15 1    
    29   14  138 1    
    30   15   16 1    
    31   15  139 1    
    32   15  140 1    
    33   16   17 1    
    34   17   18 1    
    35   17  141 1    
    36   17  142 1    
    37   18   19 1    
    38   18   67 1    
    39   18  143 1    
    40   19   20 am   BACKBONE|DICT|INTERRES
    41   19  144 1    
    42   20   21 2    
    43   20   22 1    
    44   22   23 1    
    45   22   24 1    
    46   22  145 1    
    47   23  146 1    
    48   23  147 1    
    49   23  148 1    
    50   24   25 am   BACKBONE|DICT|INTERRES
    51   24  149 1    
    52   25   26 2    
    53   25   27 1    
    54   27   28 1    
    55   27   29 1    
    56   27  150 1    
    57   28  151 1    
    58   28  152 1    
    59   28  153 1    
    60   29   30 am   BACKBONE|DICT|INTERRES
    61   29  154 1    
    62   30   31 2    
    63   30   32 1    
    64   32   33 1    
    65   32   34 1    
    66   32  155 1    
    67   33  156 1    
    68   33  157 1    
    69   33  158 1    
    70   34   35 am   BACKBONE|DICT|INTERRES
    71   34  159 1    
    72   35   36 2    
    73   35   37 1    
    74   37   38 1    
    75   37   39 1    
    76   37  160 1    
    77   38  161 1    
    78   38  162 1    
    79   38  163 1    
    80   39   40 am   BACKBONE|DICT|INTERRES
    81   39  164 1    
    82   40   41 2    
    83   40   42 1    
    84   42   43 1    
    85   42   44 1    
    86   42  165 1    
    87   43  166 1    
    88   43  167 1    
    89   43  168 1    
    90   44   45 am   BACKBONE|DICT|INTERRES
    91   44  169 1    
    92   45   46 2    
    93   45   47 1    
    94   47   48 1    
    95   47   49 1    
    96   47  170 1    
    97   48  171 1    
    98   48  172 1    
    99   48  173 1    
   100   49   50 am   BACKBONE|DICT|INTERRES
   101   49  174 1    
   102   50   51 2    
   103   50   52 1    
   104   52   53 1    
   105   52   54 1    
   106   52  175 1    
   107   53  176 1    
   108   53  177 1    
   109   53  178 1    
   110   54   55 am   BACKBONE|DICT|INTERRES
   111   54  179 1    
   112   55   56 2    
   113   55   57 1    
   114   57   58 1    
   115   57   59 1    
   116   57  180 1    
   117   58  181 1    
   118   58  182 1    
   119   58  183 1    
   120   59   60 am   BACKBONE|DICT|INTERRES
   121   59  184 1    
   122   60   61 2    
   123   60   62 1    
   124   62   63 1    
   125   62   64 1    
   126   62  185 1    
   127   63  186 1    
   128   63  187 1    
   129   63  188 1    
   130   64   65 am   BACKBONE|DICT|INTERRES
   131   64  189 1    
   132   65   66 2    
   133   67   68 2    
   134   67   69 am   BACKBONE|DICT|INTERRES
   135   69   70 1    
   136   69  190 1    
   137   70   71 1    
   138   70   72 1    
   139   70  191 1    
   140   71  192 1    
   141   71  193 1    
   142   71  194 1    
   143   72   73 2    
   144   72   74 am   BACKBONE|DICT|INTERRES
   145   74   75 1    
   146   74  195 1    
   147   75   76 1    
   148   75   77 1    
   149   75  196 1    
   150   76  197 1    
   151   76  198 1    
   152   76  199 1    
   153   77   78 2    
   154   77   79 am   BACKBONE|DICT|INTERRES
   155   79   80 1    
   156   79  200 1    
   157   80   81 1    
   158   80   82 1    
   159   80  201 1    
   160   81  202 1    
   161   81  203 1    
   162   81  204 1    
   163   82   83 2    
   164   82   84 am   BACKBONE|DICT|INTERRES
   165   84   85 1    
   166   84  205 1    
   167   85   86 1    
   168   85   87 1    
   169   85  206 1    
   170   86  207 1    
   171   86  208 1    
   172   86  209 1    
   173   87   88 2    
   174   87   89 am   BACKBONE|DICT|INTERRES
   175   89   90 1    
   176   89  210 1    
   177   90   91 1    
   178   90   92 1    
   179   90  211 1    
   180   91  212 1    
   181   91  213 1    
   182   91  214 1    
   183   92   93 2    
   184   92   94 am   BACKBONE|DICT|INTERRES
   185   94   95 1    
   186   94  215 1    
   187   95   96 1    
   188   95   97 1    
   189   95  216 1    
   190   96  217 1    
   191   96  218 1    
   192   96  219 1    
   193   97   98 2    
   194   97   99 am   BACKBONE|DICT|INTERRES
   195   99  100 1    
   196   99  220 1    
   197  100  101 1    
   198  100  102 1    
   199  100  221 1    
   200  101  222 1    
   201  101  223 1    
   202  101  224 1    
   203  102  103 2    
   204  102  104 am   BACKBONE|DICT|INTERRES
   205  104  105 1    
   206  104  225 1    
   207  105  106 1    
   208  105  107 1    
   209  105  226 1    
   210  106  227 1    
   211  106  228 1    
   212  106  229 1    
   213  107  108 2    
   214  107  109 am   BACKBONE|DICT|INTERRES
   215  109  110 1    
   216  109  230 1    
   217  110  111 1    
   218  110  112 1    
   219  110  231 1    
   220  111  232 1    
   221  111  233 1    
   222  111  234 1    
   223  112  113 2    
   224  112  114 am   BACKBONE|DICT|INTERRES
   225  114  115 1    
   226  114  235 1    
   227  115  116 1    
   228  115  117 1    
   229  115  236 1    
   230  116  237 1    
   231  116  238 1    
   232  116  239 1    
   233  117  118 2    
   234  117  119 am   BACKBONE|DICT|INTERRES
   235  119  120 1    
   236  119  240 1    
   237  120  121 1    
   238  120  124 1    
   239  120  241 1    
   240  121  122 am   BACKBONE|DICT|INTERRES
   241  121  123 2    
   242  122  242 1    
   243  122  243 1    
   244  124  125 1    
   245  124  244 1    
   246  124  245 1    
   247  125  126 1    
   248  126  246 1    
   249  126  247 1    
@<TRIPOS>SUBSTRUCTURE
     1 UNK         1 GROUP             0       ****    0 ROOT    
