@<TRIPOS>MOLECULE
3R540
247   249    1
SMALL
USER_CHARGES


@<TRIPOS>ATOM
      1 CA          4.0715   -9.4318  -46.9923 C.3       0 UNK        -0.1800 
      2 C           2.9460  -10.4346  -47.1928 C.2       0 UNK         0.5000 
      3 O           2.0817  -10.5719  -46.3262 O.2       0 UNK        -0.5000 
      4 N           2.9319  -11.1281  -48.3389 N.am      1 UNK        -0.5000 
      5 CA          1.9665  -12.1849  -48.6800 C.3       1 UNK         0.1400 
      6 C6          2.4030  -13.0251  -49.8975 C.3       23 UNK        -0.0398 
      7 S7          3.9891  -13.8799  -49.5963 S.3       23 UNK        -0.2404 
      8 C8          3.4252  -15.4463  -48.8339 C.3       23 UNK        -0.0205 
      9 C9          2.7285  -16.4474  -49.7598 C.ar      23 UNK        -0.0193 
     10 C10         2.4904  -16.1960  -51.1174 C.ar      23 UNK        -0.1150 
     11 C11         1.8200  -17.1249  -51.9144 C.ar      23 UNK        -0.0193 
     12 C12         1.4103  -18.3385  -51.3594 C.ar      23 UNK        -0.1150 
     13 C13         1.6688  -18.6227  -50.0159 C.ar      23 UNK        -0.0193 
     14 C14         2.3154  -17.6708  -49.2215 C.ar      23 UNK        -0.1150 
     15 C15         1.2826  -19.9715  -49.4337 C.3       23 UNK        -0.0205 
     16 S16        -0.2153  -19.8621  -48.4087 S.3       23 UNK        -0.2404 
     17 C17         0.3707  -20.5464  -46.8260 C.3       23 UNK        -0.0398 
     18 CA          0.2282  -22.0837  -46.7075 C.3       11 UNK         0.1400 
     19 N           1.0331  -22.5576  -45.5831 N.am      11 UNK        -0.5000 
     20 C           1.3491  -23.8297  -45.3117 C.2       10 UNK         0.5000 
     21 O           1.0280  -24.7871  -46.0153 O.2       10 UNK        -0.5000 
     22 CA          2.1164  -24.0531  -43.9922 C.3       10 UNK         0.1400 
     23 CB          3.6306  -23.9483  -44.2237 C.3       10 UNK        -0.1800 
     24 N           1.7213  -23.1023  -42.9458 N.am      10 UNK        -0.5000 
     25 C           0.4932  -23.0196  -42.4185 C.2       9 UNK         0.5000 
     26 O          -0.4283  -23.7692  -42.7336 O.2       9 UNK        -0.5000 
     27 CA          0.2113  -21.8678  -41.4456 C.3       9 UNK         0.1400 
     28 CB          0.7798  -22.1463  -40.0414 C.3       9 UNK        -0.1800 
     29 N           0.6148  -20.5584  -41.9684 N.am      9 UNK        -0.5000 
     30 C           1.8424  -20.0322  -42.0951 C.2       8 UNK         0.5000 
     31 O           2.8746  -20.6608  -41.8577 O.2       8 UNK        -0.5000 
     32 CA          1.9498  -18.5696  -42.5904 C.3       8 UNK         0.1400 
     33 CB          2.6975  -18.5073  -43.9326 C.3       8 UNK        -0.1800 
     34 N           0.6641  -17.8784  -42.7380 N.am      8 UNK        -0.5000 
     35 C          -0.1818  -17.5671  -41.7455 C.2       7 UNK         0.5000 
     36 O           0.0841  -17.7246  -40.5536 O.2       7 UNK        -0.5000 
     37 CA         -1.5789  -17.0441  -42.1399 C.3       7 UNK         0.1400 
     38 CB         -1.6459  -15.5200  -41.9809 C.3       7 UNK        -0.1800 
     39 N          -2.0252  -17.4032  -43.4915 N.am      7 UNK        -0.5000 
     40 C          -2.1794  -18.6409  -43.9822 C.2       6 UNK         0.5000 
     41 O          -1.8699  -19.6591  -43.3629 O.2       6 UNK        -0.5000 
     42 CA         -2.7253  -18.7701  -45.4214 C.3       6 UNK         0.1400 
     43 CB         -4.2528  -18.5783  -45.4689 C.3       6 UNK        -0.1800 
     44 N          -2.0209  -17.9177  -46.3911 N.am      6 UNK        -0.5000 
     45 C          -2.0153  -16.5814  -46.4751 C.2       5 UNK         0.5000 
     46 O          -2.7590  -15.8453  -45.8232 O.2       5 UNK        -0.5000 
     47 CA         -0.9341  -15.9618  -47.3827 C.3       5 UNK         0.1400 
     48 CB         -1.5322  -15.4863  -48.7135 C.3       5 UNK        -0.1800 
     49 N          -0.2505  -14.8572  -46.6968 N.am      5 UNK        -0.5000 
     50 C           0.4672  -15.0300  -45.5744 C.2       4 UNK         0.5000 
     51 O           0.7107  -16.1432  -45.1069 O.2       4 UNK        -0.5000 
     52 CA          1.0001  -13.7937  -44.8232 C.3       4 UNK         0.1400 
     53 CB          2.5281  -13.6816  -44.9546 C.3       4 UNK        -0.1800 
     54 N           0.3714  -12.5183  -45.1819 N.am      4 UNK        -0.5000 
     55 C          -0.8440  -12.1341  -44.7593 C.2       3 UNK         0.5000 
     56 O          -1.6131  -12.8703  -44.1434 O.2       3 UNK        -0.5000 
     57 CA         -1.2701  -10.6811  -45.0370 C.3       3 UNK         0.1400 
     58 CB         -0.6647   -9.7376  -43.9856 C.3       3 UNK        -0.1800 
     59 N          -0.8491  -10.2454  -46.3652 N.am      3 UNK        -0.5000 
     60 C          -1.6725  -10.0061  -47.3962 C.2       2 UNK         0.5000 
     61 O          -2.9012  -10.0147  -47.3120 O.2       2 UNK        -0.5000 
     62 CA         -1.0133   -9.7379  -48.7681 C.3       2 UNK         0.1400 
     63 CB         -0.8628   -8.2281  -49.0079 C.3       2 UNK        -0.1800 
     64 N           0.2978  -10.3768  -48.9109 N.am      2 UNK        -0.5000 
     65 C           0.5112  -11.6975  -48.8245 C.2       1 UNK         0.5000 
     66 O          -0.3971  -12.5246  -48.7722 O.2       1 UNK        -0.5000 
     67 C          -1.2455  -22.5491  -46.5999 C.2       11 UNK         0.5000 
     68 O          -1.8523  -22.8961  -47.6144 O.2       11 UNK        -0.5000 
     69 N          -1.7838  -22.5833  -45.3705 N.am      12 UNK        -0.5000 
     70 CA         -3.1194  -23.1029  -45.0717 C.3       12 UNK         0.1400 
     71 CB         -3.6315  -22.5085  -43.7517 C.3       12 UNK        -0.1800 
     72 C          -3.1469  -24.6401  -45.0184 C.2       12 UNK         0.5000 
     73 O          -4.1064  -25.2400  -45.5012 O.2       12 UNK        -0.5000 
     74 N          -2.0924  -25.2524  -44.4583 N.am      13 UNK        -0.5000 
     75 CA         -1.9324  -26.7026  -44.2991 C.3       13 UNK         0.1400 
     76 CB         -0.6431  -26.9977  -43.5196 C.3       13 UNK        -0.1800 
     77 C          -1.9448  -27.4847  -45.6253 C.2       13 UNK         0.5000 
     78 O          -2.3752  -28.6382  -45.6438 O.2       13 UNK        -0.5000 
     79 N          -1.5458  -26.8291  -46.7229 N.am      14 UNK        -0.5000 
     80 CA         -1.6481  -27.3057  -48.1046 C.3       14 UNK         0.1400 
     81 CB         -0.6724  -26.4828  -48.9661 C.3       14 UNK        -0.1800 
     82 C          -3.0966  -27.2570  -48.6527 C.2       14 UNK         0.5000 
     83 O          -3.3075  -26.8284  -49.7880 O.2       14 UNK        -0.5000 
     84 N          -4.0781  -27.6503  -47.8247 N.am      15 UNK        -0.5000 
     85 CA         -5.5304  -27.6555  -48.0620 C.3       15 UNK         0.1400 
     86 CB         -5.8901  -28.7628  -49.0737 C.3       15 UNK        -0.1800 
     87 C          -6.1077  -26.2799  -48.4716 C.2       15 UNK         0.5000 
     88 O          -7.1221  -26.2213  -49.1680 O.2       15 UNK        -0.5000 
     89 N          -5.4113  -25.2029  -48.0773 N.am      16 UNK        -0.5000 
     90 CA         -5.5624  -23.8060  -48.5010 C.3       16 UNK         0.1400 
     91 CB         -6.8863  -23.2170  -47.9774 C.3       16 UNK        -0.1800 
     92 C          -5.3800  -23.5676  -50.0183 C.2       16 UNK         0.5000 
     93 O          -5.6264  -22.4552  -50.4854 O.2       16 UNK        -0.5000 
     94 N          -4.9301  -24.5838  -50.7690 N.am      17 UNK        -0.5000 
     95 CA         -4.7768  -24.5409  -52.2213 C.3       17 UNK         0.1400 
     96 CB         -4.5953  -25.9651  -52.7660 C.3       17 UNK        -0.1800 
     97 C          -3.6119  -23.6392  -52.6480 C.2       17 UNK         0.5000 
     98 O          -3.7291  -22.9352  -53.6486 O.2       17 UNK        -0.5000 
     99 N          -2.5313  -23.6382  -51.8550 N.am      18 UNK        -0.5000 
    100 CA        -1.3721  -22.7669  -52.0456 C.3       18 UNK         0.1400 
    101 CB        -0.2456  -23.2078  -51.0994 C.3       18 UNK        -0.1800 
    102 C         -1.7226  -21.2806  -51.8425 C.2       18 UNK         0.5000 
    103 O         -1.2342  -20.4346  -52.5911 O.2       18 UNK        -0.5000 
    104 N         -2.5978  -21.0007  -50.8655 N.am      19 UNK        -0.5000 
    105 CA        -3.1377  -19.6690  -50.5987 C.3       19 UNK         0.1400 
    106 CB        -3.8327  -19.6535  -49.2267 C.3       19 UNK        -0.1800 
    107 C         -4.1010  -19.2159  -51.7089 C.2       19 UNK         0.5000 
    108 O         -3.9834  -18.0892  -52.1883 O.2       19 UNK        -0.5000 
    109 N         -5.0133  -20.1107  -52.1169 N.am      20 UNK        -0.5000 
    110 CA        -6.0050  -19.8766  -53.1693 C.3       20 UNK         0.1400 
    111 CB        -7.0006  -21.0458  -53.1978 C.3       20 UNK        -0.1800 
    112 C         -5.3876  -19.6598  -54.5642 C.2       20 UNK         0.5000 
    113 O         -5.9172  -18.8661  -55.3426 O.2       20 UNK        -0.5000 
    114 N         -4.2792  -20.3553  -54.8524 N.am      21 UNK        -0.5000 
    115 CA        -3.5098  -20.2241  -56.0908 C.3       21 UNK         0.1400 
    116 CB        -2.5510  -21.4182  -56.2172 C.3       21 UNK        -0.1800 
    117 C         -2.7269  -18.9008  -56.1937 C.2       21 UNK         0.5000 
    118 O         -2.3724  -18.5020  -57.3043 O.2       21 UNK        -0.5000 
    119 N         -2.4543  -18.2543  -55.0530 N.am      22 UNK        -0.5000 
    120 CA        -1.7702  -16.9591  -54.9753 C.3       22 UNK         0.1400 
    121 C         -2.6488  -15.7910  -55.5084 C.2       22 UNK         0.5000 
    122 N         -2.0747  -14.8675  -56.2677 N.am      22 UNK        -0.7600 
    123 O         -3.8380  -15.6960  -55.2142 O.2       22 UNK        -0.5000 
    124 C124       -1.2541  -16.6852  -53.5393 C.3       23 UNK        -0.0398 
    125 S125        0.2094  -15.5960  -53.5567 S.3       23 UNK        -0.2404 
    126 C126        1.5583  -16.8044  -53.3767 C.3       23 UNK        -0.0205 
    127 H127        4.7527   -9.4118  -47.8431 H         1 UNK         0.0600 
    128 H128        4.6452   -9.6882  -46.1018 H         1 UNK         0.0600 
    129 H129        3.6615   -8.4307  -46.8589 H         1 UNK         0.0600 
    130 H130        3.6673  -10.9777  -49.0154 H         1 UNK         0.3000 
    131 H131        1.9345  -12.8652  -47.8312 H         1 UNK         0.0600 
    132 H132        2.5098  -12.3932  -50.7805 H         1 UNK         0.0800 
    133 H133        1.6400  -13.7651  -50.1444 H         1 UNK         0.0800 
    134 H134        2.7595  -15.2147  -48.0015 H         1 UNK         0.0800 
    135 H135        4.2983  -15.9350  -48.3992 H         1 UNK         0.0800 
    136 H136        2.8085  -15.2720  -51.5755 H         1 UNK         0.1150 
    137 H137        0.9042  -19.0667  -51.9768 H         1 UNK         0.1150 
    138 H138        2.5041  -17.8887  -48.1793 H         1 UNK         0.1150 
    139 H139        1.0980  -20.6843  -50.2360 H         1 UNK         0.0800 
    140 H140        2.1232  -20.3737  -48.8674 H         1 UNK         0.0800 
    141 H141       -0.1486  -20.0507  -46.0063 H         1 UNK         0.0800 
    142 H142        1.4163  -20.2587  -46.7087 H         1 UNK         0.0800 
    143 H143        0.6437  -22.5354  -47.6112 H         1 UNK         0.0600 
    144 H144        1.3522  -21.8572  -44.9314 H         1 UNK         0.3000 
    145 H145        1.8924  -25.0601  -43.6371 H         1 UNK         0.0600 
    146 H146        4.1845  -24.1748  -43.3124 H         1 UNK         0.0600 
    147 H147        3.9590  -24.6549  -44.9871 H         1 UNK         0.0600 
    148 H148        3.9206  -22.9495  -44.5524 H         1 UNK         0.0600 
    149 H149        2.4133  -22.4271  -42.6345 H         1 UNK         0.3000 
    150 H150       -0.8736  -21.8081  -41.3432 H         1 UNK         0.0600 
    151 H151        0.3512  -23.0593  -39.6265 H         1 UNK         0.0600 
    152 H152        0.5434  -21.3343  -39.3536 H         1 UNK         0.0600 
    153 H153        1.8623  -22.2743  -40.0509 H         1 UNK         0.0600 
    154 H154       -0.1632  -19.9842  -42.2772 H         1 UNK         0.3000 
    155 H155        2.5379  -18.0278  -41.8473 H         1 UNK         0.0600 
    156 H156        2.1203  -18.9661  -44.7350 H         1 UNK         0.0600 
    157 H157        3.6575  -19.0224  -43.8789 H         1 UNK         0.0600 
    158 H158        2.9050  -17.4760  -44.2183 H         1 UNK         0.0600 
    159 H159        0.4077  -17.6078  -43.6813 H         1 UNK         0.3000 
    160 H160       -2.2913  -17.4881  -41.4420 H         1 UNK         0.0600 
    161 H161       -0.9615  -15.0223  -42.6656 H         1 UNK         0.0600 
    162 H162       -1.3770  -15.2167  -40.9683 H         1 UNK         0.0600 
    163 H163       -2.6495  -15.1428  -42.1784 H         1 UNK         0.0600 
    164 H164       -2.2825  -16.6334  -44.1027 H         1 UNK         0.3000 
    165 H165       -2.5316  -19.7951  -45.7383 H         1 UNK         0.0600 
    166 H166       -4.5573  -17.5929  -45.1164 H         1 UNK         0.0600 
    167 H167       -4.6360  -18.7052  -46.4808 H         1 UNK         0.0600 
    168 H168       -4.7540  -19.3135  -44.8386 H         1 UNK         0.0600 
    169 H169       -1.3735  -18.4142  -46.9899 H         1 UNK         0.3000 
    170 H170       -0.1852  -16.7242  -47.6084 H         1 UNK         0.0600 
    171 H171       -2.2391  -14.6687  -48.5676 H         1 UNK         0.0600 
    172 H172       -0.7518  -15.1434  -49.3933 H         1 UNK         0.0600 
    173 H173       -2.0620  -16.2968  -49.2159 H         1 UNK         0.0600 
    174 H174       -0.4444  -13.9225  -47.0319 H         1 UNK         0.3000 
    175 H175        0.7960  -13.9677  -43.7653 H         1 UNK         0.0600 
    176 H176        2.8523  -13.5573  -45.9851 H         1 UNK         0.0600 
    177 H177        2.9121  -12.8384  -44.3802 H         1 UNK         0.0600 
    178 H178        3.0151  -14.5797  -44.5722 H         1 UNK         0.0600 
    179 H179        0.9718  -11.8327  -45.6332 H         1 UNK         0.3000 
    180 H180       -2.3571  -10.6349  -44.9438 H         1 UNK         0.0600 
    181 H181       -1.0091   -8.7139  -44.1327 H         1 UNK         0.0600 
    182 H182        0.4255   -9.7327  -44.0270 H         1 UNK         0.0600 
    183 H183       -0.9551  -10.0372  -42.9778 H         1 UNK         0.0600 
    184 H184        0.1523  -10.2167  -46.5255 H         1 UNK         0.3000 
    185 H185       -1.6718  -10.1469  -49.5371 H         1 UNK         0.0600 
    186 H186       -0.4661   -8.0236  -50.0026 H         1 UNK         0.0600 
    187 H187       -1.8268   -7.7232  -48.9336 H         1 UNK         0.0600 
    188 H188       -0.1947   -7.7695  -48.2777 H         1 UNK         0.0600 
    189 H189        1.1004   -9.7654  -48.9428 H         1 UNK         0.3000 
    190 H190       -1.2178  -22.3229  -44.5766 H         1 UNK         0.3000 
    191 H191       -3.8044  -22.7869  -45.8607 H         1 UNK         0.0600 
    192 H192       -4.5974  -22.9356  -43.4789 H         1 UNK         0.0600 
    193 H193       -3.7722  -21.4322  -43.8349 H         1 UNK         0.0600 
    194 H194       -2.9447  -22.6958  -42.9260 H         1 UNK         0.0600 
    195 H195       -1.3828  -24.6764  -44.0119 H         1 UNK         0.3000 
    196 H196       -2.7771  -27.0572  -43.7052 H         1 UNK         0.0600 
    197 H197        0.2389  -26.6766  -44.0728 H         1 UNK         0.0600 
    198 H198       -0.6390  -26.4961  -42.5519 H         1 UNK         0.0600 
    199 H199       -0.5380  -28.0667  -43.3302 H         1 UNK         0.0600 
    200 H200       -1.1953  -25.8886  -46.6010 H         1 UNK         0.3000 
    201 H201       -1.3294  -28.3492  -48.1368 H         1 UNK         0.0600 
    202 H202       -0.9491  -25.4278  -48.9835 H         1 UNK         0.0600 
    203 H203       -0.6562  -26.8386  -49.9970 H         1 UNK         0.0600 
    204 H204        0.3464  -26.5530  -48.5844 H         1 UNK         0.0600 
    205 H205       -3.7860  -27.9886  -46.9140 H         1 UNK         0.3000 
    206 H206       -5.9961  -27.9078  -47.1085 H         1 UNK         0.0600 
    207 H207       -5.4873  -29.7267  -48.7630 H         1 UNK         0.0600 
    208 H208       -6.9708  -28.8795  -49.1633 H         1 UNK         0.0600 
    209 H209       -5.5005  -28.5412  -50.0680 H         1 UNK         0.0600 
    210 H210       -4.6527  -25.3701  -47.4240 H         1 UNK         0.3000 
    211 H211       -4.7478  -23.2616  -48.0227 H         1 UNK         0.0600 
    212 H212       -6.9410  -22.1443  -48.1674 H         1 UNK         0.0600 
    213 H213       -6.9811  -23.3593  -46.9009 H         1 UNK         0.0600 
    214 H214       -7.7511  -23.6774  -48.4556 H         1 UNK         0.0600 
    215 H215       -4.6639  -25.4514  -50.3147 H         1 UNK         0.3000 
    216 H216       -5.6949  -24.1311  -52.6465 H         1 UNK         0.0600 
    217 H217       -3.6702  -26.4201  -52.4109 H         1 UNK         0.0600 
    218 H218       -4.5603  -25.9620  -53.8561 H         1 UNK         0.0600 
    219 H219       -5.4220  -26.6102  -52.4676 H         1 UNK         0.0600 
    220 H220       -2.5248  -24.2499  -51.0514 H         1 UNK         0.3000 
    221 H221       -1.0243  -22.8924  -53.0733 H         1 UNK         0.0600 
    222 H222       -0.0285  -24.2702  -51.2107 H         1 UNK         0.0600 
    223 H223       -0.4977  -23.0235  -50.0543 H         1 UNK         0.0600 
    224 H224        0.6760  -22.6699  -51.3202 H         1 UNK         0.0600 
    225 H225       -2.9557  -21.7588  -50.3044 H         1 UNK         0.3000 
    226 H226       -2.3033  -18.9647  -50.5654 H         1 UNK         0.0600 
    227 H227       -4.7200  -20.2863  -49.2099 H         1 UNK         0.0600 
    228 H228       -3.1675  -19.9999  -48.4367 H         1 UNK         0.0600 
    229 H229       -4.1474  -18.6422  -48.9669 H         1 UNK         0.0600 
    230 H230       -5.0724  -21.0027  -51.6334 H         1 UNK         0.3000 
    231 H231       -6.5542  -18.9696  -52.9086 H         1 UNK         0.0600 
    232 H232       -6.5061  -21.9859  -53.4425 H         1 UNK         0.0600 
    233 H233       -7.7783  -20.8794  -53.9442 H         1 UNK         0.0600 
    234 H234       -7.4951  -21.1677  -52.2339 H         1 UNK         0.0600 
    235 H235       -3.9576  -21.0588  -54.1941 H         1 UNK         0.3000 
    236 H236       -4.2064  -20.2576  -56.9310 H         1 UNK         0.0600 
    237 H237       -3.0983  -22.3600  -56.2576 H         1 UNK         0.0600 
    238 H238       -1.9562  -21.3513  -57.1290 H         1 UNK         0.0600 
    239 H239       -1.8594  -21.4670  -55.3749 H         1 UNK         0.0600 
    240 H240       -2.8232  -18.6208  -54.1860 H         1 UNK         0.3000 
    241 H241       -0.9004  -17.0475  -55.6300 H         1 UNK         0.0600 
    242 H242       -2.6297  -14.0986  -56.6101 H         1 UNK         0.3800 
    243 H243       -1.0948  -14.9132  -56.5011 H         1 UNK         0.3800 
    244 H244       -0.9848  -17.6188  -53.0431 H         1 UNK         0.0800 
    245 H245       -2.0293  -16.2375  -52.9147 H         1 UNK         0.0800 
    246 H246        1.3317  -17.7087  -53.9441 H         1 UNK         0.0800 
    247 H247        2.4643  -16.3876  -53.8190 H         1 UNK         0.0800 
@<TRIPOS>BOND
     1    1    2 1    
     2    1  127 1    
     3    1  128 1    
     4    1  129 1    
     5    2    3 2    
     6    2    4 am   BACKBONE|DICT|INTERRES
     7    4    5 1    
     8    4  130 1    
     9    5    6 1    
    10    5   65 1    
    11    5  131 1    
    12    6    7 1    
    13    6  132 1    
    14    6  133 1    
    15    7    8 1    
    16    8    9 1    
    17    8  134 1    
    18    8  135 1    
    19    9   10 ar   
    20    9   14 ar   
    21   10   11 ar   
    22   10  136 1    
    23   11   12 ar   
    24   11  126 1    
    25   12   13 ar   
    26   12  137 1    
    27   13   14 ar   
    28   13   15 1    
    29   14  138 1    
    30   15   16 1    
    31   15  139 1    
    32   15  140 1    
    33   16   17 1    
    34   17   18 1    
    35   17  141 1    
    36   17  142 1    
    37   18   19 1    
    38   18   67 1    
    39   18  143 1    
    40   19   20 am   BACKBONE|DICT|INTERRES
    41   19  144 1    
    42   20   21 2    
    43   20   22 1    
    44   22   23 1    
    45   22   24 1    
    46   22  145 1    
    47   23  146 1    
    48   23  147 1    
    49   23  148 1    
    50   24   25 am   BACKBONE|DICT|INTERRES
    51   24  149 1    
    52   25   26 2    
    53   25   27 1    
    54   27   28 1    
    55   27   29 1    
    56   27  150 1    
    57   28  151 1    
    58   28  152 1    
    59   28  153 1    
    60   29   30 am   BACKBONE|DICT|INTERRES
    61   29  154 1    
    62   30   31 2    
    63   30   32 1    
    64   32   33 1    
    65   32   34 1    
    66   32  155 1    
    67   33  156 1    
    68   33  157 1    
    69   33  158 1    
    70   34   35 am   BACKBONE|DICT|INTERRES
    71   34  159 1    
    72   35   36 2    
    73   35   37 1    
    74   37   38 1    
    75   37   39 1    
    76   37  160 1    
    77   38  161 1    
    78   38  162 1    
    79   38  163 1    
    80   39   40 am   BACKBONE|DICT|INTERRES
    81   39  164 1    
    82   40   41 2    
    83   40   42 1    
    84   42   43 1    
    85   42   44 1    
    86   42  165 1    
    87   43  166 1    
    88   43  167 1    
    89   43  168 1    
    90   44   45 am   BACKBONE|DICT|INTERRES
    91   44  169 1    
    92   45   46 2    
    93   45   47 1    
    94   47   48 1    
    95   47   49 1    
    96   47  170 1    
    97   48  171 1    
    98   48  172 1    
    99   48  173 1    
   100   49   50 am   BACKBONE|DICT|INTERRES
   101   49  174 1    
   102   50   51 2    
   103   50   52 1    
   104   52   53 1    
   105   52   54 1    
   106   52  175 1    
   107   53  176 1    
   108   53  177 1    
   109   53  178 1    
   110   54   55 am   BACKBONE|DICT|INTERRES
   111   54  179 1    
   112   55   56 2    
   113   55   57 1    
   114   57   58 1    
   115   57   59 1    
   116   57  180 1    
   117   58  181 1    
   118   58  182 1    
   119   58  183 1    
   120   59   60 am   BACKBONE|DICT|INTERRES
   121   59  184 1    
   122   60   61 2    
   123   60   62 1    
   124   62   63 1    
   125   62   64 1    
   126   62  185 1    
   127   63  186 1    
   128   63  187 1    
   129   63  188 1    
   130   64   65 am   BACKBONE|DICT|INTERRES
   131   64  189 1    
   132   65   66 2    
   133   67   68 2    
   134   67   69 am   BACKBONE|DICT|INTERRES
   135   69   70 1    
   136   69  190 1    
   137   70   71 1    
   138   70   72 1    
   139   70  191 1    
   140   71  192 1    
   141   71  193 1    
   142   71  194 1    
   143   72   73 2    
   144   72   74 am   BACKBONE|DICT|INTERRES
   145   74   75 1    
   146   74  195 1    
   147   75   76 1    
   148   75   77 1    
   149   75  196 1    
   150   76  197 1    
   151   76  198 1    
   152   76  199 1    
   153   77   78 2    
   154   77   79 am   BACKBONE|DICT|INTERRES
   155   79   80 1    
   156   79  200 1    
   157   80   81 1    
   158   80   82 1    
   159   80  201 1    
   160   81  202 1    
   161   81  203 1    
   162   81  204 1    
   163   82   83 2    
   164   82   84 am   BACKBONE|DICT|INTERRES
   165   84   85 1    
   166   84  205 1    
   167   85   86 1    
   168   85   87 1    
   169   85  206 1    
   170   86  207 1    
   171   86  208 1    
   172   86  209 1    
   173   87   88 2    
   174   87   89 am   BACKBONE|DICT|INTERRES
   175   89   90 1    
   176   89  210 1    
   177   90   91 1    
   178   90   92 1    
   179   90  211 1    
   180   91  212 1    
   181   91  213 1    
   182   91  214 1    
   183   92   93 2    
   184   92   94 am   BACKBONE|DICT|INTERRES
   185   94   95 1    
   186   94  215 1    
   187   95   96 1    
   188   95   97 1    
   189   95  216 1    
   190   96  217 1    
   191   96  218 1    
   192   96  219 1    
   193   97   98 2    
   194   97   99 am   BACKBONE|DICT|INTERRES
   195   99  100 1    
   196   99  220 1    
   197  100  101 1    
   198  100  102 1    
   199  100  221 1    
   200  101  222 1    
   201  101  223 1    
   202  101  224 1    
   203  102  103 2    
   204  102  104 am   BACKBONE|DICT|INTERRES
   205  104  105 1    
   206  104  225 1    
   207  105  106 1    
   208  105  107 1    
   209  105  226 1    
   210  106  227 1    
   211  106  228 1    
   212  106  229 1    
   213  107  108 2    
   214  107  109 am   BACKBONE|DICT|INTERRES
   215  109  110 1    
   216  109  230 1    
   217  110  111 1    
   218  110  112 1    
   219  110  231 1    
   220  111  232 1    
   221  111  233 1    
   222  111  234 1    
   223  112  113 2    
   224  112  114 am   BACKBONE|DICT|INTERRES
   225  114  115 1    
   226  114  235 1    
   227  115  116 1    
   228  115  117 1    
   229  115  236 1    
   230  116  237 1    
   231  116  238 1    
   232  116  239 1    
   233  117  118 2    
   234  117  119 am   BACKBONE|DICT|INTERRES
   235  119  120 1    
   236  119  240 1    
   237  120  121 1    
   238  120  124 1    
   239  120  241 1    
   240  121  122 am   BACKBONE|DICT|INTERRES
   241  121  123 2    
   242  122  242 1    
   243  122  243 1    
   244  124  125 1    
   245  124  244 1    
   246  124  245 1    
   247  125  126 1    
   248  126  246 1    
   249  126  247 1    
@<TRIPOS>SUBSTRUCTURE
     1 UNK         1 GROUP             0       ****    0 ROOT    
