@<TRIPOS>MOLECULE
3R540
247   249    1
SMALL
USER_CHARGES


@<TRIPOS>ATOM
      1 CA         -2.7544   -9.5574  -47.8384 C.3       0 UNK        -0.1800 
      2 C          -2.3779  -10.8939  -47.2167 C.2       0 UNK         0.5000 
      3 O          -1.2048  -11.2655  -47.2289 O.2       0 UNK        -0.5000 
      4 N          -3.3614  -11.6092  -46.6553 N.am      1 UNK        -0.5000 
      5 CA         -3.2009  -12.9386  -46.0490 C.3       1 UNK         0.1400 
      6 C6         -4.5559  -13.5589  -45.6229 C.3       23 UNK        -0.0398 
      7 S7         -5.7742  -13.6537  -46.9816 S.3       23 UNK        -0.2404 
      8 C8         -5.7014  -15.4148  -47.4386 C.3       23 UNK        -0.0205 
      9 C9         -4.4356  -15.7373  -48.2160 C.ar      23 UNK        -0.0193 
     10 C10        -4.4032  -15.5746  -49.6047 C.ar      23 UNK        -0.1150 
     11 C11        -3.2377  -15.8499  -50.3272 C.ar      23 UNK        -0.0193 
     12 C12        -2.0980  -16.2818  -49.6436 C.ar      23 UNK        -0.1150 
     13 C13        -2.1269  -16.4715  -48.2606 C.ar      23 UNK        -0.0193 
     14 C14        -3.2975  -16.1992  -47.5502 C.ar      23 UNK        -0.1150 
     15 C15        -0.8951  -16.9955  -47.5467 C.3       23 UNK        -0.0205 
     16 S16        -0.7615  -18.7958  -47.7430 S.3       23 UNK        -0.2404 
     17 C17        -2.0323  -19.3770  -46.5730 C.3       23 UNK        -0.0398 
     18 CA         -2.1200  -20.9172  -46.5026 C.3       11 UNK         0.1400 
     19 N          -0.8200  -21.5700  -46.2779 N.am      11 UNK        -0.5000 
     20 C          -0.6053  -22.8944  -46.3201 C.2       10 UNK         0.5000 
     21 O          -1.4927  -23.7185  -46.5372 O.2       10 UNK        -0.5000 
     22 CA          0.8231  -23.3832  -46.0344 C.3       10 UNK         0.1400 
     23 CB          1.6813  -23.3247  -47.3074 C.3       10 UNK        -0.1800 
     24 N           1.4467  -22.5843  -44.9809 N.am      10 UNK        -0.5000 
     25 C           1.3253  -22.8331  -43.6695 C.2       9 UNK         0.5000 
     26 O           0.7549  -23.8243  -43.2136 O.2       9 UNK        -0.5000 
     27 CA          1.9210  -21.7940  -42.6963 C.3       9 UNK         0.1400 
     28 CB          3.3735  -22.1531  -42.3488 C.3       9 UNK        -0.1800 
     29 N           1.8776  -20.4208  -43.2029 N.am      9 UNK        -0.5000 
     30 C           0.7562  -19.7398  -43.4739 C.2       8 UNK         0.5000 
     31 O          -0.3756  -20.1823  -43.2773 O.2       8 UNK        -0.5000 
     32 CA          0.9182  -18.3515  -44.1223 C.3       8 UNK         0.1400 
     33 CB          0.9407  -17.2537  -43.0502 C.3       8 UNK        -0.1800 
     34 N           2.0713  -18.1856  -45.0139 N.am      8 UNK        -0.5000 
     35 C           2.4343  -18.9918  -46.0239 C.2       7 UNK         0.5000 
     36 O           1.9160  -20.0857  -46.2459 O.2       7 UNK        -0.5000 
     37 CA          3.5602  -18.5021  -46.9500 C.3       7 UNK         0.1400 
     38 CB          2.9676  -17.9183  -48.2414 C.3       7 UNK        -0.1800 
     39 N           4.3981  -17.4854  -46.3144 N.am      7 UNK        -0.5000 
     40 C           5.5493  -17.7367  -45.6766 C.2       6 UNK         0.5000 
     41 O           6.0405  -18.8607  -45.5681 O.2       6 UNK        -0.5000 
     42 CA          6.2798  -16.5305  -45.0533 C.3       6 UNK         0.1400 
     43 CB          7.3051  -15.9549  -46.0420 C.3       6 UNK        -0.1800 
     44 N           5.3704  -15.4626  -44.6349 N.am      6 UNK        -0.5000 
     45 C           4.5365  -15.5437  -43.5895 C.2       5 UNK         0.5000 
     46 O           4.4849  -16.5122  -42.8316 O.2       5 UNK        -0.5000 
     47 CA          3.5809  -14.3562  -43.3662 C.3       5 UNK         0.1400 
     48 CB          4.1905  -13.3583  -42.3706 C.3       5 UNK        -0.1800 
     49 N           3.2043  -13.6368  -44.5864 N.am      5 UNK        -0.5000 
     50 C           2.5765  -14.1474  -45.6542 C.2       4 UNK         0.5000 
     51 O           2.3442  -15.3504  -45.7818 O.2       4 UNK        -0.5000 
     52 CA          2.1514  -13.1504  -46.7590 C.3       4 UNK         0.1400 
     53 CB          1.1818  -13.7803  -47.7746 C.3       4 UNK        -0.1800 
     54 N           1.5295  -11.9376  -46.2221 N.am      4 UNK        -0.5000 
     55 C           2.1593  -10.9180  -45.6230 C.2       3 UNK         0.5000 
     56 O           3.3820  -10.8582  -45.4889 O.2       3 UNK        -0.5000 
     57 CA          1.2712   -9.8214  -45.0105 C.3       3 UNK         0.1400 
     58 CB          0.9303   -8.7424  -46.0497 C.3       3 UNK        -0.1800 
     59 N           0.0384  -10.3739  -44.4451 N.am      3 UNK        -0.5000 
     60 C          -0.0217  -11.0837  -43.3081 C.2       2 UNK         0.5000 
     61 O           0.9531  -11.3006  -42.5881 O.2       2 UNK        -0.5000 
     62 CA         -1.3975  -11.6426  -42.8994 C.3       2 UNK         0.1400 
     63 CB         -2.0900  -10.6909  -41.9118 C.3       2 UNK        -0.1800 
     64 N          -2.2810  -11.8638  -44.0448 N.am      2 UNK        -0.5000 
     65 C          -2.2246  -12.9324  -44.8528 C.2       1 UNK         0.5000 
     66 O          -1.4415  -13.8695  -44.6984 O.2       1 UNK        -0.5000 
     67 C          -3.1926  -21.3423  -45.4785 C.2       11 UNK         0.5000 
     68 O          -4.3759  -21.3616  -45.8167 O.2       11 UNK        -0.5000 
     69 N          -2.7585  -21.7315  -44.2709 N.am      12 UNK        -0.5000 
     70 CA         -3.5727  -22.3089  -43.1990 C.3       12 UNK         0.1400 
     71 CB         -2.6712  -22.5606  -41.9807 C.3       12 UNK        -0.1800 
     72 C          -4.3273  -23.6008  -43.5857 C.2       12 UNK         0.5000 
     73 O          -5.3216  -23.9274  -42.9368 O.2       12 UNK        -0.5000 
     74 N          -3.8758  -24.2972  -44.6407 N.am      13 UNK        -0.5000 
     75 CA         -4.5641  -25.4464  -45.2353 C.3       13 UNK         0.1400 
     76 CB         -3.5638  -26.2331  -46.0981 C.3       13 UNK        -0.1800 
     77 C          -5.8000  -25.0564  -46.0764 C.2       13 UNK         0.5000 
     78 O          -6.5587  -25.9475  -46.4611 O.2       13 UNK        -0.5000 
     79 N          -5.9715  -23.7536  -46.3561 N.am      14 UNK        -0.5000 
     80 CA         -6.9638  -23.1468  -47.2483 C.3       14 UNK         0.1400 
     81 CB         -8.4030  -23.4337  -46.7663 C.3       14 UNK        -0.1800 
     82 C          -6.7214  -23.5309  -48.7232 C.2       14 UNK         0.5000 
     83 O          -5.6335  -24.0031  -49.0622 O.2       14 UNK        -0.5000 
     84 N          -7.7175  -23.2770  -49.5857 N.am      15 UNK        -0.5000 
     85 CA         -7.7478  -23.6065  -51.0184 C.3       15 UNK         0.1400 
     86 CB         -7.9031  -25.1308  -51.2046 C.3       15 UNK        -0.1800 
     87 C          -6.5515  -23.0327  -51.8092 C.2       15 UNK         0.5000 
     88 O          -5.9601  -23.7381  -52.6271 O.2       15 UNK        -0.5000 
     89 N          -6.1935  -21.7730  -51.5147 N.am      16 UNK        -0.5000 
     90 CA         -5.0422  -21.0402  -52.0590 C.3       16 UNK         0.1400 
     91 CB         -5.2520  -20.7267  -53.5544 C.3       16 UNK        -0.1800 
     92 C          -3.7053  -21.7581  -51.7727 C.2       16 UNK         0.5000 
     93 O          -2.8975  -21.9597  -52.6828 O.2       16 UNK        -0.5000 
     94 N          -3.5264  -22.1472  -50.5022 N.am      17 UNK        -0.5000 
     95 CA         -2.3991  -22.9067  -49.9552 C.3       17 UNK         0.1400 
     96 CB         -1.0819  -22.1091  -50.0708 C.3       17 UNK        -0.1800 
     97 C          -2.3188  -24.3287  -50.5412 C.2       17 UNK         0.5000 
     98 O          -1.2707  -24.7389  -51.0383 O.2       17 UNK        -0.5000 
     99 N          -3.4482  -25.0473  -50.4698 N.am      18 UNK        -0.5000 
    100 CA        -3.6587  -26.4227  -50.9299 C.3       18 UNK         0.1400 
    101 CB        -2.8525  -27.4139  -50.0647 C.3       18 UNK        -0.1800 
    102 C         -3.4080  -26.5876  -52.4432 C.2       18 UNK         0.5000 
    103 O         -2.6501  -27.4661  -52.8589 O.2       18 UNK        -0.5000 
    104 N         -4.0566  -25.7209  -53.2340 N.am      19 UNK        -0.5000 
    105 CA        -4.0248  -25.6460  -54.6979 C.3       19 UNK         0.1400 
    106 CB        -4.5852  -26.9347  -55.3358 C.3       19 UNK        -0.1800 
    107 C         -2.6568  -25.2302  -55.2792 C.2       19 UNK         0.5000 
    108 O         -2.3833  -25.5011  -56.4496 O.2       19 UNK        -0.5000 
    109 N         -1.8354  -24.5402  -54.4760 N.am      20 UNK        -0.5000 
    110 CA        -0.5501  -23.9706  -54.8902 C.3       20 UNK         0.1400 
    111 CB         0.3791  -23.8915  -53.6699 C.3       20 UNK        -0.1800 
    112 C         -0.6940  -22.5831  -55.5473 C.2       20 UNK         0.5000 
    113 O          0.3188  -21.9961  -55.9313 O.2       20 UNK        -0.5000 
    114 N         -1.9290  -22.0628  -55.6289 N.am      21 UNK        -0.5000 
    115 CA        -2.3055  -20.7405  -56.1417 C.3       21 UNK         0.1400 
    116 CB        -2.0657  -20.6560  -57.6635 C.3       21 UNK        -0.1800 
    117 C         -1.6278  -19.6005  -55.3528 C.2       21 UNK         0.5000 
    118 O         -1.1445  -18.6355  -55.9472 O.2       21 UNK        -0.5000 
    119 N         -1.5778  -19.7701  -54.0242 N.am      22 UNK        -0.5000 
    120 CA        -0.8817  -18.9150  -53.0472 C.3       22 UNK         0.1400 
    121 C          0.6750  -19.0193  -53.0925 C.2       22 UNK         0.5000 
    122 N          1.2737  -19.9119  -53.8738 N.am      22 UNK        -0.7600 
    123 O          1.3619  -18.2954  -52.3775 O.2       22 UNK        -0.5000 
    124 C124       -1.3686  -17.4367  -53.0533 C.3       23 UNK        -0.0398 
    125 S125       -3.1589  -17.2602  -52.7266 S.3       23 UNK        -0.2404 
    126 C126       -3.2116  -15.6675  -51.8389 C.3       23 UNK        -0.0205 
    127 H127       -2.4721   -9.5423  -48.8910 H         1 UNK         0.0600 
    128 H128       -2.2298   -8.7473  -47.3320 H         1 UNK         0.0600 
    129 H129       -3.8256   -9.3658  -47.7703 H         1 UNK         0.0600 
    130 H130       -4.3091  -11.2611  -46.6907 H         1 UNK         0.3000 
    131 H131       -2.7574  -13.5780  -46.8142 H         1 UNK         0.0600 
    132 H132       -4.4073  -14.5556  -45.2045 H         1 UNK         0.0800 
    133 H133       -5.0065  -12.9677  -44.8236 H         1 UNK         0.0800 
    134 H134       -5.7770  -16.0375  -46.5459 H         1 UNK         0.0800 
    135 H135       -6.5745  -15.6546  -48.0474 H         1 UNK         0.0800 
    136 H136       -5.2867  -15.2261  -50.1209 H         1 UNK         0.1150 
    137 H137       -1.1879  -16.4951  -50.1825 H         1 UNK         0.1150 
    138 H138       -3.3197  -16.3436  -46.4794 H         1 UNK         0.1150 
    139 H139       -0.0047  -16.5313  -47.9703 H         1 UNK         0.0800 
    140 H140       -0.9061  -16.7251  -46.4897 H         1 UNK         0.0800 
    141 H141       -2.9935  -18.9695  -46.8906 H         1 UNK         0.0800 
    142 H142       -1.8361  -18.9571  -45.5872 H         1 UNK         0.0800 
    143 H143       -2.4761  -21.2577  -47.4746 H         1 UNK         0.0600 
    144 H144       -0.0247  -20.9556  -46.1453 H         1 UNK         0.3000 
    145 H145        0.7667  -24.4265  -45.7166 H         1 UNK         0.0600 
    146 H146        2.6988  -23.6633  -47.1123 H         1 UNK         0.0600 
    147 H147        1.2672  -23.9699  -48.0832 H         1 UNK         0.0600 
    148 H148        1.7365  -22.3153  -47.7166 H         1 UNK         0.0600 
    149 H149        1.8733  -21.7116  -45.2799 H         1 UNK         0.3000 
    150 H150        1.3305  -21.8288  -41.7784 H         1 UNK         0.0600 
    151 H151        3.4402  -23.1643  -41.9452 H         1 UNK         0.0600 
    152 H152        3.7783  -21.4765  -41.5959 H         1 UNK         0.0600 
    153 H153        4.0200  -22.1060  -43.2262 H         1 UNK         0.0600 
    154 H154        2.7625  -19.9828  -43.4137 H         1 UNK         0.3000 
    155 H155        0.0362  -18.1827  -44.7356 H         1 UNK         0.0600 
    156 H156        0.0913  -17.3485  -42.3724 H         1 UNK         0.0600 
    157 H157        0.8795  -16.2641  -43.5033 H         1 UNK         0.0600 
    158 H158        1.8487  -17.2985  -42.4483 H         1 UNK         0.0600 
    159 H159        2.5184  -17.2784  -44.9753 H         1 UNK         0.3000 
    160 H160        4.1636  -19.3710  -47.2206 H         1 UNK         0.0600 
    161 H161        2.3593  -17.0365  -48.0408 H         1 UNK         0.0600 
    162 H162        2.3320  -18.6471  -48.7466 H         1 UNK         0.0600 
    163 H163        3.7525  -17.6316  -48.9412 H         1 UNK         0.0600 
    164 H164        4.0303  -16.5421  -46.3120 H         1 UNK         0.3000 
    165 H165        6.8183  -16.8880  -44.1729 H         1 UNK         0.0600 
    166 H166        7.8788  -15.1459  -45.5894 H         1 UNK         0.0600 
    167 H167        8.0166  -16.7199  -46.3561 H         1 UNK         0.0600 
    168 H168        6.8243  -15.5653  -46.9403 H         1 UNK         0.0600 
    169 H169        5.3523  -14.6263  -45.1999 H         1 UNK         0.3000 
    170 H170        2.6644  -14.7529  -42.9272 H         1 UNK         0.0600 
    171 H171        4.4589  -13.8515  -41.4354 H         1 UNK         0.0600 
    172 H172        5.0931  -12.8935  -42.7693 H         1 UNK         0.0600 
    173 H173        3.4842  -12.5644  -42.1265 H         1 UNK         0.0600 
    174 H174        3.3838  -12.6384  -44.5949 H         1 UNK         0.3000 
    175 H175        3.0581  -12.8649  -47.2957 H         1 UNK         0.0600 
    176 H176        0.2588  -14.1075  -47.2935 H         1 UNK         0.0600 
    177 H177        0.9139  -13.0704  -48.5574 H         1 UNK         0.0600 
    178 H178        1.6292  -14.6459  -48.2640 H         1 UNK         0.0600 
    179 H179        0.5208  -11.8790  -46.3167 H         1 UNK         0.3000 
    180 H180        1.8353   -9.3459  -44.2051 H         1 UNK         0.0600 
    181 H181        0.3945   -9.1543  -46.9048 H         1 UNK         0.0600 
    182 H182        1.8376   -8.2723  -46.4309 H         1 UNK         0.0600 
    183 H183        0.3149   -7.9548  -45.6146 H         1 UNK         0.0600 
    184 H184       -0.7977  -10.2792  -45.0017 H         1 UNK         0.3000 
    185 H185       -1.2303  -12.5952  -42.3917 H         1 UNK         0.0600 
    186 H186       -1.4692  -10.5235  -41.0306 H         1 UNK         0.0600 
    187 H187       -2.2902   -9.7177  -42.3618 H         1 UNK         0.0600 
    188 H188       -3.0381  -11.1031  -41.5660 H         1 UNK         0.0600 
    189 H189       -2.9555  -11.1400  -44.2473 H         1 UNK         0.3000 
    190 H190       -1.7749  -21.6045  -44.0618 H         1 UNK         0.3000 
    191 H191       -4.3240  -21.5663  -42.9238 H         1 UNK         0.0600 
    192 H192       -2.2040  -21.6373  -41.6374 H         1 UNK         0.0600 
    193 H193       -3.2435  -22.9644  -41.1445 H         1 UNK         0.0600 
    194 H194       -1.8772  -23.2722  -42.2108 H         1 UNK         0.0600 
    195 H195       -3.0492  -23.9719  -45.1302 H         1 UNK         0.3000 
    196 H196       -4.9058  -26.0997  -44.4299 H         1 UNK         0.0600 
    197 H197       -4.0066  -27.1625  -46.4583 H         1 UNK         0.0600 
    198 H198       -2.6696  -26.4962  -45.5328 H         1 UNK         0.0600 
    199 H199       -3.2538  -25.6614  -46.9737 H         1 UNK         0.0600 
    200 H200       -5.2750  -23.1013  -46.0108 H         1 UNK         0.3000 
    201 H201       -6.7998  -22.0705  -47.1822 H         1 UNK         0.0600 
    202 H202       -8.5019  -23.2519  -45.6960 H         1 UNK         0.0600 
    203 H203       -8.6999  -24.4654  -46.9579 H         1 UNK         0.0600 
    204 H204       -9.1253  -22.7873  -47.2653 H         1 UNK         0.0600 
    205 H205       -8.5622  -22.8589  -49.2217 H         1 UNK         0.3000 
    206 H206       -8.6390  -23.1309  -51.4302 H         1 UNK         0.0600 
    207 H207       -8.7778  -25.5050  -50.6728 H         1 UNK         0.0600 
    208 H208       -8.0305  -25.3883  -52.2568 H         1 UNK         0.0600 
    209 H209       -7.0320  -25.6736  -50.8372 H         1 UNK         0.0600 
    210 H210       -6.7379  -21.2826  -50.8192 H         1 UNK         0.3000 
    211 H211       -4.9991  -20.0876  -51.5286 H         1 UNK         0.0600 
    212 H212       -5.2036  -21.6243  -54.1717 H         1 UNK         0.0600 
    213 H213       -4.4894  -20.0354  -53.9120 H         1 UNK         0.0600 
    214 H214       -6.2185  -20.2533  -53.7260 H         1 UNK         0.0600 
    215 H215       -4.2908  -21.9954  -49.8601 H         1 UNK         0.3000 
    216 H216       -2.6111  -23.0441  -48.8954 H         1 UNK         0.0600 
    217 H217       -0.2651  -22.6331  -49.5750 H         1 UNK         0.0600 
    218 H218       -1.1712  -21.1306  -49.6012 H         1 UNK         0.0600 
    219 H219       -0.7851  -21.9508  -51.1067 H         1 UNK         0.0600 
    220 H220       -4.2585  -24.6128  -50.0284 H         1 UNK         0.3000 
    221 H221       -4.7160  -26.6377  -50.7704 H         1 UNK         0.0600 
    222 H222       -1.7773  -27.2787  -50.1857 H         1 UNK         0.0600 
    223 H223       -3.0883  -27.2947  -49.0075 H         1 UNK         0.0600 
    224 H224       -3.0848  -28.4448  -50.3340 H         1 UNK         0.0600 
    225 H225       -4.6586  -25.0230  -52.7995 H         1 UNK         0.3000 
    226 H226       -4.7081  -24.8369  -54.9593 H         1 UNK         0.0600 
    227 H227       -5.5552  -27.1945  -54.9119 H         1 UNK         0.0600 
    228 H228       -4.7262  -26.8104  -56.4100 H         1 UNK         0.0600 
    229 H229       -3.9166  -27.7837  -55.1924 H         1 UNK         0.0600 
    230 H230       -2.1261  -24.3503  -53.5255 H         1 UNK         0.3000 
    231 H231       -0.0834  -24.6310  -55.6238 H         1 UNK         0.0600 
    232 H232       -0.0043  -23.1974  -52.9226 H         1 UNK         0.0600 
    233 H233        1.3752  -23.5495  -53.9533 H         1 UNK         0.0600 
    234 H234        0.4944  -24.8669  -53.1969 H         1 UNK         0.0600 
    235 H235       -2.6747  -22.5979  -55.2078 H         1 UNK         0.3000 
    236 H236       -3.3778  -20.6365  -55.9745 H         1 UNK         0.0600 
    237 H237       -2.5640  -21.4723  -58.1864 H         1 UNK         0.0600 
    238 H238       -2.4594  -19.7233  -58.0691 H         1 UNK         0.0600 
    239 H239       -1.0047  -20.6974  -57.9112 H         1 UNK         0.0600 
    240 H240       -1.9917  -20.6144  -53.6360 H         1 UNK         0.3000 
    241 H241       -1.1476  -19.3316  -52.0748 H         1 UNK         0.0600 
    242 H242        2.2797  -19.9630  -53.8731 H         1 UNK         0.3800 
    243 H243        0.7468  -20.5072  -54.5003 H         1 UNK         0.3800 
    244 H244       -0.8202  -16.8624  -52.3083 H         1 UNK         0.0800 
    245 H245       -1.1433  -16.9557  -54.0052 H         1 UNK         0.0800 
    246 H246       -2.3635  -15.0428  -52.1226 H         1 UNK         0.0800 
    247 H247       -4.1009  -15.1266  -52.1659 H         1 UNK         0.0800 
@<TRIPOS>BOND
     1    1    2 1    
     2    1  127 1    
     3    1  128 1    
     4    1  129 1    
     5    2    3 2    
     6    2    4 am   BACKBONE|DICT|INTERRES
     7    4    5 1    
     8    4  130 1    
     9    5    6 1    
    10    5   65 1    
    11    5  131 1    
    12    6    7 1    
    13    6  132 1    
    14    6  133 1    
    15    7    8 1    
    16    8    9 1    
    17    8  134 1    
    18    8  135 1    
    19    9   10 ar   
    20    9   14 ar   
    21   10   11 ar   
    22   10  136 1    
    23   11   12 ar   
    24   11  126 1    
    25   12   13 ar   
    26   12  137 1    
    27   13   14 ar   
    28   13   15 1    
    29   14  138 1    
    30   15   16 1    
    31   15  139 1    
    32   15  140 1    
    33   16   17 1    
    34   17   18 1    
    35   17  141 1    
    36   17  142 1    
    37   18   19 1    
    38   18   67 1    
    39   18  143 1    
    40   19   20 am   BACKBONE|DICT|INTERRES
    41   19  144 1    
    42   20   21 2    
    43   20   22 1    
    44   22   23 1    
    45   22   24 1    
    46   22  145 1    
    47   23  146 1    
    48   23  147 1    
    49   23  148 1    
    50   24   25 am   BACKBONE|DICT|INTERRES
    51   24  149 1    
    52   25   26 2    
    53   25   27 1    
    54   27   28 1    
    55   27   29 1    
    56   27  150 1    
    57   28  151 1    
    58   28  152 1    
    59   28  153 1    
    60   29   30 am   BACKBONE|DICT|INTERRES
    61   29  154 1    
    62   30   31 2    
    63   30   32 1    
    64   32   33 1    
    65   32   34 1    
    66   32  155 1    
    67   33  156 1    
    68   33  157 1    
    69   33  158 1    
    70   34   35 am   BACKBONE|DICT|INTERRES
    71   34  159 1    
    72   35   36 2    
    73   35   37 1    
    74   37   38 1    
    75   37   39 1    
    76   37  160 1    
    77   38  161 1    
    78   38  162 1    
    79   38  163 1    
    80   39   40 am   BACKBONE|DICT|INTERRES
    81   39  164 1    
    82   40   41 2    
    83   40   42 1    
    84   42   43 1    
    85   42   44 1    
    86   42  165 1    
    87   43  166 1    
    88   43  167 1    
    89   43  168 1    
    90   44   45 am   BACKBONE|DICT|INTERRES
    91   44  169 1    
    92   45   46 2    
    93   45   47 1    
    94   47   48 1    
    95   47   49 1    
    96   47  170 1    
    97   48  171 1    
    98   48  172 1    
    99   48  173 1    
   100   49   50 am   BACKBONE|DICT|INTERRES
   101   49  174 1    
   102   50   51 2    
   103   50   52 1    
   104   52   53 1    
   105   52   54 1    
   106   52  175 1    
   107   53  176 1    
   108   53  177 1    
   109   53  178 1    
   110   54   55 am   BACKBONE|DICT|INTERRES
   111   54  179 1    
   112   55   56 2    
   113   55   57 1    
   114   57   58 1    
   115   57   59 1    
   116   57  180 1    
   117   58  181 1    
   118   58  182 1    
   119   58  183 1    
   120   59   60 am   BACKBONE|DICT|INTERRES
   121   59  184 1    
   122   60   61 2    
   123   60   62 1    
   124   62   63 1    
   125   62   64 1    
   126   62  185 1    
   127   63  186 1    
   128   63  187 1    
   129   63  188 1    
   130   64   65 am   BACKBONE|DICT|INTERRES
   131   64  189 1    
   132   65   66 2    
   133   67   68 2    
   134   67   69 am   BACKBONE|DICT|INTERRES
   135   69   70 1    
   136   69  190 1    
   137   70   71 1    
   138   70   72 1    
   139   70  191 1    
   140   71  192 1    
   141   71  193 1    
   142   71  194 1    
   143   72   73 2    
   144   72   74 am   BACKBONE|DICT|INTERRES
   145   74   75 1    
   146   74  195 1    
   147   75   76 1    
   148   75   77 1    
   149   75  196 1    
   150   76  197 1    
   151   76  198 1    
   152   76  199 1    
   153   77   78 2    
   154   77   79 am   BACKBONE|DICT|INTERRES
   155   79   80 1    
   156   79  200 1    
   157   80   81 1    
   158   80   82 1    
   159   80  201 1    
   160   81  202 1    
   161   81  203 1    
   162   81  204 1    
   163   82   83 2    
   164   82   84 am   BACKBONE|DICT|INTERRES
   165   84   85 1    
   166   84  205 1    
   167   85   86 1    
   168   85   87 1    
   169   85  206 1    
   170   86  207 1    
   171   86  208 1    
   172   86  209 1    
   173   87   88 2    
   174   87   89 am   BACKBONE|DICT|INTERRES
   175   89   90 1    
   176   89  210 1    
   177   90   91 1    
   178   90   92 1    
   179   90  211 1    
   180   91  212 1    
   181   91  213 1    
   182   91  214 1    
   183   92   93 2    
   184   92   94 am   BACKBONE|DICT|INTERRES
   185   94   95 1    
   186   94  215 1    
   187   95   96 1    
   188   95   97 1    
   189   95  216 1    
   190   96  217 1    
   191   96  218 1    
   192   96  219 1    
   193   97   98 2    
   194   97   99 am   BACKBONE|DICT|INTERRES
   195   99  100 1    
   196   99  220 1    
   197  100  101 1    
   198  100  102 1    
   199  100  221 1    
   200  101  222 1    
   201  101  223 1    
   202  101  224 1    
   203  102  103 2    
   204  102  104 am   BACKBONE|DICT|INTERRES
   205  104  105 1    
   206  104  225 1    
   207  105  106 1    
   208  105  107 1    
   209  105  226 1    
   210  106  227 1    
   211  106  228 1    
   212  106  229 1    
   213  107  108 2    
   214  107  109 am   BACKBONE|DICT|INTERRES
   215  109  110 1    
   216  109  230 1    
   217  110  111 1    
   218  110  112 1    
   219  110  231 1    
   220  111  232 1    
   221  111  233 1    
   222  111  234 1    
   223  112  113 2    
   224  112  114 am   BACKBONE|DICT|INTERRES
   225  114  115 1    
   226  114  235 1    
   227  115  116 1    
   228  115  117 1    
   229  115  236 1    
   230  116  237 1    
   231  116  238 1    
   232  116  239 1    
   233  117  118 2    
   234  117  119 am   BACKBONE|DICT|INTERRES
   235  119  120 1    
   236  119  240 1    
   237  120  121 1    
   238  120  124 1    
   239  120  241 1    
   240  121  122 am   BACKBONE|DICT|INTERRES
   241  121  123 2    
   242  122  242 1    
   243  122  243 1    
   244  124  125 1    
   245  124  244 1    
   246  124  245 1    
   247  125  126 1    
   248  126  246 1    
   249  126  247 1    
@<TRIPOS>SUBSTRUCTURE
     1 UNK         1 GROUP             0       ****    0 ROOT    
