@<TRIPOS>MOLECULE
3R540
247   249    1
SMALL
USER_CHARGES


@<TRIPOS>ATOM
      1 CA         -2.2073  -13.0618  -42.6633 C.3       0 UNK        -0.1800 
      2 C          -2.3494  -13.1154  -44.1780 C.2       0 UNK         0.5000 
      3 O          -3.4553  -13.2994  -44.6856 O.2       0 UNK        -0.5000 
      4 N          -1.2369  -12.9511  -44.8982 N.am      1 UNK        -0.5000 
      5 CA         -1.1606  -12.8930  -46.3555 C.3       1 UNK         0.1400 
      6 C6         -1.3048  -14.2855  -47.0304 C.3       23 UNK        -0.0398 
      7 S7         -1.9794  -14.1570  -48.7215 S.3       23 UNK        -0.2404 
      8 C8         -2.4080  -15.8868  -49.0805 C.3       23 UNK        -0.0205 
      9 C9         -1.2079  -16.6734  -49.5844 C.ar      23 UNK        -0.0193 
     10 C10        -0.9256  -16.7186  -50.9523 C.ar      23 UNK        -0.1150 
     11 C11         0.1623  -17.4513  -51.4376 C.ar      23 UNK        -0.0193 
     12 C12         0.9893  -18.1199  -50.5275 C.ar      23 UNK        -0.1150 
     13 C13         0.7204  -18.0806  -49.1567 C.ar      23 UNK        -0.0193 
     14 C14        -0.3824  -17.3587  -48.6908 C.ar      23 UNK        -0.1150 
     15 C15         1.6312  -18.8061  -48.1787 C.3       23 UNK        -0.0205 
     16 S16         1.2905  -20.5937  -48.1121 S.3       23 UNK        -0.2404 
     17 C17        -0.4389  -20.6036  -47.5392 C.3       23 UNK        -0.0398 
     18 CA         -0.8259  -21.9187  -46.8211 C.3       11 UNK         0.1400 
     19 N          -0.1284  -22.0774  -45.5386 N.am      11 UNK        -0.5000 
     20 C          -0.0467  -23.1990  -44.8089 C.2       10 UNK         0.5000 
     21 O          -0.5875  -24.2602  -45.1206 O.2       10 UNK        -0.5000 
     22 CA          0.7101  -23.0907  -43.4739 C.3       10 UNK         0.1400 
     23 CB          2.2305  -23.1247  -43.6950 C.3       10 UNK        -0.1800 
     24 N           0.3432  -21.8693  -42.7548 N.am      10 UNK        -0.5000 
     25 C          -0.7715  -21.7293  -42.0232 C.2       9 UNK         0.5000 
     26 O          -1.5730  -22.6421  -41.8244 O.2       9 UNK        -0.5000 
     27 CA         -1.0564  -20.3341  -41.4302 C.3       9 UNK         0.1400 
     28 CB         -0.3873  -20.1793  -40.0565 C.3       9 UNK        -0.1800 
     29 N          -0.6257  -19.2402  -42.3004 N.am      9 UNK        -0.5000 
     30 C          -1.1628  -18.9632  -43.4964 C.2       8 UNK         0.5000 
     31 O          -2.1275  -19.5612  -43.9709 O.2       8 UNK        -0.5000 
     32 CA         -0.4784  -17.8601  -44.3240 C.3       8 UNK         0.1400 
     33 CB         -1.0912  -16.4921  -44.0028 C.3       8 UNK        -0.1800 
     34 N           0.9753  -17.7990  -44.1462 N.am      8 UNK        -0.5000 
     35 C           1.8269  -18.8100  -44.3729 C.2       7 UNK         0.5000 
     36 O           1.4735  -19.9208  -44.7588 O.2       7 UNK        -0.5000 
     37 CA          3.3121  -18.5592  -44.0745 C.3       7 UNK         0.1400 
     38 CB          3.9849  -17.7934  -45.2227 C.3       7 UNK        -0.1800 
     39 N           3.4865  -17.8372  -42.8162 N.am      7 UNK        -0.5000 
     40 C           3.2816  -18.3773  -41.6059 C.2       6 UNK         0.5000 
     41 O           2.9953  -19.5607  -41.4241 O.2       6 UNK        -0.5000 
     42 CA          3.3812  -17.4241  -40.4006 C.3       6 UNK         0.1400 
     43 CB          4.8323  -17.3277  -39.9063 C.3       6 UNK        -0.1800 
     44 N           2.8860  -16.0814  -40.7096 N.am      6 UNK        -0.5000 
     45 C           1.6005  -15.7840  -40.9488 C.2       5 UNK         0.5000 
     46 O           0.6846  -16.6035  -40.8754 O.2       5 UNK        -0.5000 
     47 CA          1.3034  -14.3399  -41.3989 C.3       5 UNK         0.1400 
     48 CB          1.0936  -13.4201  -40.1876 C.3       5 UNK        -0.1800 
     49 N           2.3571  -13.7893  -42.2599 N.am      5 UNK        -0.5000 
     50 C           2.6099  -14.2389  -43.4951 C.2       4 UNK         0.5000 
     51 O           1.9394  -15.1186  -44.0416 O.2       4 UNK        -0.5000 
     52 CA          3.8413  -13.6708  -44.2155 C.3       4 UNK         0.1400 
     53 CB          5.1102  -14.3551  -43.6609 C.3       4 UNK        -0.1800 
     54 N           3.6484  -13.9188  -45.6443 N.am      4 UNK        -0.5000 
     55 C           4.5181  -13.8339  -46.6576 C.2       3 UNK         0.5000 
     56 O           5.7043  -13.5244  -46.5449 O.2       3 UNK        -0.5000 
     57 CA          3.9298  -14.1076  -48.0561 C.3       3 UNK         0.1400 
     58 CB          3.5224  -15.5830  -48.2157 C.3       3 UNK        -0.1800 
     59 N           2.7721  -13.2559  -48.3331 N.am      3 UNK        -0.5000 
     60 C           2.8151  -11.9205  -48.4514 C.2       2 UNK         0.5000 
     61 O           3.8576  -11.2647  -48.4409 O.2       2 UNK        -0.5000 
     62 CA          1.4688  -11.1848  -48.6030 C.3       2 UNK         0.1400 
     63 CB          1.1791  -10.8978  -50.0844 C.3       2 UNK        -0.1800 
     64 N           0.3225  -11.8936  -48.0269 N.am      2 UNK        -0.5000 
     65 C           0.1542  -12.1836  -46.7305 C.2       1 UNK         0.5000 
     66 O           0.9832  -11.9195  -45.8541 O.2       1 UNK        -0.5000 
     67 C          -2.3623  -22.0421  -46.7220 C.2       11 UNK         0.5000 
     68 O          -3.0291  -21.9953  -47.7548 O.2       11 UNK        -0.5000 
     69 N          -2.9135  -22.2274  -45.5158 N.am      12 UNK        -0.5000 
     70 CA         -4.3025  -22.6252  -45.2902 C.3       12 UNK         0.1400 
     71 CB         -4.6026  -22.5545  -43.7862 C.3       12 UNK        -0.1800 
     72 C          -4.6134  -24.0330  -45.8447 C.2       12 UNK         0.5000 
     73 O          -5.7624  -24.2999  -46.1970 O.2       12 UNK        -0.5000 
     74 N          -3.5863  -24.8883  -45.9431 N.am      13 UNK        -0.5000 
     75 CA         -3.6228  -26.1791  -46.6228 C.3       13 UNK         0.1400 
     76 CB         -2.9458  -27.2256  -45.7250 C.3       13 UNK        -0.1800 
     77 C          -2.8770  -26.0665  -47.9629 C.2       13 UNK         0.5000 
     78 O          -1.9405  -25.2711  -48.0755 O.2       13 UNK        -0.5000 
     79 N          -3.2974  -26.8764  -48.9457 N.am      14 UNK        -0.5000 
     80 CA         -2.7622  -27.0395  -50.3086 C.3       14 UNK         0.1400 
     81 CB         -1.3141  -27.5651  -50.2832 C.3       14 UNK        -0.1800 
     82 C          -2.8854  -25.7918  -51.2058 C.2       14 UNK         0.5000 
     83 O          -3.4667  -25.8719  -52.2880 O.2       14 UNK        -0.5000 
     84 N          -2.3493  -24.6603  -50.7392 N.am      15 UNK        -0.5000 
     85 CA         -2.4733  -23.3450  -51.3615 C.3       15 UNK         0.1400 
     86 CB         -1.4055  -22.4117  -50.7749 C.3       15 UNK        -0.1800 
     87 C          -3.8770  -22.7445  -51.1860 C.2       15 UNK         0.5000 
     88 O          -4.3288  -22.0046  -52.0625 O.2       15 UNK        -0.5000 
     89 N          -4.5196  -23.0687  -50.0539 N.am      16 UNK        -0.5000 
     90 CA         -5.8376  -22.6178  -49.5955 C.3       16 UNK         0.1400 
     91 CB         -6.9478  -23.3131  -50.4055 C.3       16 UNK        -0.1800 
     92 C          -5.9711  -21.0812  -49.5818 C.2       16 UNK         0.5000 
     93 O          -6.9880  -20.5445  -50.0189 O.2       16 UNK        -0.5000 
     94 N          -4.9033  -20.3998  -49.1411 N.am      17 UNK        -0.5000 
     95 CA         -4.7161  -18.9436  -49.1605 C.3       17 UNK         0.1400 
     96 CB         -5.5977  -18.2731  -48.0882 C.3       17 UNK        -0.1800 
     97 C          -4.8972  -18.3305  -50.5700 C.2       17 UNK         0.5000 
     98 O          -5.4909  -17.2613  -50.7122 O.2       17 UNK        -0.5000 
     99 N          -4.3875  -19.0499  -51.5799 N.am      18 UNK        -0.5000 
    100 CA        -4.4492  -18.7760  -53.0184 C.3       18 UNK         0.1400 
    101 CB        -3.8683  -17.3952  -53.3845 C.3       18 UNK        -0.1800 
    102 C         -5.8155  -19.0522  -53.6748 C.2       18 UNK         0.5000 
    103 O         -6.0111  -18.6745  -54.8311 O.2       18 UNK        -0.5000 
    104 N         -6.7188  -19.7577  -52.9784 N.am      19 UNK        -0.5000 
    105 CA        -7.9317  -20.3187  -53.5815 C.3       19 UNK         0.1400 
    106 CB        -8.9962  -20.5503  -52.4986 C.3       19 UNK        -0.1800 
    107 C         -7.6493  -21.6231  -54.3569 C.2       19 UNK         0.5000 
    108 O         -8.4804  -22.0211  -55.1746 O.2       19 UNK        -0.5000 
    109 N         -6.5007  -22.2622  -54.0927 N.am      20 UNK        -0.5000 
    110 CA        -6.0420  -23.4853  -54.7409 C.3       20 UNK         0.1400 
    111 CB        -6.1498  -24.6613  -53.7527 C.3       20 UNK        -0.1800 
    112 C         -4.6371  -23.2519  -55.3263 C.2       20 UNK         0.5000 
    113 O         -4.4952  -22.3790  -56.1845 O.2       20 UNK        -0.5000 
    114 N         -3.6319  -24.0316  -54.8974 N.am      21 UNK        -0.5000 
    115 CA        -2.3243  -24.1649  -55.5560 C.3       21 UNK         0.1400 
    116 CB        -1.5031  -25.2540  -54.8475 C.3       21 UNK        -0.1800 
    117 C         -1.4881  -22.8766  -55.7092 C.2       21 UNK         0.5000 
    118 O         -0.6599  -22.8205  -56.6195 O.2       21 UNK        -0.5000 
    119 N         -1.7098  -21.8754  -54.8462 N.am      22 UNK        -0.5000 
    120 CA        -1.0673  -20.5491  -54.9375 C.3       22 UNK         0.1400 
    121 C         -1.9052  -19.5018  -55.7317 C.2       22 UNK         0.5000 
    122 N         -3.0719  -19.8428  -56.2676 N.am      22 UNK        -0.7600 
    123 O         -1.4891  -18.3570  -55.8783 O.2       22 UNK        -0.5000 
    124 C124       -0.6188  -20.0357  -53.5399 C.3       23 UNK        -0.0398 
    125 S125        0.9487  -19.1004  -53.5863 S.3       23 UNK        -0.2404 
    126 C126        0.4586  -17.4656  -52.9363 C.3       23 UNK        -0.0205 
    127 H127       -3.0075  -12.4613  -42.2307 H         1 UNK         0.0600 
    128 H128       -1.2575  -12.6178  -42.3650 H         1 UNK         0.0600 
    129 H129       -2.2679  -14.0657  -42.2433 H         1 UNK         0.0600 
    130 H130       -0.3508  -12.7527  -44.4486 H         1 UNK         0.3000 
    131 H131       -1.9737  -12.2438  -46.6883 H         1 UNK         0.0600 
    132 H132       -0.3585  -14.8292  -47.0435 H         1 UNK         0.0800 
    133 H133       -1.9990  -14.9043  -46.4613 H         1 UNK         0.0800 
    134 H134       -2.8378  -16.3610  -48.1972 H         1 UNK         0.0800 
    135 H135       -3.1923  -15.8927  -49.8385 H         1 UNK         0.0800 
    136 H136       -1.5511  -16.1651  -51.6370 H         1 UNK         0.1150 
    137 H137        1.8463  -18.6738  -50.8838 H         1 UNK         0.1150 
    138 H138       -0.5945  -17.3216  -47.6327 H         1 UNK         0.1150 
    139 H139        2.6715  -18.6560  -48.4704 H         1 UNK         0.0800 
    140 H140        1.5303  -18.3771  -47.1828 H         1 UNK         0.0800 
    141 H141       -1.0586  -20.4279  -48.4203 H         1 UNK         0.0800 
    142 H142       -0.6095  -19.7573  -46.8763 H         1 UNK         0.0800 
    143 H143       -0.5108  -22.7508  -47.4539 H         1 UNK         0.0600 
    144 H144        0.3890  -21.2605  -45.2168 H         1 UNK         0.3000 
    145 H145        0.4426  -23.9559  -42.8634 H         1 UNK         0.0600 
    146 H146        2.7667  -23.0762  -42.7472 H         1 UNK         0.0600 
    147 H147        2.5294  -24.0484  -44.1918 H         1 UNK         0.0600 
    148 H148        2.5728  -22.2956  -44.3146 H         1 UNK         0.0600 
    149 H149        0.9265  -21.0584  -42.9152 H         1 UNK         0.3000 
    150 H150       -2.1365  -20.2473  -41.2940 H         1 UNK         0.0600 
    151 H151       -0.7282  -20.9526  -39.3671 H         1 UNK         0.0600 
    152 H152       -0.6253  -19.2144  -39.6079 H         1 UNK         0.0600 
    153 H153        0.6981  -20.2569  -40.1260 H         1 UNK         0.0600 
    154 H154        0.1410  -18.6667  -41.9732 H         1 UNK         0.3000 
    155 H155       -0.6674  -18.0700  -45.3759 H         1 UNK         0.0600 
    156 H156       -0.9827  -16.2391  -42.9487 H         1 UNK         0.0600 
    157 H157       -2.1564  -16.4748  -44.2366 H         1 UNK         0.0600 
    158 H158       -0.6149  -15.7054  -44.5847 H         1 UNK         0.0600 
    159 H159        1.3546  -16.8917  -43.8885 H         1 UNK         0.3000 
    160 H160        3.8037  -19.5306  -43.9857 H         1 UNK         0.0600 
    161 H161        3.5309  -16.8161  -45.3799 H         1 UNK         0.0600 
    162 H162        3.9034  -18.3472  -46.1584 H         1 UNK         0.0600 
    163 H163        5.0471  -17.6448  -45.0292 H         1 UNK         0.0600 
    164 H164        3.6860  -16.8515  -42.8782 H         1 UNK         0.3000 
    165 H165        2.7705  -17.8390  -39.5956 H         1 UNK         0.0600 
    166 H166        4.9036  -16.7094  -39.0113 H         1 UNK         0.0600 
    167 H167        5.2232  -18.3135  -39.6507 H         1 UNK         0.0600 
    168 H168        5.4901  -16.8999  -40.6640 H         1 UNK         0.0600 
    169 H169        3.5726  -15.3452  -40.7761 H         1 UNK         0.3000 
    170 H170        0.3754  -14.3639  -41.9722 H         1 UNK         0.0600 
    171 H171        0.2979  -13.7985  -39.5445 H         1 UNK         0.0600 
    172 H172        1.9962  -13.3384  -39.5808 H         1 UNK         0.0600 
    173 H173        0.8066  -12.4161  -40.5006 H         1 UNK         0.0600 
    174 H174        2.9378  -13.0634  -41.8645 H         1 UNK         0.3000 
    175 H175        3.8866  -12.5936  -44.0485 H         1 UNK         0.0600 
    176 H176        5.1607  -15.4063  -43.9425 H         1 UNK         0.0600 
    177 H177        6.0168  -13.8697  -44.0204 H         1 UNK         0.0600 
    178 H178        5.1480  -14.3048  -42.5721 H         1 UNK         0.0600 
    179 H179        2.6976  -14.1925  -45.8557 H         1 UNK         0.3000 
    180 H180        4.7021  -13.8857  -48.7956 H         1 UNK         0.0600 
    181 H181        2.7011  -15.8542  -47.5514 H         1 UNK         0.0600 
    182 H182        4.3593  -16.2459  -47.9929 H         1 UNK         0.0600 
    183 H183        3.2047  -15.7951  -49.2369 H         1 UNK         0.0600 
    184 H184        1.8719  -13.7080  -48.3803 H         1 UNK         0.3000 
    185 H185        1.5620  -10.2298  -48.0817 H         1 UNK         0.0600 
    186 H186        1.9999  -10.3457  -50.5443 H         1 UNK         0.0600 
    187 H187        1.0434  -11.8188  -50.6529 H         1 UNK         0.0600 
    188 H188        0.2787  -10.2944  -50.2014 H         1 UNK         0.0600 
    189 H189       -0.4016  -12.1706  -48.6765 H         1 UNK         0.3000 
    190 H190       -2.3114  -22.1987  -44.7059 H         1 UNK         0.3000 
    191 H191       -4.9480  -21.9116  -45.8067 H         1 UNK         0.0600 
    192 H192       -4.4204  -21.5532  -43.3945 H         1 UNK         0.0600 
    193 H193       -5.6459  -22.7996  -43.5838 H         1 UNK         0.0600 
    194 H194       -3.9843  -23.2526  -43.2204 H         1 UNK         0.0600 
    195 H195       -2.6584  -24.5644  -45.6909 H         1 UNK         0.3000 
    196 H196       -4.6528  -26.4889  -46.8110 H         1 UNK         0.0600 
    197 H197       -2.9529  -28.2100  -46.1947 H         1 UNK         0.0600 
    198 H198       -3.4626  -27.3170  -44.7695 H         1 UNK         0.0600 
    199 H199       -1.9061  -26.9661  -45.5189 H         1 UNK         0.0600 
    200 H200       -4.0897  -27.4709  -48.7439 H         1 UNK         0.3000 
    201 H201       -3.3758  -27.8128  -50.7737 H         1 UNK         0.0600 
    202 H202       -1.2459  -28.5017  -49.7299 H         1 UNK         0.0600 
    203 H203       -0.6264  -26.8549  -49.8232 H         1 UNK         0.0600 
    204 H204       -0.9531  -27.7581  -51.2942 H         1 UNK         0.0600 
    205 H205       -1.9299  -24.7002  -49.8124 H         1 UNK         0.3000 
    206 H206       -2.2941  -23.4380  -52.4319 H         1 UNK         0.0600 
    207 H207       -0.4179  -22.6512  -51.1690 H         1 UNK         0.0600 
    208 H208       -1.6109  -21.3651  -51.0015 H         1 UNK         0.0600 
    209 H209       -1.3520  -22.5017  -49.6926 H         1 UNK         0.0600 
    210 H210       -4.0008  -23.6170  -49.3830 H         1 UNK         0.3000 
    211 H211       -5.9321  -22.9396  -48.5584 H         1 UNK         0.0600 
    212 H212       -6.9478  -22.9891  -51.4445 H         1 UNK         0.0600 
    213 H213       -7.9322  -23.0904  -49.9924 H         1 UNK         0.0600 
    214 H214       -6.8273  -24.3963  -50.3919 H         1 UNK         0.0600 
    215 H215       -4.1296  -20.9462  -48.7650 H         1 UNK         0.3000 
    216 H216       -3.6746  -18.7687  -48.8868 H         1 UNK         0.0600 
    217 H217       -5.3851  -17.2058  -48.0162 H         1 UNK         0.0600 
    218 H218       -5.4171  -18.7062  -47.1044 H         1 UNK         0.0600 
    219 H219       -6.6591  -18.3816  -48.3133 H         1 UNK         0.0600 
    220 H220       -4.0054  -19.9578  -51.3487 H         1 UNK         0.3000 
    221 H221       -3.7904  -19.5207  -53.4628 H         1 UNK         0.0600 
    222 H222       -4.4557  -16.5742  -52.9748 H         1 UNK         0.0600 
    223 H223       -2.8472  -17.3007  -53.0253 H         1 UNK         0.0600 
    224 H224       -3.8324  -17.2568  -54.4655 H         1 UNK         0.0600 
    225 H225       -6.5294  -20.0104  -52.0149 H         1 UNK         0.3000 
    226 H226       -8.3404  -19.5960  -54.2909 H         1 UNK         0.0600 
    227 H227       -9.1635  -19.6503  -51.9066 H         1 UNK         0.0600 
    228 H228       -9.9506  -20.8272  -52.9477 H         1 UNK         0.0600 
    229 H229       -8.7156  -21.3536  -51.8186 H         1 UNK         0.0600 
    230 H230       -5.8594  -21.8651  -53.4145 H         1 UNK         0.3000 
    231 H231       -6.6766  -23.7201  -55.5975 H         1 UNK         0.0600 
    232 H232       -5.5811  -24.4795  -52.8429 H         1 UNK         0.0600 
    233 H233       -5.7931  -25.5922  -54.1953 H         1 UNK         0.0600 
    234 H234       -7.1869  -24.8248  -53.4596 H         1 UNK         0.0600 
    235 H235       -3.8199  -24.6983  -54.1570 H         1 UNK         0.3000 
    236 H236       -2.5281  -24.5185  -56.5688 H         1 UNK         0.0600 
    237 H237       -2.0495  -26.1961  -54.8014 H         1 UNK         0.0600 
    238 H238       -0.5712  -25.4481  -55.3800 H         1 UNK         0.0600 
    239 H239       -1.2399  -24.9682  -53.8296 H         1 UNK         0.0600 
    240 H240       -2.4481  -21.9797  -54.1666 H         1 UNK         0.3000 
    241 H241       -0.1587  -20.6671  -55.5303 H         1 UNK         0.0600 
    242 H242       -3.5973  -19.1481  -56.7733 H         1 UNK         0.3800 
    243 H243       -3.4418  -20.7868  -56.2000 H         1 UNK         0.3800 
    244 H244       -1.4008  -19.4605  -53.0431 H         1 UNK         0.0800 
    245 H245       -0.4142  -20.8856  -52.8920 H         1 UNK         0.0800 
    246 H246       -0.3991  -17.1059  -53.5067 H         1 UNK         0.0800 
    247 H247        1.2695  -16.7621  -53.1277 H         1 UNK         0.0800 
@<TRIPOS>BOND
     1    1    2 1    
     2    1  127 1    
     3    1  128 1    
     4    1  129 1    
     5    2    3 2    
     6    2    4 am   BACKBONE|DICT|INTERRES
     7    4    5 1    
     8    4  130 1    
     9    5    6 1    
    10    5   65 1    
    11    5  131 1    
    12    6    7 1    
    13    6  132 1    
    14    6  133 1    
    15    7    8 1    
    16    8    9 1    
    17    8  134 1    
    18    8  135 1    
    19    9   10 ar   
    20    9   14 ar   
    21   10   11 ar   
    22   10  136 1    
    23   11   12 ar   
    24   11  126 1    
    25   12   13 ar   
    26   12  137 1    
    27   13   14 ar   
    28   13   15 1    
    29   14  138 1    
    30   15   16 1    
    31   15  139 1    
    32   15  140 1    
    33   16   17 1    
    34   17   18 1    
    35   17  141 1    
    36   17  142 1    
    37   18   19 1    
    38   18   67 1    
    39   18  143 1    
    40   19   20 am   BACKBONE|DICT|INTERRES
    41   19  144 1    
    42   20   21 2    
    43   20   22 1    
    44   22   23 1    
    45   22   24 1    
    46   22  145 1    
    47   23  146 1    
    48   23  147 1    
    49   23  148 1    
    50   24   25 am   BACKBONE|DICT|INTERRES
    51   24  149 1    
    52   25   26 2    
    53   25   27 1    
    54   27   28 1    
    55   27   29 1    
    56   27  150 1    
    57   28  151 1    
    58   28  152 1    
    59   28  153 1    
    60   29   30 am   BACKBONE|DICT|INTERRES
    61   29  154 1    
    62   30   31 2    
    63   30   32 1    
    64   32   33 1    
    65   32   34 1    
    66   32  155 1    
    67   33  156 1    
    68   33  157 1    
    69   33  158 1    
    70   34   35 am   BACKBONE|DICT|INTERRES
    71   34  159 1    
    72   35   36 2    
    73   35   37 1    
    74   37   38 1    
    75   37   39 1    
    76   37  160 1    
    77   38  161 1    
    78   38  162 1    
    79   38  163 1    
    80   39   40 am   BACKBONE|DICT|INTERRES
    81   39  164 1    
    82   40   41 2    
    83   40   42 1    
    84   42   43 1    
    85   42   44 1    
    86   42  165 1    
    87   43  166 1    
    88   43  167 1    
    89   43  168 1    
    90   44   45 am   BACKBONE|DICT|INTERRES
    91   44  169 1    
    92   45   46 2    
    93   45   47 1    
    94   47   48 1    
    95   47   49 1    
    96   47  170 1    
    97   48  171 1    
    98   48  172 1    
    99   48  173 1    
   100   49   50 am   BACKBONE|DICT|INTERRES
   101   49  174 1    
   102   50   51 2    
   103   50   52 1    
   104   52   53 1    
   105   52   54 1    
   106   52  175 1    
   107   53  176 1    
   108   53  177 1    
   109   53  178 1    
   110   54   55 am   BACKBONE|DICT|INTERRES
   111   54  179 1    
   112   55   56 2    
   113   55   57 1    
   114   57   58 1    
   115   57   59 1    
   116   57  180 1    
   117   58  181 1    
   118   58  182 1    
   119   58  183 1    
   120   59   60 am   BACKBONE|DICT|INTERRES
   121   59  184 1    
   122   60   61 2    
   123   60   62 1    
   124   62   63 1    
   125   62   64 1    
   126   62  185 1    
   127   63  186 1    
   128   63  187 1    
   129   63  188 1    
   130   64   65 am   BACKBONE|DICT|INTERRES
   131   64  189 1    
   132   65   66 2    
   133   67   68 2    
   134   67   69 am   BACKBONE|DICT|INTERRES
   135   69   70 1    
   136   69  190 1    
   137   70   71 1    
   138   70   72 1    
   139   70  191 1    
   140   71  192 1    
   141   71  193 1    
   142   71  194 1    
   143   72   73 2    
   144   72   74 am   BACKBONE|DICT|INTERRES
   145   74   75 1    
   146   74  195 1    
   147   75   76 1    
   148   75   77 1    
   149   75  196 1    
   150   76  197 1    
   151   76  198 1    
   152   76  199 1    
   153   77   78 2    
   154   77   79 am   BACKBONE|DICT|INTERRES
   155   79   80 1    
   156   79  200 1    
   157   80   81 1    
   158   80   82 1    
   159   80  201 1    
   160   81  202 1    
   161   81  203 1    
   162   81  204 1    
   163   82   83 2    
   164   82   84 am   BACKBONE|DICT|INTERRES
   165   84   85 1    
   166   84  205 1    
   167   85   86 1    
   168   85   87 1    
   169   85  206 1    
   170   86  207 1    
   171   86  208 1    
   172   86  209 1    
   173   87   88 2    
   174   87   89 am   BACKBONE|DICT|INTERRES
   175   89   90 1    
   176   89  210 1    
   177   90   91 1    
   178   90   92 1    
   179   90  211 1    
   180   91  212 1    
   181   91  213 1    
   182   91  214 1    
   183   92   93 2    
   184   92   94 am   BACKBONE|DICT|INTERRES
   185   94   95 1    
   186   94  215 1    
   187   95   96 1    
   188   95   97 1    
   189   95  216 1    
   190   96  217 1    
   191   96  218 1    
   192   96  219 1    
   193   97   98 2    
   194   97   99 am   BACKBONE|DICT|INTERRES
   195   99  100 1    
   196   99  220 1    
   197  100  101 1    
   198  100  102 1    
   199  100  221 1    
   200  101  222 1    
   201  101  223 1    
   202  101  224 1    
   203  102  103 2    
   204  102  104 am   BACKBONE|DICT|INTERRES
   205  104  105 1    
   206  104  225 1    
   207  105  106 1    
   208  105  107 1    
   209  105  226 1    
   210  106  227 1    
   211  106  228 1    
   212  106  229 1    
   213  107  108 2    
   214  107  109 am   BACKBONE|DICT|INTERRES
   215  109  110 1    
   216  109  230 1    
   217  110  111 1    
   218  110  112 1    
   219  110  231 1    
   220  111  232 1    
   221  111  233 1    
   222  111  234 1    
   223  112  113 2    
   224  112  114 am   BACKBONE|DICT|INTERRES
   225  114  115 1    
   226  114  235 1    
   227  115  116 1    
   228  115  117 1    
   229  115  236 1    
   230  116  237 1    
   231  116  238 1    
   232  116  239 1    
   233  117  118 2    
   234  117  119 am   BACKBONE|DICT|INTERRES
   235  119  120 1    
   236  119  240 1    
   237  120  121 1    
   238  120  124 1    
   239  120  241 1    
   240  121  122 am   BACKBONE|DICT|INTERRES
   241  121  123 2    
   242  122  242 1    
   243  122  243 1    
   244  124  125 1    
   245  124  244 1    
   246  124  245 1    
   247  125  126 1    
   248  126  246 1    
   249  126  247 1    
@<TRIPOS>SUBSTRUCTURE
     1 UNK         1 GROUP             0       ****    0 ROOT    
