@<TRIPOS>MOLECULE
3R540
247   249    1
SMALL
USER_CHARGES


@<TRIPOS>ATOM
      1 CA         -0.8872  -13.1654  -49.3851 C.3       0 UNK        -0.1800 
      2 C           0.3846  -12.3738  -49.1129 C.2       0 UNK         0.5000 
      3 O           0.5833  -11.3126  -49.7049 O.2       0 UNK        -0.5000 
      4 N           1.2474  -12.8880  -48.2285 N.am      1 UNK        -0.5000 
      5 CA          2.4908  -12.2391  -47.8023 C.3       1 UNK         0.1400 
      6 C6          3.4685  -13.2319  -47.1258 C.3       23 UNK        -0.0398 
      7 S7          4.0017  -14.5667  -48.2513 S.3       23 UNK        -0.2404 
      8 C8          3.0365  -15.9793  -47.6273 C.3       23 UNK        -0.0205 
      9 C9          2.5217  -16.8516  -48.7621 C.ar      23 UNK        -0.0193 
     10 C10         1.5653  -16.3505  -49.6507 C.ar      23 UNK        -0.1150 
     11 C11         1.0811  -17.1411  -50.6946 C.ar      23 UNK        -0.0193 
     12 C12         1.5582  -18.4447  -50.8469 C.ar      23 UNK        -0.1150 
     13 C13         2.5014  -18.9654  -49.9574 C.ar      23 UNK        -0.0193 
     14 C14         2.9812  -18.1633  -48.9164 C.ar      23 UNK        -0.1150 
     15 C15         2.9909  -20.3987  -50.1181 C.3       23 UNK        -0.0205 
     16 S16         1.6440  -21.6125  -49.9261 S.3       23 UNK        -0.2404 
     17 C17         0.9845  -21.1378  -48.2940 C.3       23 UNK        -0.0398 
     18 CA          0.3456  -22.3131  -47.5222 C.3       11 UNK         0.1400 
     19 N           0.2399  -22.0141  -46.0925 N.am      11 UNK        -0.5000 
     20 C          -0.1132  -22.8942  -45.1464 C.2       10 UNK         0.5000 
     21 O          -0.3441  -24.0813  -45.3699 O.2       10 UNK        -0.5000 
     22 CA         -0.2853  -22.3464  -43.7187 C.3       10 UNK         0.1400 
     23 CB          1.0741  -22.2151  -43.0165 C.3       10 UNK        -0.1800 
     24 N          -0.9855  -21.0610  -43.6925 N.am      10 UNK        -0.5000 
     25 C          -2.2523  -20.8832  -44.0949 C.2       9 UNK         0.5000 
     26 O          -2.9796  -21.7990  -44.4783 O.2       9 UNK        -0.5000 
     27 CA         -2.7828  -19.4380  -44.1198 C.3       9 UNK         0.1400 
     28 CB         -3.2100  -18.9863  -42.7156 C.3       9 UNK        -0.1800 
     29 N          -1.8162  -18.4875  -44.6711 N.am      9 UNK        -0.5000 
     30 C          -1.3459  -18.5182  -45.9266 C.2       8 UNK         0.5000 
     31 O          -1.7038  -19.3364  -46.7726 O.2       8 UNK        -0.5000 
     32 CA         -0.2475  -17.4993  -46.2784 C.3       8 UNK         0.1400 
     33 CB         -0.8515  -16.1133  -46.5541 C.3       8 UNK        -0.1800 
     34 N           0.7705  -17.4081  -45.2293 N.am      8 UNK        -0.5000 
     35 C           1.5798  -18.4206  -44.8822 C.2       7 UNK         0.5000 
     36 O           1.5986  -19.5088  -45.4552 O.2       7 UNK        -0.5000 
     37 CA          2.4750  -18.2054  -43.6515 C.3       7 UNK         0.1400 
     38 CB          3.7767  -17.4859  -44.0340 C.3       7 UNK        -0.1800 
     39 N           1.7781  -17.4652  -42.5991 N.am      7 UNK        -0.5000 
     40 C           0.7823  -17.9785  -41.8604 C.2       6 UNK         0.5000 
     41 O           0.3848  -19.1379  -41.9670 O.2       6 UNK        -0.5000 
     42 CA          0.0834  -17.0311  -40.8672 C.3       6 UNK         0.1400 
     43 CB          0.8217  -17.0211  -39.5208 C.3       6 UNK        -0.1800 
     44 N          -0.0245  -15.6617  -41.3699 N.am      6 UNK        -0.5000 
     45 C          -0.7399  -15.2955  -42.4432 C.2       5 UNK         0.5000 
     46 O          -1.4421  -16.0720  -43.0896 O.2       5 UNK        -0.5000 
     47 CA         -0.5994  -13.8310  -42.9023 C.3       5 UNK         0.1400 
     48 CB         -1.6924  -12.9571  -42.2713 C.3       5 UNK        -0.1800 
     49 N           0.7141  -13.2618  -42.5901 N.am      5 UNK        -0.5000 
     50 C           1.8755  -13.6849  -43.1038 C.2       4 UNK         0.5000 
     51 O           1.9484  -14.5889  -43.9390 O.2       4 UNK        -0.5000 
     52 CA          3.1549  -13.0116  -42.5602 C.3       4 UNK         0.1400 
     53 CB          4.4354  -13.5284  -43.2390 C.3       4 UNK        -0.1800 
     54 N           3.1219  -11.5538  -42.6732 N.am      4 UNK        -0.5000 
     55 C           2.4384  -10.7012  -41.9017 C.2       3 UNK         0.5000 
     56 O           1.7158  -11.0650  -40.9726 O.2       3 UNK        -0.5000 
     57 CA          2.5487   -9.1972  -42.2322 C.3       3 UNK         0.1400 
     58 CB          3.8065   -8.5779  -41.5936 C.3       3 UNK        -0.1800 
     59 N           2.4551   -8.8780  -43.6656 N.am      3 UNK        -0.5000 
     60 C           3.3026   -9.1930  -44.6544 C.2       2 UNK         0.5000 
     61 O           4.3682   -9.7929  -44.4922 O.2       2 UNK        -0.5000 
     62 CA          2.8634   -8.8154  -46.0798 C.3       2 UNK         0.1400 
     63 CB          3.7408   -7.6865  -46.6419 C.3       2 UNK        -0.1800 
     64 N           2.9391   -9.9763  -46.9673 N.am      2 UNK        -0.5000 
     65 C           2.1744  -11.0699  -46.8493 C.2       1 UNK         0.5000 
     66 O           1.2708  -11.1873  -46.0170 O.2       1 UNK        -0.5000 
     67 C          -1.0146  -22.7292  -48.1226 C.2       11 UNK         0.5000 
     68 O          -1.0818  -23.7298  -48.8361 O.2       11 UNK        -0.5000 
     69 N          -2.0820  -21.9946  -47.7781 N.am      12 UNK        -0.5000 
     70 CA         -3.4599  -22.2958  -48.1674 C.3       12 UNK         0.1400 
     71 CB         -4.3841  -21.1577  -47.7105 C.3       12 UNK        -0.1800 
     72 C          -3.9514  -23.6495  -47.6245 C.2       12 UNK         0.5000 
     73 O          -4.5661  -24.4141  -48.3689 O.2       12 UNK        -0.5000 
     74 N          -3.6380  -23.9385  -46.3538 N.am      13 UNK        -0.5000 
     75 CA         -3.9305  -25.2119  -45.6955 C.3       13 UNK         0.1400 
     76 CB         -3.6485  -25.0894  -44.1906 C.3       13 UNK        -0.1800 
     77 C          -3.1533  -26.3941  -46.3044 C.2       13 UNK         0.5000 
     78 O          -3.7218  -27.4764  -46.4495 O.2       13 UNK        -0.5000 
     79 N          -1.8827  -26.1647  -46.6663 N.am      14 UNK        -0.5000 
     80 CA         -1.0229  -27.1347  -47.3457 C.3       14 UNK         0.1400 
     81 CB          0.4313  -26.6394  -47.3326 C.3       14 UNK        -0.1800 
     82 C          -1.4876  -27.4343  -48.7825 C.2       14 UNK         0.5000 
     83 O          -1.4483  -28.5931  -49.1984 O.2       14 UNK        -0.5000 
     84 N          -1.9351  -26.3963  -49.5050 N.am      15 UNK        -0.5000 
     85 CA         -2.5435  -26.5063  -50.8317 C.3       15 UNK         0.1400 
     86 CB         -2.7211  -25.1056  -51.4415 C.3       15 UNK        -0.1800 
     87 C          -3.8841  -27.2616  -50.7900 C.2       15 UNK         0.5000 
     88 O          -4.1029  -28.1535  -51.6117 O.2       15 UNK        -0.5000 
     89 N          -4.7319  -26.9041  -49.8132 N.am      16 UNK        -0.5000 
     90 CA         -6.0518  -27.4503  -49.4780 C.3       16 UNK         0.1400 
     91 CB         -5.9691  -28.9411  -49.0976 C.3       16 UNK        -0.1800 
     92 C          -7.1198  -27.1940  -50.5571 C.2       16 UNK         0.5000 
     93 O          -8.1437  -26.5748  -50.2653 O.2       16 UNK        -0.5000 
     94 N          -6.8563  -27.6509  -51.7857 N.am      17 UNK        -0.5000 
     95 CA         -7.6273  -27.3334  -52.9826 C.3       17 UNK         0.1400 
     96 CB         -7.2607  -28.3278  -54.0939 C.3       17 UNK        -0.1800 
     97 C          -7.3311  -25.8911  -53.4248 C.2       17 UNK         0.5000 
     98 O          -6.1792  -25.4555  -53.3471 O.2       17 UNK        -0.5000 
     99 N          -8.3753  -25.1744  -53.8604 N.am      18 UNK        -0.5000 
    100 CA        -8.4084  -23.7736  -54.3121 C.3       18 UNK         0.1400 
    101 CB        -7.5138  -23.5608  -55.5486 C.3       18 UNK        -0.1800 
    102 C         -8.0970  -22.7214  -53.2259 C.2       18 UNK         0.5000 
    103 O         -8.6949  -21.6454  -53.2535 O.2       18 UNK        -0.5000 
    104 N         -7.1719  -23.0323  -52.3074 N.am      19 UNK        -0.5000 
    105 CA        -6.6739  -22.2584  -51.1611 C.3       19 UNK         0.1400 
    106 CB        -7.8086  -21.9286  -50.1739 C.3       19 UNK        -0.1800 
    107 C         -5.8723  -20.9952  -51.5348 C.2       19 UNK         0.5000 
    108 O         -4.8769  -20.6955  -50.8760 O.2       19 UNK        -0.5000 
    109 N         -6.2860  -20.2890  -52.5921 N.am      20 UNK        -0.5000 
    110 CA        -5.6228  -19.1232  -53.1711 C.3       20 UNK         0.1400 
    111 CB        -6.6318  -18.3777  -54.0624 C.3       20 UNK        -0.1800 
    112 C         -4.3446  -19.5256  -53.9350 C.2       20 UNK         0.5000 
    113 O         -4.3085  -19.4667  -55.1654 O.2       20 UNK        -0.5000 
    114 N         -3.3147  -19.9364  -53.1840 N.am      21 UNK        -0.5000 
    115 CA        -2.0214  -20.4273  -53.6733 C.3       21 UNK         0.1400 
    116 CB        -1.1780  -20.8689  -52.4659 C.3       21 UNK        -0.1800 
    117 C         -1.2397  -19.4256  -54.5510 C.2       21 UNK         0.5000 
    118 O         -0.4456  -19.8500  -55.3913 O.2       21 UNK        -0.5000 
    119 N         -1.4973  -18.1273  -54.3553 N.am      22 UNK        -0.5000 
    120 CA        -0.9710  -17.0188  -55.1685 C.3       22 UNK         0.1400 
    121 C         -1.8953  -16.6265  -56.3611 C.2       22 UNK         0.5000 
    122 N         -3.0231  -17.2878  -56.5953 N.am      22 UNK        -0.7600 
    123 O         -1.5745  -15.7067  -57.1090 O.2       22 UNK        -0.5000 
    124 C124       -0.6231  -15.7908  -54.2848 C.3       23 UNK        -0.0398 
    125 S125        0.8291  -16.1017  -53.2263 S.3       23 UNK        -0.2404 
    126 C126        0.0462  -16.5952  -51.6624 C.3       23 UNK        -0.0205 
    127 H127       -0.9855  -13.3606  -50.4529 H         1 UNK         0.0600 
    128 H128       -0.8921  -14.1222  -48.8641 H         1 UNK         0.0600 
    129 H129       -1.7586  -12.5969  -49.0604 H         1 UNK         0.0600 
    130 H130        1.0105  -13.7344  -47.7364 H         1 UNK         0.3000 
    131 H131        2.9818  -11.8339  -48.6901 H         1 UNK         0.0600 
    132 H132        3.0275  -13.6574  -46.2234 H         1 UNK         0.0800 
    133 H133        4.3698  -12.7094  -46.8002 H         1 UNK         0.0800 
    134 H134        3.6628  -16.5572  -46.9469 H         1 UNK         0.0800 
    135 H135        2.1887  -15.6333  -47.0390 H         1 UNK         0.0800 
    136 H136        1.2088  -15.3384  -49.5381 H         1 UNK         0.1150 
    137 H137        1.1914  -19.0585  -51.6573 H         1 UNK         0.1150 
    138 H138        3.7096  -18.5611  -48.2237 H         1 UNK         0.1150 
    139 H139        3.4365  -20.5157  -51.1067 H         1 UNK         0.0800 
    140 H140        3.7777  -20.6241  -49.3965 H         1 UNK         0.0800 
    141 H141        0.2850  -20.3085  -48.4137 H         1 UNK         0.0800 
    142 H142        1.8202  -20.7444  -47.7150 H         1 UNK         0.0800 
    143 H143        1.0144  -23.1724  -47.6070 H         1 UNK         0.0600 
    144 H144        0.4604  -21.0623  -45.8143 H         1 UNK         0.3000 
    145 H145       -0.8873  -23.0647  -43.1584 H         1 UNK         0.0600 
    146 H146        0.9528  -21.9035  -41.9790 H         1 UNK         0.0600 
    147 H147        1.6036  -23.1686  -43.0099 H         1 UNK         0.0600 
    148 H148        1.7156  -21.4863  -43.5119 H         1 UNK         0.0600 
    149 H149       -0.4672  -20.2671  -43.3290 H         1 UNK         0.3000 
    150 H150       -3.6649  -19.4203  -44.7629 H         1 UNK         0.0600 
    151 H151       -3.9638  -19.6577  -42.3028 H         1 UNK         0.0600 
    152 H152       -3.6416  -17.9854  -42.7376 H         1 UNK         0.0600 
    153 H153       -2.3687  -18.9721  -42.0229 H         1 UNK         0.0600 
    154 H154       -1.5075  -17.7419  -44.0535 H         1 UNK         0.3000 
    155 H155        0.2436  -17.8431  -47.1911 H         1 UNK         0.0600 
    156 H156       -1.4088  -15.7331  -45.6986 H         1 UNK         0.0600 
    157 H157       -1.5416  -16.1564  -47.3975 H         1 UNK         0.0600 
    158 H158       -0.0841  -15.3819  -46.7994 H         1 UNK         0.0600 
    159 H159        0.8201  -16.5460  -44.7027 H         1 UNK         0.3000 
    160 H160        2.7415  -19.1881  -43.2567 H         1 UNK         0.0600 
    161 H161        4.4202  -17.3448  -43.1656 H         1 UNK         0.0600 
    162 H162        3.5889  -16.5082  -44.4757 H         1 UNK         0.0600 
    163 H163        4.3397  -18.0685  -44.7642 H         1 UNK         0.0600 
    164 H164        2.0117  -16.4879  -42.5002 H         1 UNK         0.3000 
    165 H165       -0.9271  -17.4096  -40.7006 H         1 UNK         0.0600 
    166 H166        0.2936  -16.4132  -38.7859 H         1 UNK         0.0600 
    167 H167        0.8991  -18.0292  -39.1113 H         1 UNK         0.0600 
    168 H168        1.8342  -16.6274  -39.6181 H         1 UNK         0.0600 
    169 H169        0.5165  -14.9562  -40.8926 H         1 UNK         0.3000 
    170 H170       -0.7253  -13.8109  -43.9869 H         1 UNK         0.0600 
    171 H171       -2.6852  -13.3447  -42.5042 H         1 UNK         0.0600 
    172 H172       -1.6001  -12.9182  -41.1852 H         1 UNK         0.0600 
    173 H173       -1.6460  -11.9355  -42.6491 H         1 UNK         0.0600 
    174 H174        0.7466  -12.5064  -41.9126 H         1 UNK         0.3000 
    175 H175        3.2194  -13.2708  -41.5016 H         1 UNK         0.0600 
    176 H176        4.4529  -13.2902  -44.3020 H         1 UNK         0.0600 
    177 H177        5.3241  -13.0889  -42.7859 H         1 UNK         0.0600 
    178 H178        4.5263  -14.6103  -43.1392 H         1 UNK         0.0600 
    179 H179        3.6769  -11.1437  -43.4198 H         1 UNK         0.3000 
    180 H180        1.6839   -8.7172  -41.7711 H         1 UNK         0.0600 
    181 H181        4.7243   -9.0248  -41.9762 H         1 UNK         0.0600 
    182 H182        3.8028   -8.7228  -40.5126 H         1 UNK         0.0600 
    183 H183        3.8539   -7.5045  -41.7771 H         1 UNK         0.0600 
    184 H184        1.5937   -8.4193  -43.9290 H         1 UNK         0.3000 
    185 H185        1.8279   -8.4689  -46.0593 H         1 UNK         0.0600 
    186 H186        3.6898   -6.8010  -46.0071 H         1 UNK         0.0600 
    187 H187        4.7884   -7.9836  -46.7068 H         1 UNK         0.0600 
    188 H188        3.4130   -7.3905  -47.6386 H         1 UNK         0.0600 
    189 H189        3.6772   -9.9618  -47.6561 H         1 UNK         0.3000 
    190 H190       -1.9418  -21.1527  -47.2249 H         1 UNK         0.3000 
    191 H191       -3.4900  -22.3465  -49.2573 H         1 UNK         0.0600 
    192 H192       -4.3701  -21.0313  -46.6286 H         1 UNK         0.0600 
    193 H193       -5.4152  -21.3524  -48.0042 H         1 UNK         0.0600 
    194 H194       -4.0915  -20.2095  -48.1620 H         1 UNK         0.0600 
    195 H195       -3.1776  -23.2291  -45.7903 H         1 UNK         0.3000 
    196 H196       -4.9955  -25.4157  -45.8244 H         1 UNK         0.0600 
    197 H197       -2.6012  -24.8592  -43.9941 H         1 UNK         0.0600 
    198 H198       -3.8839  -26.0195  -43.6718 H         1 UNK         0.0600 
    199 H199       -4.2533  -24.3026  -43.7394 H         1 UNK         0.0600 
    200 H200       -1.4650  -25.2660  -46.4429 H         1 UNK         0.3000 
    201 H201       -1.0642  -28.0696  -46.7828 H         1 UNK         0.0600 
    202 H202        0.7906  -26.5000  -46.3130 H         1 UNK         0.0600 
    203 H203        0.5398  -25.6905  -47.8579 H         1 UNK         0.0600 
    204 H204        1.0933  -27.3594  -47.8152 H         1 UNK         0.0600 
    205 H205       -1.8525  -25.4604  -49.1164 H         1 UNK         0.3000 
    206 H206       -1.8606  -27.0702  -51.4702 H         1 UNK         0.0600 
    207 H207       -1.7625  -24.5971  -51.5468 H         1 UNK         0.0600 
    208 H208       -3.1701  -25.1660  -52.4339 H         1 UNK         0.0600 
    209 H209       -3.3660  -24.4746  -50.8297 H         1 UNK         0.0600 
    210 H210       -4.4645  -26.1057  -49.2424 H         1 UNK         0.3000 
    211 H211       -6.3694  -26.9070  -48.5864 H         1 UNK         0.0600 
    212 H212       -5.6582  -29.5645  -49.9361 H         1 UNK         0.0600 
    213 H213       -6.9385  -29.3093  -48.7602 H         1 UNK         0.0600 
    214 H214       -5.2603  -29.0982  -48.2843 H         1 UNK         0.0600 
    215 H215       -5.9360  -28.0579  -51.9325 H         1 UNK         0.3000 
    216 H216       -8.6907  -27.4352  -52.7558 H         1 UNK         0.0600 
    217 H217       -7.8298  -28.1261  -55.0023 H         1 UNK         0.0600 
    218 H218       -7.4791  -29.3527  -53.7933 H         1 UNK         0.0600 
    219 H219       -6.2015  -28.2722  -54.3495 H         1 UNK         0.0600 
    220 H220       -9.2796  -25.6261  -53.8521 H         1 UNK         0.3000 
    221 H221       -9.4387  -23.5941  -54.6235 H         1 UNK         0.0600 
    222 H222       -6.4563  -23.6902  -55.3167 H         1 UNK         0.0600 
    223 H223       -7.7705  -24.2581  -56.3460 H         1 UNK         0.0600 
    224 H224       -7.6357  -22.5527  -55.9469 H         1 UNK         0.0600 
    225 H225       -6.7000  -23.9210  -52.4581 H         1 UNK         0.3000 
    226 H226       -5.9770  -22.9212  -50.6447 H         1 UNK         0.0600 
    227 H227       -8.3167  -22.8348  -49.8440 H         1 UNK         0.0600 
    228 H228       -7.4212  -21.4315  -49.2846 H         1 UNK         0.0600 
    229 H229       -8.5540  -21.2660  -50.6139 H         1 UNK         0.0600 
    230 H230       -7.1321  -20.6094  -53.0540 H         1 UNK         0.3000 
    231 H231       -5.3287  -18.4498  -52.3634 H         1 UNK         0.0600 
    232 H232       -6.1786  -17.4934  -54.5124 H         1 UNK         0.0600 
    233 H233       -7.4936  -18.0424  -53.4851 H         1 UNK         0.0600 
    234 H234       -6.9984  -19.0095  -54.8726 H         1 UNK         0.0600 
    235 H235       -3.4806  -20.0204  -52.1863 H         1 UNK         0.3000 
    236 H236       -2.2193  -21.3060  -54.2902 H         1 UNK         0.0600 
    237 H237       -0.1976  -21.2305  -52.7789 H         1 UNK         0.0600 
    238 H238       -1.0181  -20.0483  -51.7659 H         1 UNK         0.0600 
    239 H239       -1.6621  -21.6799  -51.9207 H         1 UNK         0.0600 
    240 H240       -2.1843  -17.8814  -53.6595 H         1 UNK         0.3000 
    241 H241       -0.0428  -17.3461  -55.6409 H         1 UNK         0.0600 
    242 H242       -3.5937  -17.0145  -57.3794 H         1 UNK         0.3800 
    243 H243       -3.3149  -18.0751  -56.0238 H         1 UNK         0.3800 
    244 H244       -0.3732  -14.9261  -54.9018 H         1 UNK         0.0800 
    245 H245       -1.4776  -15.4891  -53.6771 H         1 UNK         0.0800 
    246 H246       -0.4747  -15.7399  -51.2303 H         1 UNK         0.0800 
    247 H247       -0.7094  -17.3592  -51.8445 H         1 UNK         0.0800 
@<TRIPOS>BOND
     1    1    2 1    
     2    1  127 1    
     3    1  128 1    
     4    1  129 1    
     5    2    3 2    
     6    2    4 am   BACKBONE|DICT|INTERRES
     7    4    5 1    
     8    4  130 1    
     9    5    6 1    
    10    5   65 1    
    11    5  131 1    
    12    6    7 1    
    13    6  132 1    
    14    6  133 1    
    15    7    8 1    
    16    8    9 1    
    17    8  134 1    
    18    8  135 1    
    19    9   10 ar   
    20    9   14 ar   
    21   10   11 ar   
    22   10  136 1    
    23   11   12 ar   
    24   11  126 1    
    25   12   13 ar   
    26   12  137 1    
    27   13   14 ar   
    28   13   15 1    
    29   14  138 1    
    30   15   16 1    
    31   15  139 1    
    32   15  140 1    
    33   16   17 1    
    34   17   18 1    
    35   17  141 1    
    36   17  142 1    
    37   18   19 1    
    38   18   67 1    
    39   18  143 1    
    40   19   20 am   BACKBONE|DICT|INTERRES
    41   19  144 1    
    42   20   21 2    
    43   20   22 1    
    44   22   23 1    
    45   22   24 1    
    46   22  145 1    
    47   23  146 1    
    48   23  147 1    
    49   23  148 1    
    50   24   25 am   BACKBONE|DICT|INTERRES
    51   24  149 1    
    52   25   26 2    
    53   25   27 1    
    54   27   28 1    
    55   27   29 1    
    56   27  150 1    
    57   28  151 1    
    58   28  152 1    
    59   28  153 1    
    60   29   30 am   BACKBONE|DICT|INTERRES
    61   29  154 1    
    62   30   31 2    
    63   30   32 1    
    64   32   33 1    
    65   32   34 1    
    66   32  155 1    
    67   33  156 1    
    68   33  157 1    
    69   33  158 1    
    70   34   35 am   BACKBONE|DICT|INTERRES
    71   34  159 1    
    72   35   36 2    
    73   35   37 1    
    74   37   38 1    
    75   37   39 1    
    76   37  160 1    
    77   38  161 1    
    78   38  162 1    
    79   38  163 1    
    80   39   40 am   BACKBONE|DICT|INTERRES
    81   39  164 1    
    82   40   41 2    
    83   40   42 1    
    84   42   43 1    
    85   42   44 1    
    86   42  165 1    
    87   43  166 1    
    88   43  167 1    
    89   43  168 1    
    90   44   45 am   BACKBONE|DICT|INTERRES
    91   44  169 1    
    92   45   46 2    
    93   45   47 1    
    94   47   48 1    
    95   47   49 1    
    96   47  170 1    
    97   48  171 1    
    98   48  172 1    
    99   48  173 1    
   100   49   50 am   BACKBONE|DICT|INTERRES
   101   49  174 1    
   102   50   51 2    
   103   50   52 1    
   104   52   53 1    
   105   52   54 1    
   106   52  175 1    
   107   53  176 1    
   108   53  177 1    
   109   53  178 1    
   110   54   55 am   BACKBONE|DICT|INTERRES
   111   54  179 1    
   112   55   56 2    
   113   55   57 1    
   114   57   58 1    
   115   57   59 1    
   116   57  180 1    
   117   58  181 1    
   118   58  182 1    
   119   58  183 1    
   120   59   60 am   BACKBONE|DICT|INTERRES
   121   59  184 1    
   122   60   61 2    
   123   60   62 1    
   124   62   63 1    
   125   62   64 1    
   126   62  185 1    
   127   63  186 1    
   128   63  187 1    
   129   63  188 1    
   130   64   65 am   BACKBONE|DICT|INTERRES
   131   64  189 1    
   132   65   66 2    
   133   67   68 2    
   134   67   69 am   BACKBONE|DICT|INTERRES
   135   69   70 1    
   136   69  190 1    
   137   70   71 1    
   138   70   72 1    
   139   70  191 1    
   140   71  192 1    
   141   71  193 1    
   142   71  194 1    
   143   72   73 2    
   144   72   74 am   BACKBONE|DICT|INTERRES
   145   74   75 1    
   146   74  195 1    
   147   75   76 1    
   148   75   77 1    
   149   75  196 1    
   150   76  197 1    
   151   76  198 1    
   152   76  199 1    
   153   77   78 2    
   154   77   79 am   BACKBONE|DICT|INTERRES
   155   79   80 1    
   156   79  200 1    
   157   80   81 1    
   158   80   82 1    
   159   80  201 1    
   160   81  202 1    
   161   81  203 1    
   162   81  204 1    
   163   82   83 2    
   164   82   84 am   BACKBONE|DICT|INTERRES
   165   84   85 1    
   166   84  205 1    
   167   85   86 1    
   168   85   87 1    
   169   85  206 1    
   170   86  207 1    
   171   86  208 1    
   172   86  209 1    
   173   87   88 2    
   174   87   89 am   BACKBONE|DICT|INTERRES
   175   89   90 1    
   176   89  210 1    
   177   90   91 1    
   178   90   92 1    
   179   90  211 1    
   180   91  212 1    
   181   91  213 1    
   182   91  214 1    
   183   92   93 2    
   184   92   94 am   BACKBONE|DICT|INTERRES
   185   94   95 1    
   186   94  215 1    
   187   95   96 1    
   188   95   97 1    
   189   95  216 1    
   190   96  217 1    
   191   96  218 1    
   192   96  219 1    
   193   97   98 2    
   194   97   99 am   BACKBONE|DICT|INTERRES
   195   99  100 1    
   196   99  220 1    
   197  100  101 1    
   198  100  102 1    
   199  100  221 1    
   200  101  222 1    
   201  101  223 1    
   202  101  224 1    
   203  102  103 2    
   204  102  104 am   BACKBONE|DICT|INTERRES
   205  104  105 1    
   206  104  225 1    
   207  105  106 1    
   208  105  107 1    
   209  105  226 1    
   210  106  227 1    
   211  106  228 1    
   212  106  229 1    
   213  107  108 2    
   214  107  109 am   BACKBONE|DICT|INTERRES
   215  109  110 1    
   216  109  230 1    
   217  110  111 1    
   218  110  112 1    
   219  110  231 1    
   220  111  232 1    
   221  111  233 1    
   222  111  234 1    
   223  112  113 2    
   224  112  114 am   BACKBONE|DICT|INTERRES
   225  114  115 1    
   226  114  235 1    
   227  115  116 1    
   228  115  117 1    
   229  115  236 1    
   230  116  237 1    
   231  116  238 1    
   232  116  239 1    
   233  117  118 2    
   234  117  119 am   BACKBONE|DICT|INTERRES
   235  119  120 1    
   236  119  240 1    
   237  120  121 1    
   238  120  124 1    
   239  120  241 1    
   240  121  122 am   BACKBONE|DICT|INTERRES
   241  121  123 2    
   242  122  242 1    
   243  122  243 1    
   244  124  125 1    
   245  124  244 1    
   246  124  245 1    
   247  125  126 1    
   248  126  246 1    
   249  126  247 1    
@<TRIPOS>SUBSTRUCTURE
     1 UNK         1 GROUP             0       ****    0 ROOT    
