@<TRIPOS>MOLECULE
3R540
247   249    1
SMALL
USER_CHARGES


@<TRIPOS>ATOM
      1 CA         -4.0121  -15.0260  -48.9641 C.3       0 UNK        -0.1800 
      2 C          -2.5649  -14.5553  -48.9209 C.2       0 UNK         0.5000 
      3 O          -2.3116  -13.3541  -48.9990 O.2       0 UNK        -0.5000 
      4 N          -1.6183  -15.4977  -48.8186 N.am      1 UNK        -0.5000 
      5 CA         -0.1741  -15.2372  -48.7648 C.3       1 UNK         0.1400 
      6 C6          0.6210  -16.5410  -49.0266 C.3       23 UNK        -0.0398 
      7 S7          2.4281  -16.3250  -49.1683 S.3       23 UNK        -0.2404 
      8 C8          2.7481  -16.7518  -50.9128 C.3       23 UNK        -0.0205 
      9 C9          2.5946  -18.2393  -51.2176 C.ar      23 UNK        -0.0193 
     10 C10         1.7916  -18.6610  -52.2842 C.ar      23 UNK        -0.1150 
     11 C11         1.7005  -20.0197  -52.6233 C.ar      23 UNK        -0.0193 
     12 C12         2.4166  -20.9507  -51.8652 C.ar      23 UNK        -0.1150 
     13 C13         3.2212  -20.5480  -50.7952 C.ar      23 UNK        -0.0193 
     14 C14         3.3050  -19.1903  -50.4774 C.ar      23 UNK        -0.1150 
     15 C15         4.0590  -21.5721  -50.0392 C.3       23 UNK        -0.0205 
     16 S16         3.0588  -22.9040  -49.3026 S.3       23 UNK        -0.2404 
     17 C17         2.7447  -22.2692  -47.6215 C.3       23 UNK        -0.0398 
     18 CA          2.0511  -23.3395  -46.7394 C.3       11 UNK         0.1400 
     19 N           2.2425  -23.1003  -45.3100 N.am      11 UNK        -0.5000 
     20 C           2.4093  -24.0690  -44.3982 C.2       10 UNK         0.5000 
     21 O           2.5463  -25.2600  -44.6796 O.2       10 UNK        -0.5000 
     22 CA          2.4032  -23.6476  -42.9147 C.3       10 UNK         0.1400 
     23 CB          3.8345  -23.3769  -42.4270 C.3       10 UNK        -0.1800 
     24 N           1.5751  -22.4728  -42.6372 N.am      10 UNK        -0.5000 
     25 C           0.2507  -22.3994  -42.8305 C.2       9 UNK         0.5000 
     26 O          -0.4354  -23.3299  -43.2527 O.2       9 UNK        -0.5000 
     27 CA         -0.4097  -21.0360  -42.5576 C.3       9 UNK         0.1400 
     28 CB         -0.8366  -20.9358  -41.0866 C.3       9 UNK        -0.1800 
     29 N           0.4103  -19.8691  -42.9093 N.am      9 UNK        -0.5000 
     30 C           1.0163  -19.6407  -44.0858 C.2       8 UNK         0.5000 
     31 O           1.0256  -20.4519  -45.0137 O.2       8 UNK        -0.5000 
     32 CA          1.7317  -18.2878  -44.2706 C.3       8 UNK         0.1400 
     33 CB          1.4900  -17.7225  -45.6787 C.3       8 UNK        -0.1800 
     34 N           1.3106  -17.2904  -43.2851 N.am      8 UNK        -0.5000 
     35 C           1.9481  -17.0153  -42.1400 C.2       7 UNK         0.5000 
     36 O           2.9768  -17.5841  -41.7751 O.2       7 UNK        -0.5000 
     37 CA          1.3159  -15.9360  -41.2414 C.3       7 UNK         0.1400 
     38 CB          1.9632  -14.5684  -41.5018 C.3       7 UNK        -0.1800 
     39 N          -0.1370  -15.8352  -41.4184 N.am      7 UNK        -0.5000 
     40 C          -1.0126  -16.6991  -40.8852 C.2       6 UNK         0.5000 
     41 O          -0.6852  -17.6422  -40.1658 O.2       6 UNK        -0.5000 
     42 CA         -2.4936  -16.4922  -41.2424 C.3       6 UNK         0.1400 
     43 CB         -3.1097  -15.3663  -40.3979 C.3       6 UNK        -0.1800 
     44 N          -2.6685  -16.2049  -42.6682 N.am      6 UNK        -0.5000 
     45 C          -2.6566  -17.1485  -43.6227 C.2       5 UNK         0.5000 
     46 O          -2.4973  -18.3438  -43.3762 O.2       5 UNK        -0.5000 
     47 CA         -2.8008  -16.7160  -45.0974 C.3       5 UNK         0.1400 
     48 CB         -3.8881  -17.5203  -45.8414 C.3       5 UNK        -0.1800 
     49 N          -2.9529  -15.2724  -45.3091 N.am      5 UNK        -0.5000 
     50 C          -4.0142  -14.5023  -45.0303 C.2       4 UNK         0.5000 
     51 O          -5.0583  -14.9276  -44.5344 O.2       4 UNK        -0.5000 
     52 CA         -3.8614  -12.9954  -45.3380 C.3       4 UNK         0.1400 
     53 CB         -5.0029  -12.1502  -44.7367 C.3       4 UNK        -0.1800 
     54 N          -2.5675  -12.4253  -44.9420 N.am      4 UNK        -0.5000 
     55 C          -1.9799  -12.4912  -43.7393 C.2       3 UNK         0.5000 
     56 O          -2.3840  -13.1984  -42.8154 O.2       3 UNK        -0.5000 
     57 CA         -0.7018  -11.6470  -43.5619 C.3       3 UNK         0.1400 
     58 CB         -0.2697  -11.5356  -42.0891 C.3       3 UNK        -0.1800 
     59 N           0.3995  -12.2064  -44.3426 N.am      3 UNK        -0.5000 
     60 C           0.5575  -12.0567  -45.6631 C.2       2 UNK         0.5000 
     61 O          -0.1708  -11.3390  -46.3527 O.2       2 UNK        -0.5000 
     62 CA          1.6886  -12.8577  -46.3441 C.3       2 UNK         0.1400 
     63 CB          2.4970  -13.7637  -45.3862 C.3       2 UNK        -0.1800 
     64 N           1.1757  -13.6417  -47.4716 N.am      2 UNK        -0.5000 
     65 C           0.2086  -14.5696  -47.4249 C.2       1 UNK         0.5000 
     66 O          -0.3648  -14.9136  -46.3882 O.2       1 UNK        -0.5000 
     67 C           0.5471  -23.4318  -47.0453 C.2       11 UNK         0.5000 
     68 O           0.1093  -24.4009  -47.6634 O.2       11 UNK        -0.5000 
     69 N          -0.2212  -22.4306  -46.5940 N.am      12 UNK        -0.5000 
     70 CA         -1.6306  -22.2207  -46.9254 C.3       12 UNK         0.1400 
     71 CB         -2.0925  -20.8887  -46.3240 C.3       12 UNK        -0.1800 
     72 C          -2.5855  -23.3632  -46.5397 C.2       12 UNK         0.5000 
     73 O          -3.6032  -23.5316  -47.2132 O.2       12 UNK        -0.5000 
     74 N          -2.2410  -24.1446  -45.5077 N.am      13 UNK        -0.5000 
     75 CA         -2.9733  -25.3503  -45.1143 C.3       13 UNK         0.1400 
     76 CB         -2.4587  -25.8338  -43.7504 C.3       13 UNK        -0.1800 
     77 C          -2.8860  -26.4867  -46.1544 C.2       13 UNK         0.5000 
     78 O          -3.8274  -27.2729  -46.2650 O.2       13 UNK        -0.5000 
     79 N          -1.7716  -26.5520  -46.8954 N.am      14 UNK        -0.5000 
     80 CA         -1.5266  -27.5367  -47.9497 C.3       14 UNK         0.1400 
     81 CB         -0.0618  -27.9960  -47.8755 C.3       14 UNK        -0.1800 
     82 C          -1.8371  -26.9559  -49.3392 C.2       14 UNK         0.5000 
     83 O          -2.4071  -27.6525  -50.1790 O.2       14 UNK        -0.5000 
     84 N          -1.4671  -25.6864  -49.5519 N.am      15 UNK        -0.5000 
     85 CA         -1.6131  -24.9525  -50.8098 C.3       15 UNK         0.1400 
     86 CB         -0.5583  -23.8337  -50.8464 C.3       15 UNK        -0.1800 
     87 C          -3.0311  -24.3937  -51.0517 C.2       15 UNK         0.5000 
     88 O          -3.2493  -23.7707  -52.0895 O.2       15 UNK        -0.5000 
     89 N          -3.9561  -24.6153  -50.1048 N.am      16 UNK        -0.5000 
     90 CA         -5.3756  -24.2446  -50.1292 C.3       16 UNK         0.1400 
     91 CB         -6.1201  -24.9958  -51.2532 C.3       16 UNK        -0.1800 
     92 C          -5.5737  -22.7182  -50.1876 C.2       16 UNK         0.5000 
     93 O          -6.0697  -22.1894  -51.1817 O.2       16 UNK        -0.5000 
     94 N          -5.1437  -22.0462  -49.1112 N.am      17 UNK        -0.5000 
     95 CA         -5.1281  -20.5897  -48.9094 C.3       17 UNK         0.1400 
     96 CB         -6.5194  -19.9498  -49.0949 C.3       17 UNK        -0.1800 
     97 C          -4.0050  -19.8677  -49.6857 C.2       17 UNK         0.5000 
     98 O          -3.9966  -18.6371  -49.7497 O.2       17 UNK        -0.5000 
     99 N          -3.0412  -20.6438  -50.2038 N.am      18 UNK        -0.5000 
    100 CA        -1.7909  -20.2146  -50.8314 C.3       18 UNK         0.1400 
    101 CB        -0.8208  -19.6766  -49.7587 C.3       18 UNK        -0.1800 
    102 C         -2.0221  -19.2641  -52.0218 C.2       18 UNK         0.5000 
    103 O         -2.5145  -19.7189  -53.0544 O.2       18 UNK        -0.5000 
    104 N         -1.6791  -17.9757  -51.8731 N.am      19 UNK        -0.5000 
    105 CA        -1.7752  -16.9485  -52.9179 C.3       19 UNK         0.1400 
    106 CB        -1.1777  -15.6299  -52.4104 C.3       19 UNK        -0.1800 
    107 C         -3.1995  -16.7201  -53.4528 C.2       19 UNK         0.5000 
    108 O         -3.3497  -16.3041  -54.6015 O.2       19 UNK        -0.5000 
    109 N         -4.2173  -17.0406  -52.6420 N.am      20 UNK        -0.5000 
    110 CA        -5.6211  -17.0360  -53.0527 C.3       20 UNK         0.1400 
    111 CB        -6.5033  -17.1923  -51.8074 C.3       20 UNK        -0.1800 
    112 C         -5.9536  -18.1187  -54.1031 C.2       20 UNK         0.5000 
    113 O         -6.9286  -17.9549  -54.8377 O.2       20 UNK        -0.5000 
    114 N         -5.1430  -19.1849  -54.1689 N.am      21 UNK        -0.5000 
    115 CA        -5.2397  -20.2471  -55.1650 C.3       21 UNK         0.1400 
    116 CB        -5.0813  -21.6149  -54.4827 C.3       21 UNK        -0.1800 
    117 C         -4.1910  -20.0650  -56.2736 C.2       21 UNK         0.5000 
    118 O         -4.5560  -20.1138  -57.4494 O.2       21 UNK        -0.5000 
    119 N         -2.9156  -19.8762  -55.8991 N.am      22 UNK        -0.5000 
    120 CA        -1.7960  -19.7896  -56.8555 C.3       22 UNK         0.1400 
    121 C         -1.6251  -18.4184  -57.5740 C.2       22 UNK         0.5000 
    122 N         -2.2736  -17.3437  -57.1433 N.am      22 UNK        -0.7600 
    123 O         -0.9022  -18.3332  -58.5633 O.2       22 UNK        -0.5000 
    124 C124       -0.4640  -20.3423  -56.2793 C.3       23 UNK        -0.0398 
    125 S125        0.3493  -19.2942  -55.0230 S.3       23 UNK        -0.2404 
    126 C126        0.8580  -20.5422  -53.7915 C.3       23 UNK        -0.0205 
    127 H127       -4.0841  -16.1115  -49.0135 H         1 UNK         0.0600 
    128 H128       -4.5496  -14.6894  -48.0786 H         1 UNK         0.0600 
    129 H129       -4.5119  -14.6187  -49.8429 H         1 UNK         0.0600 
    130 H130       -1.9039  -16.4561  -48.6870 H         1 UNK         0.3000 
    131 H131        0.0586  -14.5365  -49.5699 H         1 UNK         0.0600 
    132 H132        0.4239  -17.2756  -48.2463 H         1 UNK         0.0800 
    133 H133        0.2692  -16.9887  -49.9533 H         1 UNK         0.0800 
    134 H134        2.1059  -16.1481  -51.5542 H         1 UNK         0.0800 
    135 H135        3.7713  -16.4609  -51.1537 H         1 UNK         0.0800 
    136 H136        1.2517  -17.9208  -52.8555 H         1 UNK         0.1150 
    137 H137        2.3628  -22.0004  -52.1190 H         1 UNK         0.1150 
    138 H138        3.9433  -18.8661  -49.6675 H         1 UNK         0.1150 
    139 H139        4.7626  -22.0204  -50.7419 H         1 UNK         0.0800 
    140 H140        4.6657  -21.0948  -49.2683 H         1 UNK         0.0800 
    141 H141        2.1737  -21.3398  -47.6740 H         1 UNK         0.0800 
    142 H142        3.7099  -22.0074  -47.1856 H         1 UNK         0.0800 
    143 H143        2.4915  -24.3075  -46.9896 H         1 UNK         0.0600 
    144 H144        2.0743  -22.1532  -44.9892 H         1 UNK         0.3000 
    145 H145        1.9967  -24.4821  -42.3395 H         1 UNK         0.0600 
    146 H146        3.8540  -23.1634  -41.3581 H         1 UNK         0.0600 
    147 H147        4.4752  -24.2436  -42.5953 H         1 UNK         0.0600 
    148 H148        4.2836  -22.5304  -42.9479 H         1 UNK         0.0600 
    149 H149        2.0527  -21.6502  -42.2994 H         1 UNK         0.3000 
    150 H150       -1.3159  -20.9907  -43.1596 H         1 UNK         0.0600 
    151 H151       -1.4003  -21.8176  -40.7785 H         1 UNK         0.0600 
    152 H152       -1.4832  -20.0732  -40.9274 H         1 UNK         0.0600 
    153 H153        0.0224  -20.8431  -40.4212 H         1 UNK         0.0600 
    154 H154        0.4516  -19.1385  -42.2139 H         1 UNK         0.3000 
    155 H155        2.8017  -18.4797  -44.1701 H         1 UNK         0.0600 
    156 H156        2.0095  -16.7754  -45.8208 H         1 UNK         0.0600 
    157 H157        0.4294  -17.5564  -45.8631 H         1 UNK         0.0600 
    158 H158        1.8561  -18.4038  -46.4481 H         1 UNK         0.0600 
    159 H159        0.4582  -16.7911  -43.4888 H         1 UNK         0.3000 
    160 H160        1.5267  -16.2115  -40.2056 H         1 UNK         0.0600 
    161 H161        1.7123  -14.1844  -42.4891 H         1 UNK         0.0600 
    162 H162        3.0506  -14.6303  -41.4400 H         1 UNK         0.0600 
    163 H163        1.6432  -13.8375  -40.7596 H         1 UNK         0.0600 
    164 H164       -0.4898  -15.0739  -41.9799 H         1 UNK         0.3000 
    165 H165       -3.0290  -17.4137  -41.0029 H         1 UNK         0.0600 
    166 H166       -2.5750  -14.4241  -40.5186 H         1 UNK         0.0600 
    167 H167       -4.1527  -15.1968  -40.6662 H         1 UNK         0.0600 
    168 H168       -3.0830  -15.6200  -39.3375 H         1 UNK         0.0600 
    169 H169       -2.7870  -15.2312  -42.9273 H         1 UNK         0.3000 
    170 H170       -1.8504  -16.9766  -45.5622 H         1 UNK         0.0600 
    171 H171       -3.7075  -18.5903  -45.7564 H         1 UNK         0.0600 
    172 H172       -4.8845  -17.3373  -45.4403 H         1 UNK         0.0600 
    173 H173       -3.9022  -17.2810  -46.9038 H         1 UNK         0.0600 
    174 H174       -2.1156  -14.8269  -45.6782 H         1 UNK         0.3000 
    175 H175       -3.9170  -12.8997  -46.4229 H         1 UNK         0.0600 
    176 H176       -4.8984  -11.0988  -45.0045 H         1 UNK         0.0600 
    177 H177       -5.9746  -12.4812  -45.1054 H         1 UNK         0.0600 
    178 H178       -5.0230  -12.2184  -43.6483 H         1 UNK         0.0600 
    179 H179       -2.0838  -11.8926  -45.6573 H         1 UNK         0.3000 
    180 H180       -0.9174  -10.6373  -43.9181 H         1 UNK         0.0600 
    181 H181       -0.0867  -12.5125  -41.6437 H         1 UNK         0.0600 
    182 H182       -1.0447  -11.0498  -41.4952 H         1 UNK         0.0600 
    183 H183        0.6386  -10.9417  -41.9856 H         1 UNK         0.0600 
    184 H184        1.0257  -12.8281  -43.8555 H         1 UNK         0.3000 
    185 H185        2.3752  -12.1207  -46.7628 H         1 UNK         0.0600 
    186 H186        3.2840  -14.2913  -45.9254 H         1 UNK         0.0600 
    187 H187        2.9850  -13.1801  -44.6047 H         1 UNK         0.0600 
    188 H188        1.8723  -14.5166  -44.9051 H         1 UNK         0.0600 
    189 H189        1.5779  -13.4145  -48.3698 H         1 UNK         0.3000 
    190 H190        0.2193  -21.6913  -46.0501 H         1 UNK         0.3000 
    191 H191       -1.6940  -22.1372  -48.0105 H         1 UNK         0.0600 
    192 H192       -1.5339  -20.0482  -46.7360 H         1 UNK         0.0600 
    193 H193       -3.1462  -20.7141  -46.5253 H         1 UNK         0.0600 
    194 H194       -1.9694  -20.8722  -45.2442 H         1 UNK         0.0600 
    195 H195       -1.4198  -23.9096  -44.9594 H         1 UNK         0.3000 
    196 H196       -4.0271  -25.0854  -45.0051 H         1 UNK         0.0600 
    197 H197       -2.9851  -26.7330  -43.4278 H         1 UNK         0.0600 
    198 H198       -2.6109  -25.0761  -42.9817 H         1 UNK         0.0600 
    199 H199       -1.3938  -26.0682  -43.7833 H         1 UNK         0.0600 
    200 H200       -1.0665  -25.8329  -46.7805 H         1 UNK         0.3000 
    201 H201       -2.1604  -28.4138  -47.8024 H         1 UNK         0.0600 
    202 H202        0.1565  -28.4566  -46.9119 H         1 UNK         0.0600 
    203 H203        0.6315  -27.1650  -48.0127 H         1 UNK         0.0600 
    204 H204        0.1551  -28.7362  -48.6466 H         1 UNK         0.0600 
    205 H205       -0.9560  -25.2030  -48.8150 H         1 UNK         0.3000 
    206 H206       -1.3998  -25.6372  -51.6332 H         1 UNK         0.0600 
    207 H207        0.4467  -24.2369  -50.7202 H         1 UNK         0.0600 
    208 H208       -0.5736  -23.3080  -51.8017 H         1 UNK         0.0600 
    209 H209       -0.7207  -23.1006  -50.0568 H         1 UNK         0.0600 
    210 H210       -3.6476  -25.0857  -49.2655 H         1 UNK         0.3000 
    211 H211       -5.7981  -24.5790  -49.1803 H         1 UNK         0.0600 
    212 H212       -5.9922  -26.0740  -51.1573 H         1 UNK         0.0600 
    213 H213       -5.7698  -24.7039  -52.2438 H         1 UNK         0.0600 
    214 H214       -7.1904  -24.7901  -51.2139 H         1 UNK         0.0600 
    215 H215       -4.7175  -22.5917  -48.3634 H         1 UNK         0.3000 
    216 H216       -4.8805  -20.4497  -47.8590 H         1 UNK         0.0600 
    217 H217       -7.2599  -20.4339  -48.4584 H         1 UNK         0.0600 
    218 H218       -6.8722  -20.0154  -50.1229 H         1 UNK         0.0600 
    219 H219       -6.5036  -18.8935  -48.8235 H         1 UNK         0.0600 
    220 H220       -3.1977  -21.6403  -50.1762 H         1 UNK         0.3000 
    221 H221       -1.3370  -21.1056  -51.2620 H         1 UNK         0.0600 
    222 H222       -1.2555  -18.8626  -49.1795 H         1 UNK         0.0600 
    223 H223       -0.5366  -20.4616  -49.0606 H         1 UNK         0.0600 
    224 H224        0.1074  -19.3250  -50.2035 H         1 UNK         0.0600 
    225 H225       -1.3226  -17.6792  -50.9802 H         1 UNK         0.3000 
    226 H226       -1.1720  -17.2809  -53.7619 H         1 UNK         0.0600 
    227 H227       -0.1576  -15.7623  -52.0549 H         1 UNK         0.0600 
    228 H228       -1.1452  -14.8879  -53.2093 H         1 UNK         0.0600 
    229 H229       -1.7710  -15.2060  -51.6026 H         1 UNK         0.0600 
    230 H230       -4.0130  -17.4039  -51.7190 H         1 UNK         0.3000 
    231 H231       -5.8388  -16.0653  -53.5030 H         1 UNK         0.0600 
    232 H232       -6.3191  -16.3949  -51.0872 H         1 UNK         0.0600 
    233 H233       -6.3137  -18.1420  -51.3114 H         1 UNK         0.0600 
    234 H234       -7.5619  -17.1608  -52.0681 H         1 UNK         0.0600 
    235 H235       -4.3364  -19.2313  -53.5551 H         1 UNK         0.3000 
    236 H236       -6.2239  -20.2327  -55.6379 H         1 UNK         0.0600 
    237 H237       -5.9039  -21.8012  -53.7934 H         1 UNK         0.0600 
    238 H238       -5.0859  -22.4229  -55.2151 H         1 UNK         0.0600 
    239 H239       -4.1514  -21.6888  -53.9179 H         1 UNK         0.0600 
    240 H240       -2.6810  -19.8370  -54.9102 H         1 UNK         0.3000 
    241 H241       -2.0429  -20.4766  -57.6678 H         1 UNK         0.0600 
    242 H242       -2.1527  -16.4723  -57.6337 H         1 UNK         0.3800 
    243 H243       -2.8343  -17.3587  -56.3006 H         1 UNK         0.3800 
    244 H244       -0.6417  -21.3341  -55.8616 H         1 UNK         0.0800 
    245 H245        0.2513  -20.4949  -57.0892 H         1 UNK         0.0800 
    246 H246       -0.0300  -21.0348  -53.3956 H         1 UNK         0.0800 
    247 H247        1.4278  -21.3114  -54.3154 H         1 UNK         0.0800 
@<TRIPOS>BOND
     1    1    2 1    
     2    1  127 1    
     3    1  128 1    
     4    1  129 1    
     5    2    3 2    
     6    2    4 am   BACKBONE|DICT|INTERRES
     7    4    5 1    
     8    4  130 1    
     9    5    6 1    
    10    5   65 1    
    11    5  131 1    
    12    6    7 1    
    13    6  132 1    
    14    6  133 1    
    15    7    8 1    
    16    8    9 1    
    17    8  134 1    
    18    8  135 1    
    19    9   10 ar   
    20    9   14 ar   
    21   10   11 ar   
    22   10  136 1    
    23   11   12 ar   
    24   11  126 1    
    25   12   13 ar   
    26   12  137 1    
    27   13   14 ar   
    28   13   15 1    
    29   14  138 1    
    30   15   16 1    
    31   15  139 1    
    32   15  140 1    
    33   16   17 1    
    34   17   18 1    
    35   17  141 1    
    36   17  142 1    
    37   18   19 1    
    38   18   67 1    
    39   18  143 1    
    40   19   20 am   BACKBONE|DICT|INTERRES
    41   19  144 1    
    42   20   21 2    
    43   20   22 1    
    44   22   23 1    
    45   22   24 1    
    46   22  145 1    
    47   23  146 1    
    48   23  147 1    
    49   23  148 1    
    50   24   25 am   BACKBONE|DICT|INTERRES
    51   24  149 1    
    52   25   26 2    
    53   25   27 1    
    54   27   28 1    
    55   27   29 1    
    56   27  150 1    
    57   28  151 1    
    58   28  152 1    
    59   28  153 1    
    60   29   30 am   BACKBONE|DICT|INTERRES
    61   29  154 1    
    62   30   31 2    
    63   30   32 1    
    64   32   33 1    
    65   32   34 1    
    66   32  155 1    
    67   33  156 1    
    68   33  157 1    
    69   33  158 1    
    70   34   35 am   BACKBONE|DICT|INTERRES
    71   34  159 1    
    72   35   36 2    
    73   35   37 1    
    74   37   38 1    
    75   37   39 1    
    76   37  160 1    
    77   38  161 1    
    78   38  162 1    
    79   38  163 1    
    80   39   40 am   BACKBONE|DICT|INTERRES
    81   39  164 1    
    82   40   41 2    
    83   40   42 1    
    84   42   43 1    
    85   42   44 1    
    86   42  165 1    
    87   43  166 1    
    88   43  167 1    
    89   43  168 1    
    90   44   45 am   BACKBONE|DICT|INTERRES
    91   44  169 1    
    92   45   46 2    
    93   45   47 1    
    94   47   48 1    
    95   47   49 1    
    96   47  170 1    
    97   48  171 1    
    98   48  172 1    
    99   48  173 1    
   100   49   50 am   BACKBONE|DICT|INTERRES
   101   49  174 1    
   102   50   51 2    
   103   50   52 1    
   104   52   53 1    
   105   52   54 1    
   106   52  175 1    
   107   53  176 1    
   108   53  177 1    
   109   53  178 1    
   110   54   55 am   BACKBONE|DICT|INTERRES
   111   54  179 1    
   112   55   56 2    
   113   55   57 1    
   114   57   58 1    
   115   57   59 1    
   116   57  180 1    
   117   58  181 1    
   118   58  182 1    
   119   58  183 1    
   120   59   60 am   BACKBONE|DICT|INTERRES
   121   59  184 1    
   122   60   61 2    
   123   60   62 1    
   124   62   63 1    
   125   62   64 1    
   126   62  185 1    
   127   63  186 1    
   128   63  187 1    
   129   63  188 1    
   130   64   65 am   BACKBONE|DICT|INTERRES
   131   64  189 1    
   132   65   66 2    
   133   67   68 2    
   134   67   69 am   BACKBONE|DICT|INTERRES
   135   69   70 1    
   136   69  190 1    
   137   70   71 1    
   138   70   72 1    
   139   70  191 1    
   140   71  192 1    
   141   71  193 1    
   142   71  194 1    
   143   72   73 2    
   144   72   74 am   BACKBONE|DICT|INTERRES
   145   74   75 1    
   146   74  195 1    
   147   75   76 1    
   148   75   77 1    
   149   75  196 1    
   150   76  197 1    
   151   76  198 1    
   152   76  199 1    
   153   77   78 2    
   154   77   79 am   BACKBONE|DICT|INTERRES
   155   79   80 1    
   156   79  200 1    
   157   80   81 1    
   158   80   82 1    
   159   80  201 1    
   160   81  202 1    
   161   81  203 1    
   162   81  204 1    
   163   82   83 2    
   164   82   84 am   BACKBONE|DICT|INTERRES
   165   84   85 1    
   166   84  205 1    
   167   85   86 1    
   168   85   87 1    
   169   85  206 1    
   170   86  207 1    
   171   86  208 1    
   172   86  209 1    
   173   87   88 2    
   174   87   89 am   BACKBONE|DICT|INTERRES
   175   89   90 1    
   176   89  210 1    
   177   90   91 1    
   178   90   92 1    
   179   90  211 1    
   180   91  212 1    
   181   91  213 1    
   182   91  214 1    
   183   92   93 2    
   184   92   94 am   BACKBONE|DICT|INTERRES
   185   94   95 1    
   186   94  215 1    
   187   95   96 1    
   188   95   97 1    
   189   95  216 1    
   190   96  217 1    
   191   96  218 1    
   192   96  219 1    
   193   97   98 2    
   194   97   99 am   BACKBONE|DICT|INTERRES
   195   99  100 1    
   196   99  220 1    
   197  100  101 1    
   198  100  102 1    
   199  100  221 1    
   200  101  222 1    
   201  101  223 1    
   202  101  224 1    
   203  102  103 2    
   204  102  104 am   BACKBONE|DICT|INTERRES
   205  104  105 1    
   206  104  225 1    
   207  105  106 1    
   208  105  107 1    
   209  105  226 1    
   210  106  227 1    
   211  106  228 1    
   212  106  229 1    
   213  107  108 2    
   214  107  109 am   BACKBONE|DICT|INTERRES
   215  109  110 1    
   216  109  230 1    
   217  110  111 1    
   218  110  112 1    
   219  110  231 1    
   220  111  232 1    
   221  111  233 1    
   222  111  234 1    
   223  112  113 2    
   224  112  114 am   BACKBONE|DICT|INTERRES
   225  114  115 1    
   226  114  235 1    
   227  115  116 1    
   228  115  117 1    
   229  115  236 1    
   230  116  237 1    
   231  116  238 1    
   232  116  239 1    
   233  117  118 2    
   234  117  119 am   BACKBONE|DICT|INTERRES
   235  119  120 1    
   236  119  240 1    
   237  120  121 1    
   238  120  124 1    
   239  120  241 1    
   240  121  122 am   BACKBONE|DICT|INTERRES
   241  121  123 2    
   242  122  242 1    
   243  122  243 1    
   244  124  125 1    
   245  124  244 1    
   246  124  245 1    
   247  125  126 1    
   248  126  246 1    
   249  126  247 1    
@<TRIPOS>SUBSTRUCTURE
     1 UNK         1 GROUP             0       ****    0 ROOT    
