@<TRIPOS>MOLECULE
3R540
247   249    1
SMALL
USER_CHARGES


@<TRIPOS>ATOM
      1 CA         -1.4720   -8.9113  -47.2764 C.3       0 UNK        -0.1800 
      2 C          -1.3283  -10.3020  -46.6773 C.2       0 UNK         0.5000 
      3 O          -0.2131  -10.8132  -46.5669 O.2       0 UNK        -0.5000 
      4 N          -2.4449  -10.9177  -46.2631 N.am      1 UNK        -0.5000 
      5 CA         -2.4770  -12.2751  -45.6991 C.3       1 UNK         0.1400 
      6 C6         -3.9116  -12.8674  -45.6580 C.3       23 UNK        -0.0398 
      7 S7         -3.9397  -14.5905  -46.2582 S.3       23 UNK        -0.2404 
      8 C8         -4.2012  -14.3035  -48.0373 C.3       23 UNK        -0.0205 
      9 C9         -3.7579  -15.5000  -48.8627 C.ar      23 UNK        -0.0193 
     10 C10        -4.6881  -16.4262  -49.3392 C.ar      23 UNK        -0.1150 
     11 C11        -4.2814  -17.5244  -50.1048 C.ar      23 UNK        -0.0193 
     12 C12        -2.9137  -17.6996  -50.3647 C.ar      23 UNK        -0.1150 
     13 C13        -1.9747  -16.7697  -49.9088 C.ar      23 UNK        -0.0193 
     14 C14        -2.4069  -15.6695  -49.1654 C.ar      23 UNK        -0.1150 
     15 C15        -0.4912  -16.9336  -50.2216 C.3       23 UNK        -0.0205 
     16 S16         0.2709  -18.4137  -49.4703 S.3       23 UNK        -0.2404 
     17 C17        -0.3899  -18.4111  -47.7687 C.3       23 UNK        -0.0398 
     18 CA         -1.3114  -19.6402  -47.5545 C.3       11 UNK         0.1400 
     19 N          -0.5284  -20.8660  -47.4465 N.am      11 UNK        -0.5000 
     20 C          -0.8521  -22.0390  -47.9990 C.2       10 UNK         0.5000 
     21 O          -1.8999  -22.2398  -48.6111 O.2       10 UNK        -0.5000 
     22 CA          0.1608  -23.1833  -47.8349 C.3       10 UNK         0.1400 
     23 CB          1.3292  -23.0190  -48.8189 C.3       10 UNK        -0.1800 
     24 N           0.6826  -23.2140  -46.4700 N.am      10 UNK        -0.5000 
     25 C           0.4977  -24.2162  -45.6014 C.2       9 UNK         0.5000 
     26 O          -0.0133  -25.2952  -45.9025 O.2       9 UNK        -0.5000 
     27 CA          0.9536  -23.9923  -44.1435 C.3       9 UNK         0.1400 
     28 CB          2.2314  -24.7944  -43.8513 C.3       9 UNK        -0.1800 
     29 N           1.1898  -22.5918  -43.7858 N.am      9 UNK        -0.5000 
     30 C           0.2611  -21.6270  -43.7439 C.2       8 UNK         0.5000 
     31 O          -0.9296  -21.7997  -43.9985 O.2       8 UNK        -0.5000 
     32 CA          0.7547  -20.2101  -43.4012 C.3       8 UNK         0.1400 
     33 CB          0.6692  -19.9881  -41.8839 C.3       8 UNK        -0.1800 
     34 N           2.1060  -19.8855  -43.8797 N.am      8 UNK        -0.5000 
     35 C           2.5467  -20.0130  -45.1434 C.2       7 UNK         0.5000 
     36 O           1.8732  -20.5168  -46.0448 O.2       7 UNK        -0.5000 
     37 CA          3.9611  -19.4840  -45.4478 C.3       7 UNK         0.1400 
     38 CB          4.1729  -19.2102  -46.9480 C.3       7 UNK        -0.1800 
     39 N           4.1987  -18.2509  -44.7029 N.am      7 UNK        -0.5000 
     40 C           5.2457  -17.9943  -43.9067 C.2       6 UNK         0.5000 
     41 O           6.1864  -18.7724  -43.7458 O.2       6 UNK        -0.5000 
     42 CA          5.2403  -16.6494  -43.1429 C.3       6 UNK         0.1400 
     43 CB          6.1589  -15.6345  -43.8393 C.3       6 UNK        -0.1800 
     44 N           3.9053  -16.0607  -43.0072 N.am      6 UNK        -0.5000 
     45 C           2.8913  -16.6158  -42.3261 C.2       5 UNK         0.5000 
     46 O           3.0286  -17.6033  -41.6050 O.2       5 UNK        -0.5000 
     47 CA          1.4797  -16.0263  -42.5361 C.3       5 UNK         0.1400 
     48 CB          1.0301  -15.2270  -41.3061 C.3       5 UNK        -0.1800 
     49 N           1.3578  -15.1855  -43.7279 N.am      5 UNK        -0.5000 
     50 C           1.5504  -15.5841  -44.9933 C.2       4 UNK         0.5000 
     51 O           1.7464  -16.7578  -45.3070 O.2       4 UNK        -0.5000 
     52 CA          1.5835  -14.4965  -46.0861 C.3       4 UNK         0.1400 
     53 CB          0.3562  -14.6222  -46.9948 C.3       4 UNK        -0.1800 
     54 N           1.6753  -13.1274  -45.5666 N.am      4 UNK        -0.5000 
     55 C           2.7282  -12.6225  -44.9046 C.2       3 UNK         0.5000 
     56 O           3.7551  -13.2610  -44.6707 O.2       3 UNK        -0.5000 
     57 CA          2.5778  -11.1918  -44.3595 C.3       3 UNK         0.1400 
     58 CB          2.9658  -10.1543  -45.4239 C.3       3 UNK        -0.1800 
     59 N           1.2082  -10.9468  -43.9015 N.am      3 UNK        -0.5000 
     60 C           0.7435  -11.3174  -42.6984 C.2       2 UNK         0.5000 
     61 O           1.4519  -11.8086  -41.8205 O.2       2 UNK        -0.5000 
     62 CA         -0.7649  -11.1365  -42.4307 C.3       2 UNK         0.1400 
     63 CB         -1.0360   -9.7723  -41.7791 C.3       2 UNK        -0.1800 
     64 N          -1.5818  -11.2610  -43.6386 N.am      2 UNK        -0.5000 
     65 C          -1.7463  -12.3923  -44.3402 C.2       1 UNK         0.5000 
     66 O          -1.2977  -13.4801  -43.9816 O.2       1 UNK        -0.5000 
     67 C          -2.2693  -19.5205  -46.3534 C.2       11 UNK         0.5000 
     68 O          -3.2721  -20.2340  -46.3177 O.2       11 UNK        -0.5000 
     69 N          -1.9756  -18.6022  -45.4225 N.am      12 UNK        -0.5000 
     70 CA         -2.9027  -18.0090  -44.4524 C.3       12 UNK         0.1400 
     71 CB         -2.1133  -17.0327  -43.5668 C.3       12 UNK        -0.1800 
     72 C          -3.7415  -18.9571  -43.5695 C.2       12 UNK         0.5000 
     73 O          -4.8106  -18.5402  -43.1215 O.2       12 UNK        -0.5000 
     74 N          -3.2646  -20.1820  -43.3142 N.am      13 UNK        -0.5000 
     75 CA         -3.9248  -21.1600  -42.4464 C.3       13 UNK         0.1400 
     76 CB         -3.0033  -21.4624  -41.2510 C.3       13 UNK        -0.1800 
     77 C          -4.3179  -22.4504  -43.1905 C.2       13 UNK         0.5000 
     78 O          -4.7373  -23.4033  -42.5304 O.2       13 UNK        -0.5000 
     79 N          -4.1855  -22.4836  -44.5244 N.am      14 UNK        -0.5000 
     80 CA         -4.4555  -23.6737  -45.3359 C.3       14 UNK         0.1400 
     81 CB         -3.1308  -24.3675  -45.6779 C.3       14 UNK        -0.1800 
     82 C          -5.2519  -23.3663  -46.6111 C.2       14 UNK         0.5000 
     83 O          -6.1316  -24.1536  -46.9623 O.2       14 UNK        -0.5000 
     84 N          -4.9392  -22.2438  -47.2749 N.am      15 UNK        -0.5000 
     85 CA         -5.5038  -21.7763  -48.5438 C.3       15 UNK         0.1400 
     86 CB         -6.9466  -21.2713  -48.3384 C.3       15 UNK        -0.1800 
     87 C          -5.3819  -22.8231  -49.6711 C.2       15 UNK         0.5000 
     88 O          -6.3839  -23.2161  -50.2744 O.2       15 UNK        -0.5000 
     89 N          -4.1470  -23.2792  -49.9169 N.am      16 UNK        -0.5000 
     90 CA         -3.7878  -24.3225  -50.8772 C.3       16 UNK         0.1400 
     91 CB         -2.4104  -24.8950  -50.4993 C.3       16 UNK        -0.1800 
     92 C          -3.8522  -23.8411  -52.3426 C.2       16 UNK         0.5000 
     93 O          -2.8603  -23.9073  -53.0728 O.2       16 UNK        -0.5000 
     94 N          -5.0387  -23.3930  -52.7688 N.am      17 UNK        -0.5000 
     95 CA         -5.3517  -22.9803  -54.1385 C.3       17 UNK         0.1400 
     96 CB         -6.7710  -22.3970  -54.1784 C.3       17 UNK        -0.1800 
     97 C          -5.2001  -24.1243  -55.1603 C.2       17 UNK         0.5000 
     98 O          -4.8297  -23.8687  -56.3051 O.2       17 UNK        -0.5000 
     99 N          -5.4173  -25.3697  -54.7120 N.am      18 UNK        -0.5000 
    100 CA        -5.1803  -26.5978  -55.4763 C.3       18 UNK         0.1400 
    101 CB        -5.7791  -27.7853  -54.7076 C.3       18 UNK        -0.1800 
    102 C         -3.6890  -26.8525  -55.7838 C.2       18 UNK         0.5000 
    103 O         -3.3821  -27.5068  -56.7805 O.2       18 UNK        -0.5000 
    104 N         -2.7941  -26.3124  -54.9441 N.am      19 UNK        -0.5000 
    105 CA        -1.3417  -26.3176  -55.1367 C.3       19 UNK         0.1400 
    106 CB        -0.6642  -26.5134  -53.7695 C.3       19 UNK        -0.1800 
    107 C         -0.8469  -25.0198  -55.8105 C.2       19 UNK         0.5000 
    108 O          0.3626  -24.8434  -55.9600 O.2       19 UNK        -0.5000 
    109 N         -1.7822  -24.1320  -56.1843 N.am      20 UNK        -0.5000 
    110 CA        -1.5894  -22.8089  -56.7822 C.3       20 UNK         0.1400 
    111 CB        -0.8881  -22.9127  -58.1528 C.3       20 UNK        -0.1800 
    112 C         -0.9180  -21.7860  -55.8420 C.2       20 UNK         0.5000 
    113 O         -0.4057  -20.7743  -56.3248 O.2       20 UNK        -0.5000 
    114 N         -0.9628  -22.0227  -54.5197 N.am      21 UNK        -0.5000 
    115 CA        -0.3899  -21.1316  -53.5027 C.3       21 UNK         0.1400 
    116 CB        -0.4657  -21.8013  -52.1222 C.3       21 UNK        -0.1800 
    117 C         -1.0804  -19.7568  -53.4665 C.2       21 UNK         0.5000 
    118 O         -0.4165  -18.7397  -53.2722 O.2       21 UNK        -0.5000 
    119 N         -2.3968  -19.7641  -53.6996 N.am      22 UNK        -0.5000 
    120 CA        -3.2566  -18.5756  -53.7889 C.3       22 UNK         0.1400 
    121 C         -3.2183  -17.8632  -55.1746 C.2       22 UNK         0.5000 
    122 N         -2.4243  -18.3091  -56.1423 N.am      22 UNK        -0.7600 
    123 O         -3.9201  -16.8763  -55.3773 O.2       22 UNK        -0.5000 
    124 C124       -4.7122  -18.8907  -53.3495 C.3       23 UNK        -0.0398 
    125 S125       -4.8289  -19.7913  -51.7601 S.3       23 UNK        -0.2404 
    126 C126       -5.3648  -18.4836  -50.6021 C.3       23 UNK        -0.0205 
    127 H127       -2.5113   -8.5829  -47.2939 H         1 UNK         0.0600 
    128 H128       -1.0948   -8.9046  -48.2989 H         1 UNK         0.0600 
    129 H129       -0.8960   -8.1918  -46.6946 H         1 UNK         0.0600 
    130 H130       -3.3353  -10.4498  -46.3596 H         1 UNK         0.3000 
    131 H131       -1.8904  -12.8697  -46.3997 H         1 UNK         0.0600 
    132 H132       -4.3378  -12.8354  -44.6535 H         1 UNK         0.0800 
    133 H133       -4.5958  -12.2855  -46.2774 H         1 UNK         0.0800 
    134 H134       -5.2538  -14.0787  -48.2164 H         1 UNK         0.0800 
    135 H135       -3.6398  -13.4239  -48.3567 H         1 UNK         0.0800 
    136 H136       -5.7369  -16.2892  -49.1152 H         1 UNK         0.1150 
    137 H137       -2.5608  -18.5541  -50.9224 H         1 UNK         0.1150 
    138 H138       -1.6921  -14.9410  -48.8131 H         1 UNK         0.1150 
    139 H139        0.0688  -16.0553  -49.8989 H         1 UNK         0.0800 
    140 H140       -0.3631  -16.9837  -51.3028 H         1 UNK         0.0800 
    141 H141       -0.9216  -17.4772  -47.5914 H         1 UNK         0.0800 
    142 H142        0.4488  -18.4180  -47.0712 H         1 UNK         0.0800 
    143 H143       -1.9659  -19.7075  -48.4267 H         1 UNK         0.0600 
    144 H144        0.3616  -20.7753  -46.9626 H         1 UNK         0.3000 
    145 H145       -0.3573  -24.1142  -48.0743 H         1 UNK         0.0600 
    146 H146        0.9732  -23.0198  -49.8488 H         1 UNK         0.0600 
    147 H147        2.0416  -23.8383  -48.7219 H         1 UNK         0.0600 
    148 H148        1.8689  -22.0850  -48.6553 H         1 UNK         0.0600 
    149 H149        1.1198  -22.3619  -46.1372 H         1 UNK         0.3000 
    150 H150        0.1567  -24.3684  -43.4985 H         1 UNK         0.0600 
    151 H151        3.0703  -24.4466  -44.4555 H         1 UNK         0.0600 
    152 H152        2.0877  -25.8538  -44.0682 H         1 UNK         0.0600 
    153 H153        2.5162  -24.7161  -42.8019 H         1 UNK         0.0600 
    154 H154        2.1430  -22.3388  -43.5717 H         1 UNK         0.3000 
    155 H155        0.0736  -19.5086  -43.8820 H         1 UNK         0.0600 
    156 H156        1.4215  -20.5689  -41.3490 H         1 UNK         0.0600 
    157 H157       -0.3067  -20.2802  -41.4964 H         1 UNK         0.0600 
    158 H158        0.8045  -18.9415  -41.6220 H         1 UNK         0.0600 
    159 H159        2.7245  -19.4580  -43.2036 H         1 UNK         0.3000 
    160 H160        4.6595  -20.2624  -45.1352 H         1 UNK         0.0600 
    161 H161        3.4584  -18.4764  -47.3244 H         1 UNK         0.0600 
    162 H162        4.0512  -20.1206  -47.5362 H         1 UNK         0.0600 
    163 H163        5.1764  -18.8312  -47.1415 H         1 UNK         0.0600 
    164 H164        3.4505  -17.5668  -44.7728 H         1 UNK         0.3000 
    165 H165        5.6307  -16.8379  -42.1408 H         1 UNK         0.0600 
    166 H166        6.2147  -14.7019  -43.2773 H         1 UNK         0.0600 
    167 H167        7.1748  -16.0215  -43.9289 H         1 UNK         0.0600 
    168 H168        5.8063  -15.3983  -44.8443 H         1 UNK         0.0600 
    169 H169        3.7224  -15.2315  -43.5594 H         1 UNK         0.3000 
    170 H170        0.7989  -16.8666  -42.6669 H         1 UNK         0.0600 
    171 H171        0.0242  -14.8276  -41.4395 H         1 UNK         0.0600 
    172 H172        1.7013  -14.3917  -41.1052 H         1 UNK         0.0600 
    173 H173        1.0154  -15.8569  -40.4158 H         1 UNK         0.0600 
    174 H174        1.1455  -14.2107  -43.5707 H         1 UNK         0.3000 
    175 H175        2.4734  -14.6737  -46.6934 H         1 UNK         0.0600 
    176 H176        0.4300  -15.5274  -47.5955 H         1 UNK         0.0600 
    177 H177       -0.5664  -14.6921  -46.4190 H         1 UNK         0.0600 
    178 H178        0.2732  -13.7807  -47.6830 H         1 UNK         0.0600 
    179 H179        0.8863  -12.5183  -45.7443 H         1 UNK         0.3000 
    180 H180        3.2647  -11.0784  -43.5179 H         1 UNK         0.0600 
    181 H181        2.3475  -10.2342  -46.3180 H         1 UNK         0.0600 
    182 H182        4.0034  -10.2866  -45.7330 H         1 UNK         0.0600 
    183 H183        2.8685   -9.1393  -45.0385 H         1 UNK         0.0600 
    184 H184        0.5613  -10.5901  -44.5940 H         1 UNK         0.3000 
    185 H185       -1.0720  -11.9176  -41.7319 H         1 UNK         0.0600 
    186 H186       -0.4596   -9.6574  -40.8601 H         1 UNK         0.0600 
    187 H187       -0.7661   -8.9485  -42.4412 H         1 UNK         0.0600 
    188 H188       -2.0884   -9.6624  -41.5168 H         1 UNK         0.0600 
    189 H189       -1.9814  -10.4098  -44.0060 H         1 UNK         0.3000 
    190 H190       -1.1003  -18.1097  -45.5157 H         1 UNK         0.3000 
    191 H191       -3.6160  -17.4249  -45.0370 H         1 UNK         0.0600 
    192 H192       -1.5724  -16.2972  -44.1631 H         1 UNK         0.0600 
    193 H193       -2.7791  -16.4778  -42.9045 H         1 UNK         0.0600 
    194 H194       -1.3949  -17.5600  -42.9398 H         1 UNK         0.0600 
    195 H195       -2.4030  -20.4961  -43.7501 H         1 UNK         0.3000 
    196 H196       -4.8553  -20.7538  -42.0460 H         1 UNK         0.0600 
    197 H197       -3.5020  -22.1029  -40.5228 H         1 UNK         0.0600 
    198 H198       -2.7177  -20.5478  -40.7313 H         1 UNK         0.0600 
    199 H199       -2.0926  -21.9735  -41.5633 H         1 UNK         0.0600 
    200 H200       -3.8609  -21.6532  -45.0085 H         1 UNK         0.3000 
    201 H201       -5.0633  -24.3836  -44.7709 H         1 UNK         0.0600 
    202 H202       -3.2904  -25.2420  -46.3098 H         1 UNK         0.0600 
    203 H203       -2.6199  -24.7041  -44.7757 H         1 UNK         0.0600 
    204 H204       -2.4593  -23.6947  -46.2088 H         1 UNK         0.0600 
    205 H205       -4.2001  -21.6479  -46.9085 H         1 UNK         0.3000 
    206 H206       -4.8894  -20.9283  -48.8468 H         1 UNK         0.0600 
    207 H207       -6.9821  -20.4798  -47.5899 H         1 UNK         0.0600 
    208 H208       -7.3532  -20.8627  -49.2642 H         1 UNK         0.0600 
    209 H209       -7.6138  -22.0704  -48.0142 H         1 UNK         0.0600 
    210 H210       -3.3697  -22.8767  -49.3929 H         1 UNK         0.3000 
    211 H211       -4.5125  -25.1330  -50.7792 H         1 UNK         0.0600 
    212 H212       -1.6183  -24.1551  -50.6159 H         1 UNK         0.0600 
    213 H213       -2.1586  -25.7511  -51.1253 H         1 UNK         0.0600 
    214 H214       -2.3964  -25.2374  -49.4644 H         1 UNK         0.0600 
    215 H215       -5.7865  -23.3328  -52.0825 H         1 UNK         0.3000 
    216 H216       -4.6486  -22.1933  -54.4177 H         1 UNK         0.0600 
    217 H217       -7.5182  -23.1375  -53.8907 H         1 UNK         0.0600 
    218 H218       -7.0218  -22.0467  -55.1805 H         1 UNK         0.0600 
    219 H219       -6.8666  -21.5462  -53.5035 H         1 UNK         0.0600 
    220 H220       -5.7269  -25.4835  -53.7580 H         1 UNK         0.3000 
    221 H221       -5.7025  -26.5077  -56.4311 H         1 UNK         0.0600 
    222 H222       -5.3071  -27.9132  -53.7326 H         1 UNK         0.0600 
    223 H223       -6.8496  -27.6536  -54.5489 H         1 UNK         0.0600 
    224 H224       -5.6464  -28.7159  -55.2610 H         1 UNK         0.0600 
    225 H225       -3.1256  -25.7507  -54.1701 H         1 UNK         0.3000 
    226 H226       -1.0540  -27.1515  -55.7799 H         1 UNK         0.0600 
    227 H227       -1.0509  -27.3941  -53.2567 H         1 UNK         0.0600 
    228 H228        0.4115  -26.6516  -53.8839 H         1 UNK         0.0600 
    229 H229       -0.8122  -25.6511  -53.1193 H         1 UNK         0.0600 
    230 H230       -2.7503  -24.3810  -56.0264 H         1 UNK         0.3000 
    231 H231       -2.5916  -22.4195  -56.9644 H         1 UNK         0.0600 
    232 H232        0.1565  -23.2086  -58.0543 H         1 UNK         0.0600 
    233 H233       -0.9062  -21.9556  -58.6752 H         1 UNK         0.0600 
    234 H234       -1.3848  -23.6394  -58.7957 H         1 UNK         0.0600 
    235 H235       -1.4401  -22.8516  -54.1811 H         1 UNK         0.3000 
    236 H236        0.6619  -20.9745  -53.7503 H         1 UNK         0.0600 
    237 H237       -1.4960  -21.9160  -51.7840 H         1 UNK         0.0600 
    238 H238       -0.0028  -22.7880  -52.1346 H         1 UNK         0.0600 
    239 H239        0.0532  -21.2026  -51.3723 H         1 UNK         0.0600 
    240 H240       -2.8490  -20.6532  -53.8455 H         1 UNK         0.3000 
    241 H241       -2.8661  -17.8313  -53.0953 H         1 UNK         0.0600 
    242 H242       -2.4130  -17.8288  -57.0282 H         1 UNK         0.3800 
    243 H243       -1.8024  -19.0924  -55.9931 H         1 UNK         0.3800 
    244 H244       -5.2056  -19.5022  -54.1065 H         1 UNK         0.0800 
    245 H245       -5.2948  -17.9706  -53.2833 H         1 UNK         0.0800 
    246 H246       -6.1684  -17.9114  -51.0679 H         1 UNK         0.0800 
    247 H247       -5.8092  -18.9612  -49.7303 H         1 UNK         0.0800 
@<TRIPOS>BOND
     1    1    2 1    
     2    1  127 1    
     3    1  128 1    
     4    1  129 1    
     5    2    3 2    
     6    2    4 am   BACKBONE|DICT|INTERRES
     7    4    5 1    
     8    4  130 1    
     9    5    6 1    
    10    5   65 1    
    11    5  131 1    
    12    6    7 1    
    13    6  132 1    
    14    6  133 1    
    15    7    8 1    
    16    8    9 1    
    17    8  134 1    
    18    8  135 1    
    19    9   10 ar   
    20    9   14 ar   
    21   10   11 ar   
    22   10  136 1    
    23   11   12 ar   
    24   11  126 1    
    25   12   13 ar   
    26   12  137 1    
    27   13   14 ar   
    28   13   15 1    
    29   14  138 1    
    30   15   16 1    
    31   15  139 1    
    32   15  140 1    
    33   16   17 1    
    34   17   18 1    
    35   17  141 1    
    36   17  142 1    
    37   18   19 1    
    38   18   67 1    
    39   18  143 1    
    40   19   20 am   BACKBONE|DICT|INTERRES
    41   19  144 1    
    42   20   21 2    
    43   20   22 1    
    44   22   23 1    
    45   22   24 1    
    46   22  145 1    
    47   23  146 1    
    48   23  147 1    
    49   23  148 1    
    50   24   25 am   BACKBONE|DICT|INTERRES
    51   24  149 1    
    52   25   26 2    
    53   25   27 1    
    54   27   28 1    
    55   27   29 1    
    56   27  150 1    
    57   28  151 1    
    58   28  152 1    
    59   28  153 1    
    60   29   30 am   BACKBONE|DICT|INTERRES
    61   29  154 1    
    62   30   31 2    
    63   30   32 1    
    64   32   33 1    
    65   32   34 1    
    66   32  155 1    
    67   33  156 1    
    68   33  157 1    
    69   33  158 1    
    70   34   35 am   BACKBONE|DICT|INTERRES
    71   34  159 1    
    72   35   36 2    
    73   35   37 1    
    74   37   38 1    
    75   37   39 1    
    76   37  160 1    
    77   38  161 1    
    78   38  162 1    
    79   38  163 1    
    80   39   40 am   BACKBONE|DICT|INTERRES
    81   39  164 1    
    82   40   41 2    
    83   40   42 1    
    84   42   43 1    
    85   42   44 1    
    86   42  165 1    
    87   43  166 1    
    88   43  167 1    
    89   43  168 1    
    90   44   45 am   BACKBONE|DICT|INTERRES
    91   44  169 1    
    92   45   46 2    
    93   45   47 1    
    94   47   48 1    
    95   47   49 1    
    96   47  170 1    
    97   48  171 1    
    98   48  172 1    
    99   48  173 1    
   100   49   50 am   BACKBONE|DICT|INTERRES
   101   49  174 1    
   102   50   51 2    
   103   50   52 1    
   104   52   53 1    
   105   52   54 1    
   106   52  175 1    
   107   53  176 1    
   108   53  177 1    
   109   53  178 1    
   110   54   55 am   BACKBONE|DICT|INTERRES
   111   54  179 1    
   112   55   56 2    
   113   55   57 1    
   114   57   58 1    
   115   57   59 1    
   116   57  180 1    
   117   58  181 1    
   118   58  182 1    
   119   58  183 1    
   120   59   60 am   BACKBONE|DICT|INTERRES
   121   59  184 1    
   122   60   61 2    
   123   60   62 1    
   124   62   63 1    
   125   62   64 1    
   126   62  185 1    
   127   63  186 1    
   128   63  187 1    
   129   63  188 1    
   130   64   65 am   BACKBONE|DICT|INTERRES
   131   64  189 1    
   132   65   66 2    
   133   67   68 2    
   134   67   69 am   BACKBONE|DICT|INTERRES
   135   69   70 1    
   136   69  190 1    
   137   70   71 1    
   138   70   72 1    
   139   70  191 1    
   140   71  192 1    
   141   71  193 1    
   142   71  194 1    
   143   72   73 2    
   144   72   74 am   BACKBONE|DICT|INTERRES
   145   74   75 1    
   146   74  195 1    
   147   75   76 1    
   148   75   77 1    
   149   75  196 1    
   150   76  197 1    
   151   76  198 1    
   152   76  199 1    
   153   77   78 2    
   154   77   79 am   BACKBONE|DICT|INTERRES
   155   79   80 1    
   156   79  200 1    
   157   80   81 1    
   158   80   82 1    
   159   80  201 1    
   160   81  202 1    
   161   81  203 1    
   162   81  204 1    
   163   82   83 2    
   164   82   84 am   BACKBONE|DICT|INTERRES
   165   84   85 1    
   166   84  205 1    
   167   85   86 1    
   168   85   87 1    
   169   85  206 1    
   170   86  207 1    
   171   86  208 1    
   172   86  209 1    
   173   87   88 2    
   174   87   89 am   BACKBONE|DICT|INTERRES
   175   89   90 1    
   176   89  210 1    
   177   90   91 1    
   178   90   92 1    
   179   90  211 1    
   180   91  212 1    
   181   91  213 1    
   182   91  214 1    
   183   92   93 2    
   184   92   94 am   BACKBONE|DICT|INTERRES
   185   94   95 1    
   186   94  215 1    
   187   95   96 1    
   188   95   97 1    
   189   95  216 1    
   190   96  217 1    
   191   96  218 1    
   192   96  219 1    
   193   97   98 2    
   194   97   99 am   BACKBONE|DICT|INTERRES
   195   99  100 1    
   196   99  220 1    
   197  100  101 1    
   198  100  102 1    
   199  100  221 1    
   200  101  222 1    
   201  101  223 1    
   202  101  224 1    
   203  102  103 2    
   204  102  104 am   BACKBONE|DICT|INTERRES
   205  104  105 1    
   206  104  225 1    
   207  105  106 1    
   208  105  107 1    
   209  105  226 1    
   210  106  227 1    
   211  106  228 1    
   212  106  229 1    
   213  107  108 2    
   214  107  109 am   BACKBONE|DICT|INTERRES
   215  109  110 1    
   216  109  230 1    
   217  110  111 1    
   218  110  112 1    
   219  110  231 1    
   220  111  232 1    
   221  111  233 1    
   222  111  234 1    
   223  112  113 2    
   224  112  114 am   BACKBONE|DICT|INTERRES
   225  114  115 1    
   226  114  235 1    
   227  115  116 1    
   228  115  117 1    
   229  115  236 1    
   230  116  237 1    
   231  116  238 1    
   232  116  239 1    
   233  117  118 2    
   234  117  119 am   BACKBONE|DICT|INTERRES
   235  119  120 1    
   236  119  240 1    
   237  120  121 1    
   238  120  124 1    
   239  120  241 1    
   240  121  122 am   BACKBONE|DICT|INTERRES
   241  121  123 2    
   242  122  242 1    
   243  122  243 1    
   244  124  125 1    
   245  124  244 1    
   246  124  245 1    
   247  125  126 1    
   248  126  246 1    
   249  126  247 1    
@<TRIPOS>SUBSTRUCTURE
     1 UNK         1 GROUP             0       ****    0 ROOT    
