@<TRIPOS>MOLECULE
3R540
247   249    1
SMALL
USER_CHARGES


@<TRIPOS>ATOM
      1 CA         -4.6784  -17.7222  -46.1248 C.3       0 UNK        -0.1800 
      2 C          -3.4680  -16.9612  -46.6385 C.2       0 UNK         0.5000 
      3 O          -2.3420  -17.3710  -46.3694 O.2       0 UNK        -0.5000 
      4 N          -3.7029  -15.8750  -47.3890 N.am      1 UNK        -0.5000 
      5 CA         -2.6909  -15.0000  -47.9901 C.3       1 UNK         0.1400 
      6 C6         -1.7233  -15.7636  -48.9299 C.3       23 UNK        -0.0398 
      7 S7         -0.7963  -14.6863  -50.0723 S.3       23 UNK        -0.2404 
      8 C8          0.9264  -15.1582  -49.7027 C.3       23 UNK        -0.0205 
      9 C9          1.2260  -16.6216  -50.0136 C.ar      23 UNK        -0.0193 
     10 C10         1.0981  -17.1145  -51.3159 C.ar      23 UNK        -0.1150 
     11 C11         1.3961  -18.4501  -51.6024 C.ar      23 UNK        -0.0193 
     12 C12         1.8171  -19.2976  -50.5737 C.ar      23 UNK        -0.1150 
     13 C13         1.9583  -18.8206  -49.2674 C.ar      23 UNK        -0.0193 
     14 C14         1.6675  -17.4785  -49.0005 C.ar      23 UNK        -0.1150 
     15 C15         2.4757  -19.7571  -48.1756 C.3       23 UNK        -0.0205 
     16 S16         1.6704  -19.5595  -46.5471 S.3       23 UNK        -0.2404 
     17 C17        -0.0527  -19.9990  -46.9397 C.3       23 UNK        -0.0398 
     18 CA         -0.3431  -21.5107  -46.8127 C.3       11 UNK         0.1400 
     19 N          -0.0999  -22.0286  -45.4621 N.am      11 UNK        -0.5000 
     20 C          -0.1169  -23.3282  -45.1335 C.2       10 UNK         0.5000 
     21 O          -0.2816  -24.2359  -45.9468 O.2       10 UNK        -0.5000 
     22 CA          0.0054  -23.6719  -43.6412 C.3       10 UNK         0.1400 
     23 CB          1.4767  -23.7240  -43.2028 C.3       10 UNK        -0.1800 
     24 N          -0.7385  -22.7194  -42.8170 N.am      10 UNK        -0.5000 
     25 C          -2.0767  -22.7017  -42.7257 C.2       9 UNK         0.5000 
     26 O          -2.8042  -23.5252  -43.2804 O.2       9 UNK        -0.5000 
     27 CA         -2.7137  -21.5550  -41.9155 C.3       9 UNK         0.1400 
     28 CB         -2.8177  -21.9367  -40.4317 C.3       9 UNK        -0.1800 
     29 N          -1.9849  -20.2914  -42.0393 N.am      9 UNK        -0.5000 
     30 C          -1.8609  -19.5952  -43.1786 C.2       8 UNK         0.5000 
     31 O          -2.4108  -19.9202  -44.2287 O.2       8 UNK        -0.5000 
     32 CA         -0.9191  -18.3732  -43.1549 C.3       8 UNK         0.1400 
     33 CB         -1.7032  -17.0877  -42.8529 C.3       8 UNK        -0.1800 
     34 N           0.1878  -18.4997  -42.1989 N.am      8 UNK        -0.5000 
     35 C           1.1175  -19.4668  -42.2228 C.2       7 UNK         0.5000 
     36 O           1.1114  -20.3834  -43.0455 O.2       7 UNK        -0.5000 
     37 CA          2.1927  -19.4276  -41.1140 C.3       7 UNK         0.1400 
     38 CB          3.4486  -20.2500  -41.4720 C.3       7 UNK        -0.1800 
     39 N           2.5574  -18.0690  -40.6872 N.am      7 UNK        -0.5000 
     40 C           3.1152  -17.1130  -41.4449 C.2       6 UNK         0.5000 
     41 O           3.3647  -17.2553  -42.6438 O.2       6 UNK        -0.5000 
     42 CA          3.3961  -15.7646  -40.7424 C.3       6 UNK         0.1400 
     43 CB          4.1579  -15.9307  -39.4091 C.3       6 UNK        -0.1800 
     44 N           4.0680  -14.8064  -41.6271 N.am      6 UNK        -0.5000 
     45 C           5.3076  -14.8763  -42.1339 C.2       5 UNK         0.5000 
     46 O           6.1580  -15.6976  -41.7845 O.2       5 UNK        -0.5000 
     47 CA          5.6116  -13.8799  -43.2725 C.3       5 UNK         0.1400 
     48 CB          7.0870  -13.9039  -43.7116 C.3       5 UNK        -0.1800 
     49 N           4.7686  -14.1648  -44.4362 N.am      5 UNK        -0.5000 
     50 C           3.4883  -13.7976  -44.5673 C.2       4 UNK         0.5000 
     51 O           2.8872  -13.1160  -43.7320 O.2       4 UNK        -0.5000 
     52 CA          2.7409  -14.3365  -45.8015 C.3       4 UNK         0.1400 
     53 CB          1.9331  -15.5836  -45.4057 C.3       4 UNK        -0.1800 
     54 N           1.8359  -13.3436  -46.3831 N.am      4 UNK        -0.5000 
     55 C           2.2142  -12.1627  -46.8989 C.2       3 UNK         0.5000 
     56 O           3.3920  -11.8143  -46.9963 O.2       3 UNK        -0.5000 
     57 CA          1.1148  -11.2077  -47.4160 C.3       3 UNK         0.1400 
     58 CB          1.1515  -11.1236  -48.9505 C.3       3 UNK        -0.1800 
     59 N          -0.2373  -11.5835  -47.0047 N.am      3 UNK        -0.5000 
     60 C          -0.7314  -11.4773  -45.7638 C.2       2 UNK         0.5000 
     61 O          -0.1317  -10.9291  -44.8389 O.2       2 UNK        -0.5000 
     62 CA         -2.1206  -12.1023  -45.5012 C.3       2 UNK         0.1400 
     63 CB         -3.1778  -11.0027  -45.3142 C.3       2 UNK        -0.1800 
     64 N          -2.5922  -13.0366  -46.5333 N.am      2 UNK        -0.5000 
     65 C          -1.9786  -14.1705  -46.9021 C.2       1 UNK         0.5000 
     66 O          -0.9094  -14.5450  -46.4224 O.2       1 UNK        -0.5000 
     67 C          -1.7716  -21.8323  -47.3011 C.2       11 UNK         0.5000 
     68 O          -1.9451  -22.2223  -48.4561 O.2       11 UNK        -0.5000 
     69 N          -2.7654  -21.7078  -46.4113 N.am      12 UNK        -0.5000 
     70 CA         -4.1520  -22.1003  -46.6564 C.3       12 UNK         0.1400 
     71 CB         -5.0285  -21.6728  -45.4685 C.3       12 UNK        -0.1800 
     72 C          -4.3066  -23.6098  -46.9153 C.2       12 UNK         0.5000 
     73 O          -5.0345  -23.9933  -47.8301 O.2       12 UNK        -0.5000 
     74 N          -3.6240  -24.4293  -46.1058 N.am      13 UNK        -0.5000 
     75 CA         -3.6952  -25.8864  -46.1590 C.3       13 UNK         0.1400 
     76 CB         -3.1956  -26.4688  -44.8268 C.3       13 UNK        -0.1800 
     77 C          -2.9228  -26.4932  -47.3434 C.2       13 UNK         0.5000 
     78 O          -3.5011  -27.2633  -48.1112 O.2       13 UNK        -0.5000 
     79 N          -1.6249  -26.1792  -47.4439 N.am      14 UNK        -0.5000 
     80 CA         -0.6935  -26.8543  -48.3468 C.3       14 UNK         0.1400 
     81 CB          0.7024  -26.8965  -47.7039 C.3       14 UNK        -0.1800 
     82 C          -0.6297  -26.1968  -49.7315 C.2       14 UNK         0.5000 
     83 O          -0.6937  -26.9036  -50.7382 O.2       14 UNK        -0.5000 
     84 N          -0.4868  -24.8650  -49.7642 N.am      15 UNK        -0.5000 
     85 CA         -0.3257  -24.1018  -51.0058 C.3       15 UNK         0.1400 
     86 CB          0.5239  -22.8482  -50.7337 C.3       15 UNK        -0.1800 
     87 C          -1.6668  -23.7265  -51.6614 C.2       15 UNK         0.5000 
     88 O          -1.6667  -23.3389  -52.8282 O.2       15 UNK        -0.5000 
     89 N          -2.7707  -23.8308  -50.9041 N.am      16 UNK        -0.5000 
     90 CA         -4.1292  -23.3993  -51.2565 C.3       16 UNK         0.1400 
     91 CB         -4.6957  -24.2312  -52.4233 C.3       16 UNK        -0.1800 
     92 C          -4.2164  -21.8757  -51.4902 C.2       16 UNK         0.5000 
     93 O          -5.0050  -21.4037  -52.3140 O.2       16 UNK        -0.5000 
     94 N          -3.4021  -21.1223  -50.7383 N.am      17 UNK        -0.5000 
     95 CA         -3.2352  -19.6764  -50.8748 C.3       17 UNK         0.1400 
     96 CB         -1.9740  -19.2500  -50.1162 C.3       17 UNK        -0.1800 
     97 C          -4.4624  -18.8762  -50.4008 C.2       17 UNK         0.5000 
     98 O          -4.6422  -17.7402  -50.8352 O.2       17 UNK        -0.5000 
     99 N          -5.3161  -19.4964  -49.5720 N.am      18 UNK        -0.5000 
    100 CA        -6.6178  -18.9678  -49.1518 C.3       18 UNK         0.1400 
    101 CB        -7.2096  -19.8809  -48.0667 C.3       18 UNK        -0.1800 
    102 C         -7.6132  -18.8235  -50.3200 C.2       18 UNK         0.5000 
    103 O         -8.4379  -17.9098  -50.3075 O.2       18 UNK        -0.5000 
    104 N         -7.4969  -19.7133  -51.3146 N.am      19 UNK        -0.5000 
    105 CA        -8.2551  -19.6820  -52.5658 C.3       19 UNK         0.1400 
    106 CB        -8.5624  -21.1325  -52.9764 C.3       19 UNK        -0.1800 
    107 C         -7.4868  -18.9555  -53.6888 C.2       19 UNK         0.5000 
    108 O         -8.0083  -18.8498  -54.7994 O.2       19 UNK        -0.5000 
    109 N         -6.2548  -18.5065  -53.3946 N.am      20 UNK        -0.5000 
    110 CA        -5.2528  -17.9586  -54.3152 C.3       20 UNK         0.1400 
    111 CB        -5.7078  -16.5957  -54.8759 C.3       20 UNK        -0.1800 
    112 C         -4.8465  -18.9627  -55.4167 C.2       20 UNK         0.5000 
    113 O         -4.5134  -18.5576  -56.5312 O.2       20 UNK        -0.5000 
    114 N         -4.8812  -20.2604  -55.0845 N.am      21 UNK        -0.5000 
    115 CA        -4.6720  -21.3771  -56.0055 C.3       21 UNK         0.1400 
    116 CB        -5.7438  -22.4454  -55.7271 C.3       21 UNK        -0.1800 
    117 C         -3.2339  -21.9298  -55.9355 C.2       21 UNK         0.5000 
    118 O         -3.0234  -23.1219  -56.1661 O.2       21 UNK        -0.5000 
    119 N         -2.2716  -21.0481  -55.6349 N.am      22 UNK        -0.5000 
    120 CA        -0.8248  -21.3090  -55.6361 C.3       22 UNK         0.1400 
    121 C         -0.3009  -21.8054  -57.0147 C.2       22 UNK         0.5000 
    122 N          0.5972  -22.7810  -57.0310 N.am      22 UNK        -0.7600 
    123 O         -0.6649  -21.2800  -58.0649 O.2       22 UNK        -0.5000 
    124 C124       -0.0357  -20.0485  -55.2028 C.3       23 UNK        -0.0398 
    125 S125       -0.3420  -19.5612  -53.4697 S.3       23 UNK        -0.2404 
    126 C126        1.3197  -18.9642  -53.0308 C.3       23 UNK        -0.0205 
    127 H127       -4.6133  -17.8516  -45.0444 H         1 UNK         0.0600 
    128 H128       -4.6963  -18.7076  -46.5865 H         1 UNK         0.0600 
    129 H129       -5.6144  -17.2137  -46.3563 H         1 UNK         0.0600 
    130 H130       -4.6598  -15.5968  -47.5542 H         1 UNK         0.3000 
    131 H131       -3.2503  -14.3006  -48.6139 H         1 UNK         0.0600 
    132 H132       -2.3123  -16.4330  -49.5542 H         1 UNK         0.0800 
    133 H133       -1.0382  -16.3979  -48.3658 H         1 UNK         0.0800 
    134 H134        1.5977  -14.5294  -50.2887 H         1 UNK         0.0800 
    135 H135        1.1327  -14.9344  -48.6554 H         1 UNK         0.0800 
    136 H136        0.7745  -16.4543  -52.1084 H         1 UNK         0.1150 
    137 H137        2.0592  -20.3265  -50.7982 H         1 UNK         0.1150 
    138 H138        1.7962  -17.1005  -47.9995 H         1 UNK         0.1150 
    139 H139        2.3697  -20.7978  -48.4859 H         1 UNK         0.0800 
    140 H140        3.5450  -19.5814  -48.0540 H         1 UNK         0.0800 
    141 H141       -0.2695  -19.6477  -47.9461 H         1 UNK         0.0800 
    142 H142       -0.7043  -19.4292  -46.2777 H         1 UNK         0.0800 
    143 H143        0.3409  -22.0355  -47.4828 H         1 UNK         0.0600 
    144 H144        0.0897  -21.3458  -44.7378 H         1 UNK         0.3000 
    145 H145       -0.4215  -24.6655  -43.4890 H         1 UNK         0.0600 
    146 H146        1.5655  -23.9400  -42.1381 H         1 UNK         0.0600 
    147 H147        2.0100  -24.5092  -43.7398 H         1 UNK         0.0600 
    148 H148        1.9974  -22.7875  -43.4012 H         1 UNK         0.0600 
    149 H149       -0.2046  -21.9595  -42.4158 H         1 UNK         0.3000 
    150 H150       -3.7239  -21.4000  -42.3000 H         1 UNK         0.0600 
    151 H151       -3.3758  -22.8656  -40.3064 H         1 UNK         0.0600 
    152 H152       -3.3385  -21.1670  -39.8619 H         1 UNK         0.0600 
    153 H153       -1.8344  -22.0812  -39.9822 H         1 UNK         0.0600 
    154 H154       -1.5035  -19.9578  -41.2177 H         1 UNK         0.3000 
    155 H155       -0.4836  -18.2776  -44.1517 H         1 UNK         0.0600 
    156 H156       -1.0668  -16.2076  -42.9483 H         1 UNK         0.0600 
    157 H157       -2.1223  -17.0968  -41.8462 H         1 UNK         0.0600 
    158 H158       -2.5303  -16.9626  -43.5527 H         1 UNK         0.0600 
    159 H159        0.2577  -17.7861  -41.4890 H         1 UNK         0.3000 
    160 H160        1.7351  -19.9019  -40.2448 H         1 UNK         0.0600 
    161 H161        3.9222  -19.8893  -42.3855 H         1 UNK         0.0600 
    162 H162        3.1978  -21.2998  -41.6285 H         1 UNK         0.0600 
    163 H163        4.1879  -20.2108  -40.6721 H         1 UNK         0.0600 
    164 H164        2.3711  -17.8578  -39.7167 H         1 UNK         0.3000 
    165 H165        2.4233  -15.3248  -40.5183 H         1 UNK         0.0600 
    166 H166        5.0711  -16.5141  -39.5305 H         1 UNK         0.0600 
    167 H167        4.4325  -14.9632  -38.9887 H         1 UNK         0.0600 
    168 H168        3.5459  -16.4389  -38.6638 H         1 UNK         0.0600 
    169 H169        3.4549  -14.1223  -42.0591 H         1 UNK         0.3000 
    170 H170        5.3918  -12.8761  -42.9026 H         1 UNK         0.0600 
    171 H171        7.7475  -13.6817  -42.8725 H         1 UNK         0.0600 
    172 H172        7.3757  -14.8776  -44.1094 H         1 UNK         0.0600 
    173 H173        7.2803  -13.1569  -44.4818 H         1 UNK         0.0600 
    174 H174        5.1768  -14.7641  -45.1389 H         1 UNK         0.3000 
    175 H175        3.4640  -14.6156  -46.5703 H         1 UNK         0.0600 
    176 H176        1.2667  -15.3825  -44.5656 H         1 UNK         0.0600 
    177 H177        1.3160  -15.9433  -46.2259 H         1 UNK         0.0600 
    178 H178        2.5925  -16.4012  -45.1130 H         1 UNK         0.0600 
    179 H179        0.8468  -13.5670  -46.3377 H         1 UNK         0.3000 
    180 H180        1.3320  -10.2158  -47.0143 H         1 UNK         0.0600 
    181 H181        0.9311  -12.0868  -49.4114 H         1 UNK         0.0600 
    182 H182        2.1345  -10.8087  -49.3031 H         1 UNK         0.0600 
    183 H183        0.4275  -10.3991  -49.3238 H         1 UNK         0.0600 
    184 H184       -0.8040  -12.0470  -47.6988 H         1 UNK         0.3000 
    185 H185       -2.0424  -12.6626  -44.5673 H         1 UNK         0.0600 
    186 H186       -2.8850  -10.3059  -44.5275 H         1 UNK         0.0600 
    187 H187       -3.3210  -10.4243  -46.2278 H         1 UNK         0.0600 
    188 H188       -4.1413  -11.4247  -45.0277 H         1 UNK         0.0600 
    189 H189       -3.4699  -12.7975  -46.9720 H         1 UNK         0.3000 
    190 H190       -2.5639  -21.2868  -45.5074 H         1 UNK         0.3000 
    191 H191       -4.4953  -21.5688  -47.5451 H         1 UNK         0.0600 
    192 H192       -4.7526  -22.1961  -44.5535 H         1 UNK         0.0600 
    193 H193       -6.0797  -21.8891  -45.6620 H         1 UNK         0.0600 
    194 H194       -4.9454  -20.6052  -45.2715 H         1 UNK         0.0600 
    195 H195       -3.0792  -24.0282  -45.3514 H         1 UNK         0.3000 
    196 H196       -4.7438  -26.1718  -46.2691 H         1 UNK         0.0600 
    197 H197       -3.2340  -27.5588  -44.8361 H         1 UNK         0.0600 
    198 H198       -3.8124  -26.1293  -43.9944 H         1 UNK         0.0600 
    199 H199       -2.1659  -26.1769  -44.6176 H         1 UNK         0.0600 
    200 H200       -1.2203  -25.4994  -46.8014 H         1 UNK         0.3000 
    201 H201       -1.0166  -27.8886  -48.4852 H         1 UNK         0.0600 
    202 H202        0.6748  -27.3967  -46.7357 H         1 UNK         0.0600 
    203 H203        1.1119  -25.8974  -47.5517 H         1 UNK         0.0600 
    204 H204        1.4044  -27.4447  -48.3334 H         1 UNK         0.0600 
    205 H205       -0.4763  -24.3459  -48.8974 H         1 UNK         0.3000 
    206 H206        0.2219  -24.7103  -51.7289 H         1 UNK         0.0600 
    207 H207        1.4951  -23.1119  -50.3151 H         1 UNK         0.0600 
    208 H208        0.7076  -22.2983  -51.6579 H         1 UNK         0.0600 
    209 H209        0.0377  -22.1608  -50.0445 H         1 UNK         0.0600 
    210 H210       -2.6401  -24.1220  -49.9452 H         1 UNK         0.3000 
    211 H211       -4.7511  -23.6025  -50.3858 H         1 UNK         0.0600 
    212 H212       -4.1614  -24.0425  -53.3545 H         1 UNK         0.0600 
    213 H213       -5.7476  -23.9988  -52.5923 H         1 UNK         0.0600 
    214 H214       -4.6311  -25.2984  -52.2116 H         1 UNK         0.0600 
    215 H215       -2.8025  -21.5864  -50.0608 H         1 UNK         0.3000 
    216 H216       -3.0836  -19.4631  -51.9349 H         1 UNK         0.0600 
    217 H217       -1.1660  -19.9707  -50.2419 H         1 UNK         0.0600 
    218 H218       -2.1686  -19.1328  -49.0499 H         1 UNK         0.0600 
    219 H219       -1.6009  -18.3013  -50.4986 H         1 UNK         0.0600 
    220 H220       -5.0902  -20.4356  -49.2837 H         1 UNK         0.3000 
    221 H221       -6.4607  -17.9753  -48.7248 H         1 UNK         0.0600 
    222 H222       -7.3356  -20.9040  -48.4235 H         1 UNK         0.0600 
    223 H223       -6.5778  -19.9105  -47.1816 H         1 UNK         0.0600 
    224 H224       -8.1890  -19.5228  -47.7467 H         1 UNK         0.0600 
    225 H225       -6.7735  -20.4185  -51.2591 H         1 UNK         0.3000 
    226 H226       -9.2021  -19.1583  -52.4202 H         1 UNK         0.0600 
    227 H227       -9.1210  -21.6524  -52.1981 H         1 UNK         0.0600 
    228 H228       -9.1662  -21.1651  -53.8841 H         1 UNK         0.0600 
    229 H229       -7.6502  -21.6986  -53.1695 H         1 UNK         0.0600 
    230 H230       -5.9456  -18.5996  -52.4369 H         1 UNK         0.3000 
    231 H231       -4.3552  -17.7854  -53.7199 H         1 UNK         0.0600 
    232 H232       -4.9072  -16.1191  -55.4426 H         1 UNK         0.0600 
    233 H233       -5.9852  -15.9131  -54.0726 H         1 UNK         0.0600 
    234 H234       -6.5644  -16.6960  -55.5427 H         1 UNK         0.0600 
    235 H235       -5.0942  -20.5187  -54.1256 H         1 UNK         0.3000 
    236 H236       -4.8174  -21.0384  -57.0333 H         1 UNK         0.0600 
    237 H237       -6.7457  -22.0360  -55.8586 H         1 UNK         0.0600 
    238 H238       -5.6502  -23.2928  -56.4071 H         1 UNK         0.0600 
    239 H239       -5.6745  -22.8255  -54.7098 H         1 UNK         0.0600 
    240 H240       -2.5461  -20.0922  -55.4701 H         1 UNK         0.3000 
    241 H241       -0.6399  -22.0975  -54.9056 H         1 UNK         0.0600 
    242 H242        0.9116  -23.2245  -56.1816 H         1 UNK         0.3800 
    243 H243        0.9571  -23.1010  -57.9170 H         1 UNK         0.3800 
    244 H244        1.0349  -20.2236  -55.3250 H         1 UNK         0.0800 
    245 H245       -0.2763  -19.2025  -55.8491 H         1 UNK         0.0800 
    246 H246        1.6103  -18.1709  -53.7214 H         1 UNK         0.0800 
    247 H247        2.0411  -19.7710  -53.1703 H         1 UNK         0.0800 
@<TRIPOS>BOND
     1    1    2 1    
     2    1  127 1    
     3    1  128 1    
     4    1  129 1    
     5    2    3 2    
     6    2    4 am   BACKBONE|DICT|INTERRES
     7    4    5 1    
     8    4  130 1    
     9    5    6 1    
    10    5   65 1    
    11    5  131 1    
    12    6    7 1    
    13    6  132 1    
    14    6  133 1    
    15    7    8 1    
    16    8    9 1    
    17    8  134 1    
    18    8  135 1    
    19    9   10 ar   
    20    9   14 ar   
    21   10   11 ar   
    22   10  136 1    
    23   11   12 ar   
    24   11  126 1    
    25   12   13 ar   
    26   12  137 1    
    27   13   14 ar   
    28   13   15 1    
    29   14  138 1    
    30   15   16 1    
    31   15  139 1    
    32   15  140 1    
    33   16   17 1    
    34   17   18 1    
    35   17  141 1    
    36   17  142 1    
    37   18   19 1    
    38   18   67 1    
    39   18  143 1    
    40   19   20 am   BACKBONE|DICT|INTERRES
    41   19  144 1    
    42   20   21 2    
    43   20   22 1    
    44   22   23 1    
    45   22   24 1    
    46   22  145 1    
    47   23  146 1    
    48   23  147 1    
    49   23  148 1    
    50   24   25 am   BACKBONE|DICT|INTERRES
    51   24  149 1    
    52   25   26 2    
    53   25   27 1    
    54   27   28 1    
    55   27   29 1    
    56   27  150 1    
    57   28  151 1    
    58   28  152 1    
    59   28  153 1    
    60   29   30 am   BACKBONE|DICT|INTERRES
    61   29  154 1    
    62   30   31 2    
    63   30   32 1    
    64   32   33 1    
    65   32   34 1    
    66   32  155 1    
    67   33  156 1    
    68   33  157 1    
    69   33  158 1    
    70   34   35 am   BACKBONE|DICT|INTERRES
    71   34  159 1    
    72   35   36 2    
    73   35   37 1    
    74   37   38 1    
    75   37   39 1    
    76   37  160 1    
    77   38  161 1    
    78   38  162 1    
    79   38  163 1    
    80   39   40 am   BACKBONE|DICT|INTERRES
    81   39  164 1    
    82   40   41 2    
    83   40   42 1    
    84   42   43 1    
    85   42   44 1    
    86   42  165 1    
    87   43  166 1    
    88   43  167 1    
    89   43  168 1    
    90   44   45 am   BACKBONE|DICT|INTERRES
    91   44  169 1    
    92   45   46 2    
    93   45   47 1    
    94   47   48 1    
    95   47   49 1    
    96   47  170 1    
    97   48  171 1    
    98   48  172 1    
    99   48  173 1    
   100   49   50 am   BACKBONE|DICT|INTERRES
   101   49  174 1    
   102   50   51 2    
   103   50   52 1    
   104   52   53 1    
   105   52   54 1    
   106   52  175 1    
   107   53  176 1    
   108   53  177 1    
   109   53  178 1    
   110   54   55 am   BACKBONE|DICT|INTERRES
   111   54  179 1    
   112   55   56 2    
   113   55   57 1    
   114   57   58 1    
   115   57   59 1    
   116   57  180 1    
   117   58  181 1    
   118   58  182 1    
   119   58  183 1    
   120   59   60 am   BACKBONE|DICT|INTERRES
   121   59  184 1    
   122   60   61 2    
   123   60   62 1    
   124   62   63 1    
   125   62   64 1    
   126   62  185 1    
   127   63  186 1    
   128   63  187 1    
   129   63  188 1    
   130   64   65 am   BACKBONE|DICT|INTERRES
   131   64  189 1    
   132   65   66 2    
   133   67   68 2    
   134   67   69 am   BACKBONE|DICT|INTERRES
   135   69   70 1    
   136   69  190 1    
   137   70   71 1    
   138   70   72 1    
   139   70  191 1    
   140   71  192 1    
   141   71  193 1    
   142   71  194 1    
   143   72   73 2    
   144   72   74 am   BACKBONE|DICT|INTERRES
   145   74   75 1    
   146   74  195 1    
   147   75   76 1    
   148   75   77 1    
   149   75  196 1    
   150   76  197 1    
   151   76  198 1    
   152   76  199 1    
   153   77   78 2    
   154   77   79 am   BACKBONE|DICT|INTERRES
   155   79   80 1    
   156   79  200 1    
   157   80   81 1    
   158   80   82 1    
   159   80  201 1    
   160   81  202 1    
   161   81  203 1    
   162   81  204 1    
   163   82   83 2    
   164   82   84 am   BACKBONE|DICT|INTERRES
   165   84   85 1    
   166   84  205 1    
   167   85   86 1    
   168   85   87 1    
   169   85  206 1    
   170   86  207 1    
   171   86  208 1    
   172   86  209 1    
   173   87   88 2    
   174   87   89 am   BACKBONE|DICT|INTERRES
   175   89   90 1    
   176   89  210 1    
   177   90   91 1    
   178   90   92 1    
   179   90  211 1    
   180   91  212 1    
   181   91  213 1    
   182   91  214 1    
   183   92   93 2    
   184   92   94 am   BACKBONE|DICT|INTERRES
   185   94   95 1    
   186   94  215 1    
   187   95   96 1    
   188   95   97 1    
   189   95  216 1    
   190   96  217 1    
   191   96  218 1    
   192   96  219 1    
   193   97   98 2    
   194   97   99 am   BACKBONE|DICT|INTERRES
   195   99  100 1    
   196   99  220 1    
   197  100  101 1    
   198  100  102 1    
   199  100  221 1    
   200  101  222 1    
   201  101  223 1    
   202  101  224 1    
   203  102  103 2    
   204  102  104 am   BACKBONE|DICT|INTERRES
   205  104  105 1    
   206  104  225 1    
   207  105  106 1    
   208  105  107 1    
   209  105  226 1    
   210  106  227 1    
   211  106  228 1    
   212  106  229 1    
   213  107  108 2    
   214  107  109 am   BACKBONE|DICT|INTERRES
   215  109  110 1    
   216  109  230 1    
   217  110  111 1    
   218  110  112 1    
   219  110  231 1    
   220  111  232 1    
   221  111  233 1    
   222  111  234 1    
   223  112  113 2    
   224  112  114 am   BACKBONE|DICT|INTERRES
   225  114  115 1    
   226  114  235 1    
   227  115  116 1    
   228  115  117 1    
   229  115  236 1    
   230  116  237 1    
   231  116  238 1    
   232  116  239 1    
   233  117  118 2    
   234  117  119 am   BACKBONE|DICT|INTERRES
   235  119  120 1    
   236  119  240 1    
   237  120  121 1    
   238  120  124 1    
   239  120  241 1    
   240  121  122 am   BACKBONE|DICT|INTERRES
   241  121  123 2    
   242  122  242 1    
   243  122  243 1    
   244  124  125 1    
   245  124  244 1    
   246  124  245 1    
   247  125  126 1    
   248  126  246 1    
   249  126  247 1    
@<TRIPOS>SUBSTRUCTURE
     1 UNK         1 GROUP             0       ****    0 ROOT    
