@<TRIPOS>MOLECULE
3R540
247   249    1
SMALL
USER_CHARGES


@<TRIPOS>ATOM
      1 CA          0.1689  -14.7334  -43.7481 C.3       0 UNK        -0.1800 
      2 C          -0.7527  -13.7745  -44.4812 C.2       0 UNK         0.5000 
      3 O          -1.5059  -13.0385  -43.8458 O.2       0 UNK        -0.5000 
      4 N          -0.6785  -13.7791  -45.8185 N.am      1 UNK        -0.5000 
      5 CA         -1.5195  -12.9876  -46.7291 C.3       1 UNK         0.1400 
      6 C6         -1.3111  -13.3939  -48.2090 C.3       23 UNK        -0.0398 
      7 S7         -1.6044  -15.1692  -48.5259 S.3       23 UNK        -0.2404 
      8 C8          0.0775  -15.7375  -48.9595 C.3       23 UNK        -0.0205 
      9 C9          0.1347  -17.1193  -49.6097 C.ar      23 UNK        -0.0193 
     10 C10        -0.8425  -17.5387  -50.5204 C.ar      23 UNK        -0.1150 
     11 C11        -0.7264  -18.7631  -51.1831 C.ar      23 UNK        -0.0193 
     12 C12         0.3873  -19.5728  -50.9351 C.ar      23 UNK        -0.1150 
     13 C13         1.3758  -19.1702  -50.0316 C.ar      23 UNK        -0.0193 
     14 C14         1.2338  -17.9498  -49.3625 C.ar      23 UNK        -0.1150 
     15 C15         2.6441  -20.0005  -49.8558 C.3       23 UNK        -0.0205 
     16 S16         2.3506  -21.6768  -49.2020 S.3       23 UNK        -0.2404 
     17 C17         2.0430  -21.3460  -47.4331 C.3       23 UNK        -0.0398 
     18 CA          0.8337  -22.1334  -46.8722 C.3       11 UNK         0.1400 
     19 N           0.7453  -22.0517  -45.4133 N.am      11 UNK        -0.5000 
     20 C          -0.1220  -22.7429  -44.6573 C.2       10 UNK         0.5000 
     21 O          -0.8737  -23.6157  -45.0934 O.2       10 UNK        -0.5000 
     22 CA         -0.1956  -22.3613  -43.1681 C.3       10 UNK         0.1400 
     23 CB          0.9051  -23.0734  -42.3680 C.3       10 UNK        -0.1800 
     24 N          -0.1061  -20.9160  -42.9523 N.am      10 UNK        -0.5000 
     25 C          -1.0018  -20.0214  -43.3957 C.2       9 UNK         0.5000 
     26 O          -2.0350  -20.3242  -43.9919 O.2       9 UNK        -0.5000 
     27 CA         -0.6617  -18.5361  -43.1807 C.3       9 UNK         0.1400 
     28 CB         -0.9693  -18.1057  -41.7388 C.3       9 UNK        -0.1800 
     29 N           0.7335  -18.2336  -43.5010 N.am      9 UNK        -0.5000 
     30 C           1.2718  -18.3397  -44.7243 C.2       8 UNK         0.5000 
     31 O           0.6359  -18.6611  -45.7254 O.2       8 UNK        -0.5000 
     32 CA          2.7829  -18.0861  -44.8463 C.3       8 UNK         0.1400 
     33 CB          3.0890  -16.5860  -44.9660 C.3       8 UNK        -0.1800 
     34 N           3.5217  -18.6569  -43.7217 N.am      8 UNK        -0.5000 
     35 C           3.6692  -19.9723  -43.5106 C.2       7 UNK         0.5000 
     36 O           3.2332  -20.8399  -44.2677 O.2       7 UNK        -0.5000 
     37 CA          4.3860  -20.3819  -42.2117 C.3       7 UNK         0.1400 
     38 CB          5.9103  -20.3196  -42.3895 C.3       7 UNK        -0.1800 
     39 N           3.9939  -19.5503  -41.0720 N.am      7 UNK        -0.5000 
     40 C           2.7681  -19.5454  -40.5294 C.2       6 UNK         0.5000 
     41 O           1.8465  -20.2615  -40.9182 O.2       6 UNK        -0.5000 
     42 CA          2.5171  -18.5403  -39.3910 C.3       6 UNK         0.1400 
     43 CB          2.9502  -19.1330  -38.0420 C.3       6 UNK        -0.1800 
     44 N           3.1826  -17.2501  -39.5933 N.am      6 UNK        -0.5000 
     45 C           2.9248  -16.4132  -40.6064 C.2       5 UNK         0.5000 
     46 O           2.1412  -16.6674  -41.5239 O.2       5 UNK        -0.5000 
     47 CA          3.7107  -15.0923  -40.6242 C.3       5 UNK         0.1400 
     48 CB          4.9401  -15.2124  -41.5380 C.3       5 UNK        -0.1800 
     49 N           2.8767  -13.9889  -41.0947 N.am      5 UNK        -0.5000 
     50 C           1.9038  -13.4034  -40.3829 C.2       4 UNK         0.5000 
     51 O           1.6347  -13.7194  -39.2225 O.2       4 UNK        -0.5000 
     52 CA          1.0887  -12.2886  -41.0807 C.3       4 UNK         0.1400 
     53 CB          0.6782  -11.1622  -40.1094 C.3       4 UNK        -0.1800 
     54 N           1.7241  -11.7323  -42.2847 N.am      4 UNK        -0.5000 
     55 C           2.8813  -11.0561  -42.3657 C.2       3 UNK         0.5000 
     56 O           3.5977  -10.7954  -41.3991 O.2       3 UNK        -0.5000 
     57 CA          3.3351  -10.6246  -43.7751 C.3       3 UNK         0.1400 
     58 CB          4.3923  -11.6052  -44.3087 C.3       3 UNK        -0.1800 
     59 N           2.2454  -10.5326  -44.7531 N.am      3 UNK        -0.5000 
     60 C           1.2957   -9.5834  -44.7493 C.2       2 UNK         0.5000 
     61 O           1.2285   -8.6888  -43.9063 O.2       2 UNK        -0.5000 
     62 CA          0.2331   -9.6591  -45.8562 C.3       2 UNK         0.1400 
     63 CB          0.7131   -8.9558  -47.1376 C.3       2 UNK        -0.1800 
     64 N          -0.1257  -11.0481  -46.1432 N.am      2 UNK        -0.5000 
     65 C          -1.3239  -11.4617  -46.5744 C.2       1 UNK         0.5000 
     66 O          -2.2545  -10.7009  -46.8444 O.2       1 UNK        -0.5000 
     67 C          -0.4929  -21.7026  -47.5240 C.2       11 UNK         0.5000 
     68 O          -1.0868  -22.4963  -48.2523 O.2       11 UNK        -0.5000 
     69 N          -0.9523  -20.4844  -47.2051 N.am      12 UNK        -0.5000 
     70 CA         -2.1757  -19.8786  -47.7262 C.3       12 UNK         0.1400 
     71 CB         -2.3540  -18.4798  -47.1205 C.3       12 UNK        -0.1800 
     72 C          -3.4285  -20.7339  -47.4869 C.2       12 UNK         0.5000 
     73 O          -4.1913  -20.9518  -48.4253 O.2       12 UNK        -0.5000 
     74 N          -3.5901  -21.2453  -46.2586 N.am      13 UNK        -0.5000 
     75 CA         -4.7069  -22.0991  -45.8481 C.3       13 UNK         0.1400 
     76 CB         -4.5715  -22.4229  -44.3525 C.3       13 UNK        -0.1800 
     77 C          -4.8417  -23.3968  -46.6686 C.2       13 UNK         0.5000 
     78 O          -5.9638  -23.8421  -46.9117 O.2       13 UNK        -0.5000 
     79 N          -3.7065  -23.9689  -47.0878 N.am      14 UNK        -0.5000 
     80 CA         -3.6536  -25.1553  -47.9356 C.3       14 UNK         0.1400 
     81 CB         -2.3541  -25.9235  -47.6454 C.3       14 UNK        -0.1800 
     82 C          -3.7524  -24.7907  -49.4262 C.2       14 UNK         0.5000 
     83 O          -4.5638  -25.3715  -50.1470 O.2       14 UNK        -0.5000 
     84 N          -2.9085  -23.8505  -49.8669 N.am      15 UNK        -0.5000 
     85 CA         -2.6926  -23.5240  -51.2731 C.3       15 UNK         0.1400 
     86 CB         -1.3490  -22.7995  -51.4142 C.3       15 UNK        -0.1800 
     87 C          -3.8313  -22.7125  -51.9094 C.2       15 UNK         0.5000 
     88 O          -4.1063  -22.9066  -53.0936 O.2       15 UNK        -0.5000 
     89 N          -4.5056  -21.8430  -51.1423 N.am      16 UNK        -0.5000 
     90 CA         -5.6734  -21.0998  -51.6289 C.3       16 UNK         0.1400 
     91 CB         -6.0168  -19.9450  -50.6782 C.3       16 UNK        -0.1800 
     92 C          -6.8968  -22.0109  -51.8362 C.2       16 UNK         0.5000 
     93 O          -7.7045  -21.7401  -52.7241 O.2       16 UNK        -0.5000 
     94 N          -6.9775  -23.0940  -51.0517 N.am      17 UNK        -0.5000 
     95 CA         -8.0299  -24.1104  -51.0932 C.3       17 UNK         0.1400 
     96 CB         -8.1473  -24.7404  -49.6953 C.3       17 UNK        -0.1800 
     97 C          -7.8057  -25.1957  -52.1692 C.2       17 UNK         0.5000 
     98 O          -8.6422  -26.0904  -52.2974 O.2       17 UNK        -0.5000 
     99 N          -6.7004  -25.1075  -52.9242 N.am      18 UNK        -0.5000 
    100 CA        -6.3135  -26.0487  -53.9752 C.3       18 UNK         0.1400 
    101 CB        -4.9001  -25.7201  -54.4697 C.3       18 UNK        -0.1800 
    102 C         -7.2893  -26.2472  -55.1657 C.2       18 UNK         0.5000 
    103 O         -7.3764  -27.3825  -55.6316 O.2       18 UNK        -0.5000 
    104 N         -8.0401  -25.2612  -55.6876 N.am      19 UNK        -0.5000 
    105 CA        -8.0575  -23.8211  -55.4321 C.3       19 UNK         0.1400 
    106 CB        -9.3681  -23.2514  -55.9970 C.3       19 UNK        -0.1800 
    107 C         -6.8637  -23.0879  -56.0654 C.2       19 UNK         0.5000 
    108 O         -6.4422  -23.4478  -57.1662 O.2       19 UNK        -0.5000 
    109 N         -6.4086  -22.0330  -55.3753 N.am      20 UNK        -0.5000 
    110 CA        -5.4825  -20.9868  -55.8264 C.3       20 UNK         0.1400 
    111 CB        -6.2439  -19.9930  -56.7266 C.3       20 UNK        -0.1800 
    112 C         -4.1765  -21.4923  -56.4786 C.2       20 UNK         0.5000 
    113 O         -3.8202  -21.0465  -57.5720 O.2       20 UNK        -0.5000 
    114 N         -3.4580  -22.3894  -55.7887 N.am      21 UNK        -0.5000 
    115 CA        -2.1840  -22.9580  -56.2510 C.3       21 UNK         0.1400 
    116 CB        -1.7575  -24.1114  -55.3303 C.3       21 UNK        -0.1800 
    117 C         -1.0478  -21.9237  -56.3884 C.2       21 UNK         0.5000 
    118 O         -0.1279  -22.1397  -57.1786 O.2       21 UNK        -0.5000 
    119 N         -1.1448  -20.8139  -55.6455 N.am      22 UNK        -0.5000 
    120 CA        -0.2806  -19.6320  -55.7853 C.3       22 UNK         0.1400 
    121 C         -0.6426  -18.6972  -56.9806 C.2       22 UNK         0.5000 
    122 N         -1.7050  -18.9456  -57.7394 N.am      22 UNK        -0.7600 
    123 O          0.0706  -17.7317  -57.2402 O.2       22 UNK        -0.5000 
    124 C124       -0.1404  -18.8587  -54.4483 C.3       23 UNK        -0.0398 
    125 S125       -1.7228  -18.2715  -53.7398 S.3       23 UNK        -0.2404 
    126 C126       -1.8024  -19.1952  -52.1726 C.3       23 UNK        -0.0205 
    127 H127        1.1471  -14.2816  -43.5921 H         1 UNK         0.0600 
    128 H128       -0.2448  -15.0036  -42.7769 H         1 UNK         0.0600 
    129 H129        0.2979  -15.6462  -44.3249 H         1 UNK         0.0600 
    130 H130       -0.0533  -14.4288  -46.2714 H         1 UNK         0.3000 
    131 H131       -2.5585  -13.1995  -46.4672 H         1 UNK         0.0600 
    132 H132       -0.3076  -13.1221  -48.5411 H         1 UNK         0.0800 
    133 H133       -1.9972  -12.8372  -48.8502 H         1 UNK         0.0800 
    134 H134        0.5269  -15.0297  -49.6570 H         1 UNK         0.0800 
    135 H135        0.6899  -15.7220  -48.0569 H         1 UNK         0.0800 
    136 H136       -1.6878  -16.9020  -50.7389 H         1 UNK         0.1150 
    137 H137        0.5034  -20.5089  -51.4620 H         1 UNK         0.1150 
    138 H138        2.0060  -17.6227  -48.6805 H         1 UNK         0.1150 
    139 H139        3.1271  -20.0937  -50.8294 H         1 UNK         0.0800 
    140 H140        3.3620  -19.4877  -49.2138 H         1 UNK         0.0800 
    141 H141        2.9469  -21.6246  -46.8900 H         1 UNK         0.0800 
    142 H142        1.9183  -20.2751  -47.2766 H         1 UNK         0.0800 
    143 H143        0.9863  -23.1874  -47.1146 H         1 UNK         0.0600 
    144 H144        1.3665  -21.3919  -44.9585 H         1 UNK         0.3000 
    145 H145       -1.1634  -22.6949  -42.7881 H         1 UNK         0.0600 
    146 H146        0.8053  -22.8766  -41.3005 H         1 UNK         0.0600 
    147 H147        0.8522  -24.1540  -42.5060 H         1 UNK         0.0600 
    148 H148        1.9000  -22.7500  -42.6757 H         1 UNK         0.0600 
    149 H149        0.6914  -20.5865  -42.4151 H         1 UNK         0.3000 
    150 H150       -1.2914  -17.9480  -43.8515 H         1 UNK         0.0600 
    151 H151       -2.0205  -18.2708  -41.4998 H         1 UNK         0.0600 
    152 H152       -0.7632  -17.0465  -41.5879 H         1 UNK         0.0600 
    153 H153       -0.3772  -18.6656  -41.0154 H         1 UNK         0.0600 
    154 H154        1.3142  -17.8954  -42.7386 H         1 UNK         0.3000 
    155 H155        3.1267  -18.5720  -45.7620 H         1 UNK         0.0600 
    156 H156        4.1507  -16.4146  -45.1440 H         1 UNK         0.0600 
    157 H157        2.8105  -16.0435  -44.0635 H         1 UNK         0.0600 
    158 H158        2.5441  -16.1415  -45.7999 H         1 UNK         0.0600 
    159 H159        3.8636  -18.0123  -43.0254 H         1 UNK         0.3000 
    160 H160        4.1098  -21.4151  -41.9907 H         1 UNK         0.0600 
    161 H161        6.2538  -19.3034  -42.5871 H         1 UNK         0.0600 
    162 H162        6.2308  -20.9431  -43.2253 H         1 UNK         0.0600 
    163 H163        6.4257  -20.6813  -41.4996 H         1 UNK         0.0600 
    164 H164        4.6937  -18.9309  -40.6911 H         1 UNK         0.3000 
    165 H165        1.4420  -18.3541  -39.3493 H         1 UNK         0.0600 
    166 H166        4.0257  -19.3102  -38.0050 H         1 UNK         0.0600 
    167 H167        2.6901  -18.4688  -37.2175 H         1 UNK         0.0600 
    168 H168        2.4537  -20.0868  -37.8575 H         1 UNK         0.0600 
    169 H169        3.8489  -16.9737  -38.8866 H         1 UNK         0.3000 
    170 H170        4.0504  -14.8645  -39.6116 H         1 UNK         0.0600 
    171 H171        5.5985  -16.0162  -41.2062 H         1 UNK         0.0600 
    172 H172        4.6601  -15.4224  -42.5705 H         1 UNK         0.0600 
    173 H173        5.5249  -14.2923  -41.5322 H         1 UNK         0.0600 
    174 H174        3.0192  -13.6890  -42.0458 H         1 UNK         0.3000 
    175 H175        0.1702  -12.7673  -41.4224 H         1 UNK         0.0600 
    176 H176        0.0971  -10.3944  -40.6202 H         1 UNK         0.0600 
    177 H177        0.0593  -11.5488  -39.2990 H         1 UNK         0.0600 
    178 H178        1.5451  -10.6813  -39.6558 H         1 UNK         0.0600 
    179 H179        1.2107  -11.8648  -43.1426 H         1 UNK         0.3000 
    180 H180        3.7972   -9.6393  -43.6829 H         1 UNK         0.0600 
    181 H181        4.7911  -11.2723  -45.2672 H         1 UNK         0.0600 
    182 H182        5.2349  -11.6859  -43.6204 H         1 UNK         0.0600 
    183 H183        3.9833  -12.6073  -44.4442 H         1 UNK         0.0600 
    184 H184        2.2865  -11.1832  -45.5222 H         1 UNK         0.3000 
    185 H185       -0.6490   -9.1345  -45.4822 H         1 UNK         0.0600 
    186 H186       -0.0740   -8.9287  -47.8913 H         1 UNK         0.0600 
    187 H187        1.0010   -7.9239  -46.9327 H         1 UNK         0.0600 
    188 H188        1.5766   -9.4591  -47.5737 H         1 UNK         0.0600 
    189 H189        0.5568  -11.7529  -45.9130 H         1 UNK         0.3000 
    190 H190       -0.3927  -19.8932  -46.5937 H         1 UNK         0.3000 
    191 H191       -2.0472  -19.7716  -48.8044 H         1 UNK         0.0600 
    192 H192       -3.2052  -17.9654  -47.5679 H         1 UNK         0.0600 
    193 H193       -1.4727  -17.8642  -47.2938 H         1 UNK         0.0600 
    194 H194       -2.5196  -18.5213  -46.0440 H         1 UNK         0.0600 
    195 H195       -2.9188  -20.9977  -45.5353 H         1 UNK         0.3000 
    196 H196       -5.6250  -21.5262  -45.9919 H         1 UNK         0.0600 
    197 H197       -5.3906  -23.0574  -44.0117 H         1 UNK         0.0600 
    198 H198       -4.5916  -21.5150  -43.7495 H         1 UNK         0.0600 
    199 H199       -3.6377  -22.9452  -44.1394 H         1 UNK         0.0600 
    200 H200       -2.8248  -23.5244  -46.8648 H         1 UNK         0.3000 
    201 H201       -4.4904  -25.8145  -47.6944 H         1 UNK         0.0600 
    202 H202       -2.3160  -26.2498  -46.6059 H         1 UNK         0.0600 
    203 H203       -1.4701  -25.3122  -47.8326 H         1 UNK         0.0600 
    204 H204       -2.2781  -26.8143  -48.2701 H         1 UNK         0.0600 
    205 H205       -2.2827  -23.3944  -49.2032 H         1 UNK         0.3000 
    206 H206       -2.6212  -24.4615  -51.8289 H         1 UNK         0.0600 
    207 H207       -0.5253  -23.4298  -51.0785 H         1 UNK         0.0600 
    208 H208       -1.1451  -22.5240  -52.4486 H         1 UNK         0.0600 
    209 H209       -1.3322  -21.8909  -50.8137 H         1 UNK         0.0600 
    210 H210       -4.2507  -21.7081  -50.1663 H         1 UNK         0.3000 
    211 H211       -5.4153  -20.6613  -52.5940 H         1 UNK         0.0600 
    212 H212       -6.8057  -19.3197  -51.0979 H         1 UNK         0.0600 
    213 H213       -5.1525  -19.3043  -50.5029 H         1 UNK         0.0600 
    214 H214       -6.3709  -20.3086  -49.7131 H         1 UNK         0.0600 
    215 H215       -6.2383  -23.2503  -50.3806 H         1 UNK         0.3000 
    216 H216       -8.9787  -23.6220  -51.3246 H         1 UNK         0.0600 
    217 H217       -8.9637  -25.4625  -49.6548 H         1 UNK         0.0600 
    218 H218       -8.3480  -23.9836  -48.9365 H         1 UNK         0.0600 
    219 H219       -7.2329  -25.2622  -49.4110 H         1 UNK         0.0600 
    220 H220       -6.0519  -24.3564  -52.7354 H         1 UNK         0.3000 
    221 H221       -6.2483  -27.0210  -53.4821 H         1 UNK         0.0600 
    222 H222       -4.8531  -24.7374  -54.9339 H         1 UNK         0.0600 
    223 H223       -4.1815  -25.7389  -53.6499 H         1 UNK         0.0600 
    224 H224       -4.5651  -26.4470  -55.2107 H         1 UNK         0.0600 
    225 H225       -8.6246  -25.5286  -56.4646 H         1 UNK         0.3000 
    226 H226       -8.0818  -23.6254  -54.3678 H         1 UNK         0.0600 
    227 H227      -10.2353  -23.7215  -55.5326 H         1 UNK         0.0600 
    228 H228       -9.4423  -22.1797  -55.8068 H         1 UNK         0.0600 
    229 H229       -9.4425  -23.3989  -57.0754 H         1 UNK         0.0600 
    230 H230       -6.8465  -21.8516  -54.4770 H         1 UNK         0.3000 
    231 H231       -5.1739  -20.4427  -54.9335 H         1 UNK         0.0600 
    232 H232       -5.6141  -19.1454  -56.9999 H         1 UNK         0.0600 
    233 H233       -7.1201  -19.5915  -56.2174 H         1 UNK         0.0600 
    234 H234       -6.5809  -20.4652  -57.6502 H         1 UNK         0.0600 
    235 H235       -3.7857  -22.6814  -54.8694 H         1 UNK         0.3000 
    236 H236       -2.3517  -23.3732  -57.2469 H         1 UNK         0.0600 
    237 H237       -1.7294  -23.8077  -54.2857 H         1 UNK         0.0600 
    238 H238       -0.7645  -24.4794  -55.5920 H         1 UNK         0.0600 
    239 H239       -2.4384  -24.9554  -55.4191 H         1 UNK         0.0600 
    240 H240       -1.9414  -20.7093  -55.0359 H         1 UNK         0.3000 
    241 H241        0.7210  -19.9957  -56.0228 H         1 UNK         0.0600 
    242 H242       -1.9088  -18.3288  -58.5096 H         1 UNK         0.3800 
    243 H243       -2.3092  -19.7426  -57.5716 H         1 UNK         0.3800 
    244 H244        0.5195  -17.9979  -54.5683 H         1 UNK         0.0800 
    245 H245        0.3636  -19.5026  -53.7288 H         1 UNK         0.0800 
    246 H246       -1.7285  -20.2563  -52.3972 H         1 UNK         0.0800 
    247 H247       -2.7848  -19.0472  -51.7219 H         1 UNK         0.0800 
@<TRIPOS>BOND
     1    1    2 1    
     2    1  127 1    
     3    1  128 1    
     4    1  129 1    
     5    2    3 2    
     6    2    4 am   BACKBONE|DICT|INTERRES
     7    4    5 1    
     8    4  130 1    
     9    5    6 1    
    10    5   65 1    
    11    5  131 1    
    12    6    7 1    
    13    6  132 1    
    14    6  133 1    
    15    7    8 1    
    16    8    9 1    
    17    8  134 1    
    18    8  135 1    
    19    9   10 ar   
    20    9   14 ar   
    21   10   11 ar   
    22   10  136 1    
    23   11   12 ar   
    24   11  126 1    
    25   12   13 ar   
    26   12  137 1    
    27   13   14 ar   
    28   13   15 1    
    29   14  138 1    
    30   15   16 1    
    31   15  139 1    
    32   15  140 1    
    33   16   17 1    
    34   17   18 1    
    35   17  141 1    
    36   17  142 1    
    37   18   19 1    
    38   18   67 1    
    39   18  143 1    
    40   19   20 am   BACKBONE|DICT|INTERRES
    41   19  144 1    
    42   20   21 2    
    43   20   22 1    
    44   22   23 1    
    45   22   24 1    
    46   22  145 1    
    47   23  146 1    
    48   23  147 1    
    49   23  148 1    
    50   24   25 am   BACKBONE|DICT|INTERRES
    51   24  149 1    
    52   25   26 2    
    53   25   27 1    
    54   27   28 1    
    55   27   29 1    
    56   27  150 1    
    57   28  151 1    
    58   28  152 1    
    59   28  153 1    
    60   29   30 am   BACKBONE|DICT|INTERRES
    61   29  154 1    
    62   30   31 2    
    63   30   32 1    
    64   32   33 1    
    65   32   34 1    
    66   32  155 1    
    67   33  156 1    
    68   33  157 1    
    69   33  158 1    
    70   34   35 am   BACKBONE|DICT|INTERRES
    71   34  159 1    
    72   35   36 2    
    73   35   37 1    
    74   37   38 1    
    75   37   39 1    
    76   37  160 1    
    77   38  161 1    
    78   38  162 1    
    79   38  163 1    
    80   39   40 am   BACKBONE|DICT|INTERRES
    81   39  164 1    
    82   40   41 2    
    83   40   42 1    
    84   42   43 1    
    85   42   44 1    
    86   42  165 1    
    87   43  166 1    
    88   43  167 1    
    89   43  168 1    
    90   44   45 am   BACKBONE|DICT|INTERRES
    91   44  169 1    
    92   45   46 2    
    93   45   47 1    
    94   47   48 1    
    95   47   49 1    
    96   47  170 1    
    97   48  171 1    
    98   48  172 1    
    99   48  173 1    
   100   49   50 am   BACKBONE|DICT|INTERRES
   101   49  174 1    
   102   50   51 2    
   103   50   52 1    
   104   52   53 1    
   105   52   54 1    
   106   52  175 1    
   107   53  176 1    
   108   53  177 1    
   109   53  178 1    
   110   54   55 am   BACKBONE|DICT|INTERRES
   111   54  179 1    
   112   55   56 2    
   113   55   57 1    
   114   57   58 1    
   115   57   59 1    
   116   57  180 1    
   117   58  181 1    
   118   58  182 1    
   119   58  183 1    
   120   59   60 am   BACKBONE|DICT|INTERRES
   121   59  184 1    
   122   60   61 2    
   123   60   62 1    
   124   62   63 1    
   125   62   64 1    
   126   62  185 1    
   127   63  186 1    
   128   63  187 1    
   129   63  188 1    
   130   64   65 am   BACKBONE|DICT|INTERRES
   131   64  189 1    
   132   65   66 2    
   133   67   68 2    
   134   67   69 am   BACKBONE|DICT|INTERRES
   135   69   70 1    
   136   69  190 1    
   137   70   71 1    
   138   70   72 1    
   139   70  191 1    
   140   71  192 1    
   141   71  193 1    
   142   71  194 1    
   143   72   73 2    
   144   72   74 am   BACKBONE|DICT|INTERRES
   145   74   75 1    
   146   74  195 1    
   147   75   76 1    
   148   75   77 1    
   149   75  196 1    
   150   76  197 1    
   151   76  198 1    
   152   76  199 1    
   153   77   78 2    
   154   77   79 am   BACKBONE|DICT|INTERRES
   155   79   80 1    
   156   79  200 1    
   157   80   81 1    
   158   80   82 1    
   159   80  201 1    
   160   81  202 1    
   161   81  203 1    
   162   81  204 1    
   163   82   83 2    
   164   82   84 am   BACKBONE|DICT|INTERRES
   165   84   85 1    
   166   84  205 1    
   167   85   86 1    
   168   85   87 1    
   169   85  206 1    
   170   86  207 1    
   171   86  208 1    
   172   86  209 1    
   173   87   88 2    
   174   87   89 am   BACKBONE|DICT|INTERRES
   175   89   90 1    
   176   89  210 1    
   177   90   91 1    
   178   90   92 1    
   179   90  211 1    
   180   91  212 1    
   181   91  213 1    
   182   91  214 1    
   183   92   93 2    
   184   92   94 am   BACKBONE|DICT|INTERRES
   185   94   95 1    
   186   94  215 1    
   187   95   96 1    
   188   95   97 1    
   189   95  216 1    
   190   96  217 1    
   191   96  218 1    
   192   96  219 1    
   193   97   98 2    
   194   97   99 am   BACKBONE|DICT|INTERRES
   195   99  100 1    
   196   99  220 1    
   197  100  101 1    
   198  100  102 1    
   199  100  221 1    
   200  101  222 1    
   201  101  223 1    
   202  101  224 1    
   203  102  103 2    
   204  102  104 am   BACKBONE|DICT|INTERRES
   205  104  105 1    
   206  104  225 1    
   207  105  106 1    
   208  105  107 1    
   209  105  226 1    
   210  106  227 1    
   211  106  228 1    
   212  106  229 1    
   213  107  108 2    
   214  107  109 am   BACKBONE|DICT|INTERRES
   215  109  110 1    
   216  109  230 1    
   217  110  111 1    
   218  110  112 1    
   219  110  231 1    
   220  111  232 1    
   221  111  233 1    
   222  111  234 1    
   223  112  113 2    
   224  112  114 am   BACKBONE|DICT|INTERRES
   225  114  115 1    
   226  114  235 1    
   227  115  116 1    
   228  115  117 1    
   229  115  236 1    
   230  116  237 1    
   231  116  238 1    
   232  116  239 1    
   233  117  118 2    
   234  117  119 am   BACKBONE|DICT|INTERRES
   235  119  120 1    
   236  119  240 1    
   237  120  121 1    
   238  120  124 1    
   239  120  241 1    
   240  121  122 am   BACKBONE|DICT|INTERRES
   241  121  123 2    
   242  122  242 1    
   243  122  243 1    
   244  124  125 1    
   245  124  244 1    
   246  124  245 1    
   247  125  126 1    
   248  126  246 1    
   249  126  247 1    
@<TRIPOS>SUBSTRUCTURE
     1 UNK         1 GROUP             0       ****    0 ROOT    
