@<TRIPOS>MOLECULE
3R540
247   249    1
SMALL
USER_CHARGES


@<TRIPOS>ATOM
      1 CA          0.1140  -13.0603  -47.7083 C.3       0 UNK        -0.1800 
      2 C           1.6150  -13.2778  -47.5909 C.2       0 UNK         0.5000 
      3 O           2.0921  -13.6651  -46.5258 O.2       0 UNK        -0.5000 
      4 N           2.3570  -13.0310  -48.6808 N.am      1 UNK        -0.5000 
      5 CA          3.8150  -13.2058  -48.8048 C.3       1 UNK         0.1400 
      6 C6          4.2679  -14.6890  -48.7320 C.3       23 UNK        -0.0398 
      7 S7          3.5426  -15.7256  -50.0475 S.3       23 UNK        -0.2404 
      8 C8          2.1970  -16.5581  -49.1523 C.3       23 UNK        -0.0205 
      9 C9          1.7453  -17.8073  -49.8860 C.ar      23 UNK        -0.0193 
     10 C10         0.6750  -17.7604  -50.7834 C.ar      23 UNK        -0.1150 
     11 C11         0.2580  -18.9156  -51.4579 C.ar      23 UNK        -0.0193 
     12 C12         0.9350  -20.1178  -51.2245 C.ar      23 UNK        -0.1150 
     13 C13         2.0004  -20.1780  -50.3226 C.ar      23 UNK        -0.0193 
     14 C14         2.4027  -19.0176  -49.6592 C.ar      23 UNK        -0.1150 
     15 C15         2.7247  -21.4919  -50.0689 C.3       23 UNK        -0.0205 
     16 S16         2.5034  -22.0729  -48.3581 S.3       23 UNK        -0.2404 
     17 C17         0.7070  -22.3676  -48.3244 C.3       23 UNK        -0.0398 
     18 CA          0.3049  -23.2737  -47.1412 C.3       11 UNK         0.1400 
     19 N           0.4187  -22.5981  -45.8474 N.am      11 UNK        -0.5000 
     20 C           0.3681  -23.2277  -44.6655 C.2       10 UNK         0.5000 
     21 O           0.3028  -24.4514  -44.5465 O.2       10 UNK        -0.5000 
     22 CA          0.3288  -22.3405  -43.4079 C.3       10 UNK         0.1400 
     23 CB          1.7407  -21.8823  -43.0139 C.3       10 UNK        -0.1800 
     24 N          -0.5438  -21.1761  -43.5718 N.am      10 UNK        -0.5000 
     25 C          -1.8680  -21.2454  -43.7720 C.2       9 UNK         0.5000 
     26 O          -2.5017  -22.3013  -43.7757 O.2       9 UNK        -0.5000 
     27 CA         -2.6012  -19.9228  -44.0648 C.3       9 UNK         0.1400 
     28 CB         -2.9281  -19.1783  -42.7622 C.3       9 UNK        -0.1800 
     29 N          -1.8516  -19.0419  -44.9620 N.am      9 UNK        -0.5000 
     30 C          -1.5368  -19.3317  -46.2326 C.2       8 UNK         0.5000 
     31 O          -1.8793  -20.3670  -46.7987 O.2       8 UNK        -0.5000 
     32 CA         -0.6432  -18.3269  -46.9802 C.3       8 UNK         0.1400 
     33 CB         -1.4689  -17.1652  -47.5530 C.3       8 UNK        -0.1800 
     34 N           0.4257  -17.8076  -46.1271 N.am      8 UNK        -0.5000 
     35 C           1.4441  -18.5503  -45.6699 C.2       7 UNK         0.5000 
     36 O           1.6062  -19.7364  -45.9541 O.2       7 UNK        -0.5000 
     37 CA          2.4084  -17.8651  -44.6847 C.3       7 UNK         0.1400 
     38 CB          3.4487  -17.0125  -45.4239 C.3       7 UNK        -0.1800 
     39 N           1.7054  -17.0291  -43.7121 N.am      7 UNK        -0.5000 
     40 C           0.9081  -17.5081  -42.7482 C.2       6 UNK         0.5000 
     41 O           0.6998  -18.7070  -42.5655 O.2       6 UNK        -0.5000 
     42 CA          0.1941  -16.4702  -41.8653 C.3       6 UNK         0.1400 
     43 CB          1.1085  -16.0148  -40.7183 C.3       6 UNK        -0.1800 
     44 N          -0.2762  -15.2941  -42.6006 N.am      6 UNK        -0.5000 
     45 C          -1.1760  -15.3060  -43.5941 C.2       5 UNK         0.5000 
     46 O          -1.6298  -16.3437  -44.0744 O.2       5 UNK        -0.5000 
     47 CA         -1.6316  -13.9521  -44.1798 C.3       5 UNK         0.1400 
     48 CB         -3.1678  -13.8291  -44.1978 C.3       5 UNK        -0.1800 
     49 N          -1.0124  -12.7700  -43.5658 N.am      5 UNK        -0.5000 
     50 C          -1.1422  -12.2920  -42.3198 C.2       4 UNK         0.5000 
     51 O          -1.8653  -12.8012  -41.4631 O.2       4 UNK        -0.5000 
     52 CA         -0.2508  -11.0778  -41.9686 C.3       4 UNK         0.1400 
     53 CB         -0.3826  -10.6495  -40.4958 C.3       4 UNK        -0.1800 
     54 N           1.1650  -11.3382  -42.2575 N.am      4 UNK        -0.5000 
     55 C           1.7188  -11.3309  -43.4762 C.2       3 UNK         0.5000 
     56 O           1.0838  -11.0642  -44.5014 O.2       3 UNK        -0.5000 
     57 CA          3.1962  -11.7502  -43.5643 C.3       3 UNK         0.1400 
     58 CB          3.3455  -13.2617  -43.3164 C.3       3 UNK        -0.1800 
     59 N           3.7094  -11.4392  -44.8955 N.am      3 UNK        -0.5000 
     60 C           4.3337  -10.3026  -45.2285 C.2       2 UNK         0.5000 
     61 O           4.6860   -9.4607  -44.4003 O.2       2 UNK        -0.5000 
     62 CA          4.5674  -10.0170  -46.7293 C.3       2 UNK         0.1400 
     63 CB          6.0310   -9.6283  -47.0260 C.3       2 UNK        -0.1800 
     64 N           4.0928  -11.0693  -47.6394 N.am      2 UNK        -0.5000 
     65 C           4.5950  -12.3005  -47.8210 C.2       1 UNK         0.5000 
     66 O           5.5925  -12.7270  -47.2376 O.2       1 UNK        -0.5000 
     67 C          -1.0990  -23.8730  -47.3498 C.2       11 UNK         0.5000 
     68 O          -1.1953  -25.0019  -47.8248 O.2       11 UNK        -0.5000 
     69 N          -2.1612  -23.1514  -46.9674 N.am      12 UNK        -0.5000 
     70 CA         -3.5501  -23.6094  -47.0651 C.3       12 UNK         0.1400 
     71 CB         -4.5123  -22.4649  -46.7189 C.3       12 UNK        -0.1800 
     72 C          -3.8322  -24.8490  -46.2000 C.2       12 UNK         0.5000 
     73 O          -4.5116  -25.7658  -46.6610 O.2       12 UNK        -0.5000 
     74 N          -3.2427  -24.8936  -44.9973 N.am      13 UNK        -0.5000 
     75 CA         -3.2647  -26.0514  -44.0990 C.3       13 UNK         0.1400 
     76 CB         -2.6519  -25.6520  -42.7484 C.3       13 UNK        -0.1800 
     77 C          -2.5512  -27.2931  -44.6774 C.2       13 UNK         0.5000 
     78 O          -2.9184  -28.4168  -44.3331 O.2       13 UNK        -0.5000 
     79 N          -1.5711  -27.0710  -45.5631 N.am      14 UNK        -0.5000 
     80 CA         -0.8465  -28.1017  -46.3088 C.3       14 UNK         0.1400 
     81 CB          0.6123  -27.6424  -46.4765 C.3       14 UNK        -0.1800 
     82 C          -1.4855  -28.4107  -47.6815 C.2       14 UNK         0.5000 
     83 O          -0.9502  -29.2455  -48.4119 O.2       14 UNK        -0.5000 
     84 N          -2.5948  -27.7321  -48.0185 N.am      15 UNK        -0.5000 
     85 CA         -3.3260  -27.7755  -49.2917 C.3       15 UNK         0.1400 
     86 CB         -3.9312  -29.1734  -49.5378 C.3       15 UNK        -0.1800 
     87 C          -2.5118  -27.2469  -50.4957 C.2       15 UNK         0.5000 
     88 O          -2.7569  -27.6534  -51.6327 O.2       15 UNK        -0.5000 
     89 N          -1.5725  -26.3321  -50.2273 N.am      16 UNK        -0.5000 
     90 CA         -0.7163  -25.6569  -51.2044 C.3       16 UNK         0.1400 
     91 CB          0.7298  -25.6806  -50.6782 C.3       16 UNK        -0.1800 
     92 C          -1.1831  -24.2128  -51.4884 C.2       16 UNK         0.5000 
     93 O          -0.5104  -23.4938  -52.2277 O.2       16 UNK        -0.5000 
     94 N          -2.3153  -23.8073  -50.9036 N.am      17 UNK        -0.5000 
     95 CA         -2.9815  -22.5238  -51.0995 C.3       17 UNK         0.1400 
     96 CB         -2.3628  -21.4566  -50.1782 C.3       17 UNK        -0.1800 
     97 C          -4.4855  -22.7031  -50.8364 C.2       17 UNK         0.5000 
     98 O          -4.9232  -23.8171  -50.5322 O.2       17 UNK        -0.5000 
     99 N          -5.2308  -21.5952  -50.9480 N.am      18 UNK        -0.5000 
    100 CA        -6.6903  -21.4735  -50.8539 C.3       18 UNK         0.1400 
    101 CB        -7.2282  -22.0216  -49.5142 C.3       18 UNK        -0.1800 
    102 C         -7.4202  -22.0647  -52.0776 C.2       18 UNK         0.5000 
    103 O         -6.7866  -22.6140  -52.9833 O.2       18 UNK        -0.5000 
    104 N         -8.7465  -21.8657  -52.1137 N.am      19 UNK        -0.5000 
    105 CA        -9.6846  -22.1103  -53.2208 C.3       19 UNK         0.1400 
    106 CB        -9.6906  -23.5839  -53.6734 C.3       19 UNK        -0.1800 
    107 C         -9.4707  -21.1409  -54.4009 C.2       19 UNK         0.5000 
    108 O        -10.4034  -20.4327  -54.7828 O.2       19 UNK        -0.5000 
    109 N         -8.2381  -21.0872  -54.9137 N.am      20 UNK        -0.5000 
    110 CA        -7.7347  -20.0401  -55.7956 C.3       20 UNK         0.1400 
    111 CB        -6.7248  -20.6618  -56.7727 C.3       20 UNK        -0.1800 
    112 C         -7.0588  -18.9477  -54.9479 C.2       20 UNK         0.5000 
    113 O         -6.5416  -19.2383  -53.8650 O.2       20 UNK        -0.5000 
    114 N         -7.0559  -17.7125  -55.4598 N.am      21 UNK        -0.5000 
    115 CA        -6.3602  -16.5794  -54.8506 C.3       21 UNK         0.1400 
    116 CB        -6.9415  -15.2737  -55.4153 C.3       21 UNK        -0.1800 
    117 C         -4.8453  -16.6556  -55.1151 C.2       21 UNK         0.5000 
    118 O         -4.4355  -17.0705  -56.2025 O.2       21 UNK        -0.5000 
    119 N         -4.0474  -16.2236  -54.1323 N.am      22 UNK        -0.5000 
    120 CA        -2.5765  -16.1659  -54.2197 C.3       22 UNK         0.1400 
    121 C         -2.0267  -14.9298  -54.9933 C.2       22 UNK         0.5000 
    122 N         -2.8459  -13.9555  -55.3708 N.am      22 UNK        -0.7600 
    123 O         -0.8318  -14.8580  -55.2666 O.2       22 UNK        -0.5000 
    124 C124       -1.9067  -16.2880  -52.8259 C.3       23 UNK        -0.0398 
    125 S125       -2.3118  -17.8593  -51.9854 S.3       23 UNK        -0.2404 
    126 C126       -0.8887  -18.8966  -52.4687 C.3       23 UNK        -0.0205 
    127 H127       -0.1646  -12.6739  -48.6888 H         1 UNK         0.0600 
    128 H128       -0.2197  -12.3475  -46.9540 H         1 UNK         0.0600 
    129 H129       -0.4131  -14.0010  -47.5512 H         1 UNK         0.0600 
    130 H130        1.8945  -12.7169  -49.5225 H         1 UNK         0.3000 
    131 H131        4.0763  -12.8379  -49.7983 H         1 UNK         0.0600 
    132 H132        5.3506  -14.7576  -48.8511 H         1 UNK         0.0800 
    133 H133        4.0525  -15.1135  -47.7519 H         1 UNK         0.0800 
    134 H134        2.5266  -16.8330  -48.1516 H         1 UNK         0.0800 
    135 H135        1.3624  -15.8686  -49.0262 H         1 UNK         0.0800 
    136 H136        0.1740  -16.8194  -50.9513 H         1 UNK         0.1150 
    137 H137        0.6303  -21.0141  -51.7472 H         1 UNK         0.1150 
    138 H138        3.2273  -19.0596  -48.9614 H         1 UNK         0.1150 
    139 H139        2.3863  -22.2662  -50.7597 H         1 UNK         0.0800 
    140 H140        3.7896  -21.3535  -50.2601 H         1 UNK         0.0800 
    141 H141        0.4282  -22.8230  -49.2755 H         1 UNK         0.0800 
    142 H142        0.1895  -21.4084  -48.2756 H         1 UNK         0.0800 
    143 H143        0.9944  -24.1210  -47.1259 H         1 UNK         0.0600 
    144 H144        0.5303  -21.5903  -45.8664 H         1 UNK         0.3000 
    145 H145       -0.0719  -22.9437  -42.5905 H         1 UNK         0.0600 
    146 H146        1.7257  -21.3203  -42.0799 H         1 UNK         0.0600 
    147 H147        2.1878  -21.2470  -43.7786 H         1 UNK         0.0600 
    148 H148        2.4022  -22.7373  -42.8689 H         1 UNK         0.0600 
    149 H149       -0.1020  -20.2636  -43.5194 H         1 UNK         0.3000 
    150 H150       -3.5440  -20.1671  -44.5573 H         1 UNK         0.0600 
    151 H151       -3.4977  -18.2698  -42.9594 H         1 UNK         0.0600 
    152 H152       -2.0249  -18.8958  -42.2220 H         1 UNK         0.0600 
    153 H153       -3.5273  -19.8012  -42.0971 H         1 UNK         0.0600 
    154 H154       -1.5823  -18.1350  -44.5884 H         1 UNK         0.3000 
    155 H155       -0.1818  -18.8553  -47.8175 H         1 UNK         0.0600 
    156 H156       -2.2522  -17.5376  -48.2146 H         1 UNK         0.0600 
    157 H157       -0.8469  -16.4908  -48.1403 H         1 UNK         0.0600 
    158 H158       -1.9510  -16.5818  -46.7682 H         1 UNK         0.0600 
    159 H159        0.3277  -16.8599  -45.7962 H         1 UNK         0.3000 
    160 H160        2.9384  -18.6511  -44.1422 H         1 UNK         0.0600 
    161 H161        2.9870  -16.1510  -45.9051 H         1 UNK         0.0600 
    162 H162        3.9598  -17.5926  -46.1935 H         1 UNK         0.0600 
    163 H163        4.2099  -16.6398  -44.7384 H         1 UNK         0.0600 
    164 H164        1.8125  -16.0299  -43.8006 H         1 UNK         0.3000 
    165 H165       -0.6812  -16.9557  -41.4294 H         1 UNK         0.0600 
    166 H166        0.5840  -15.3428  -40.0386 H         1 UNK         0.0600 
    167 H167        1.4506  -16.8676  -40.1304 H         1 UNK         0.0600 
    168 H168        1.9932  -15.4957  -41.0884 H         1 UNK         0.0600 
    169 H169        0.0263  -14.3956  -42.2572 H         1 UNK         0.3000 
    170 H170       -1.2941  -13.9552  -45.2161 H         1 UNK         0.0600 
    171 H171       -3.5922  -13.8828  -43.1951 H         1 UNK         0.0600 
    172 H172       -3.4829  -12.8874  -44.6471 H         1 UNK         0.0600 
    173 H173       -3.6172  -14.6324  -44.7830 H         1 UNK         0.0600 
    174 H174       -0.3586  -12.2677  -44.1618 H         1 UNK         0.3000 
    175 H175       -0.5889  -10.2432  -42.5865 H         1 UNK         0.0600 
    176 H176       -0.0617  -11.4394  -39.8155 H         1 UNK         0.0600 
    177 H177        0.2175   -9.7634  -40.2879 H         1 UNK         0.0600 
    178 H178       -1.4164  -10.4030  -40.2502 H         1 UNK         0.0600 
    179 H179        1.7387  -11.5874  -41.4645 H         1 UNK         0.3000 
    180 H180        3.7619  -11.2111  -42.8016 H         1 UNK         0.0600 
    181 H181        4.3774  -13.5838  -43.4578 H         1 UNK         0.0600 
    182 H182        2.7194  -13.8482  -43.9886 H         1 UNK         0.0600 
    183 H183        3.0637  -13.5224  -42.2960 H         1 UNK         0.0600 
    184 H184        3.3937  -12.0537  -45.6357 H         1 UNK         0.3000 
    185 H185        3.9532   -9.1444  -46.9559 H         1 UNK         0.0600 
    186 H186        6.1774   -9.4171  -48.0853 H         1 UNK         0.0600 
    187 H187        6.3144   -8.7302  -46.4759 H         1 UNK         0.0600 
    188 H188        6.7292  -10.4146  -46.7390 H         1 UNK         0.0600 
    189 H189        3.2506  -10.8408  -48.1495 H         1 UNK         0.3000 
    190 H190       -2.0183  -22.1951  -46.6498 H         1 UNK         0.3000 
    191 H191       -3.7271  -23.8942  -48.1029 H         1 UNK         0.0600 
    192 H192       -4.3671  -21.6106  -47.3800 H         1 UNK         0.0600 
    193 H193       -4.3804  -22.1233  -45.6932 H         1 UNK         0.0600 
    194 H194       -5.5490  -22.7863  -46.8242 H         1 UNK         0.0600 
    195 H195       -2.7431  -24.0708  -44.6720 H         1 UNK         0.3000 
    196 H196       -4.3091  -26.3224  -43.9322 H         1 UNK         0.0600 
    197 H197       -3.1921  -24.8169  -42.3018 H         1 UNK         0.0600 
    198 H198       -1.6076  -25.3566  -42.8520 H         1 UNK         0.0600 
    199 H199       -2.6904  -26.4810  -42.0407 H         1 UNK         0.0600 
    200 H200       -1.3356  -26.1136  -45.7910 H         1 UNK         0.3000 
    201 H201       -0.8427  -29.0315  -45.7367 H         1 UNK         0.0600 
    202 H202        1.0693  -27.4204  -45.5119 H         1 UNK         0.0600 
    203 H203        0.6868  -26.7474  -47.0943 H         1 UNK         0.0600 
    204 H204        1.2159  -28.4173  -46.9504 H         1 UNK         0.0600 
    205 H205       -2.9572  -27.0666  -47.3464 H         1 UNK         0.3000 
    206 H206       -4.1584  -27.0801  -49.1754 H         1 UNK         0.0600 
    207 H207       -3.1631  -29.9184  -49.7462 H         1 UNK         0.0600 
    208 H208       -4.5035  -29.5124  -48.6743 H         1 UNK         0.0600 
    209 H209       -4.6112  -29.1603  -50.3902 H         1 UNK         0.0600 
    210 H210       -1.4545  -26.0250  -49.2624 H         1 UNK         0.3000 
    211 H211       -0.7377  -26.1911  -52.1561 H         1 UNK         0.0600 
    212 H212        0.8227  -25.1663  -49.7221 H         1 UNK         0.0600 
    213 H213        1.4147  -25.2007  -51.3784 H         1 UNK         0.0600 
    214 H214        1.0767  -26.7044  -50.5373 H         1 UNK         0.0600 
    215 H215       -2.8575  -24.4772  -50.3739 H         1 UNK         0.3000 
    216 H216       -2.8621  -22.2167  -52.1406 H         1 UNK         0.0600 
    217 H217       -2.7459  -20.4622  -50.4053 H         1 UNK         0.0600 
    218 H218       -2.5809  -21.6524  -49.1312 H         1 UNK         0.0600 
    219 H219       -1.2829  -21.4139  -50.2906 H         1 UNK         0.0600 
    220 H220       -4.7628  -20.7460  -51.2311 H         1 UNK         0.3000 
    221 H221       -6.8893  -20.4008  -50.8731 H         1 UNK         0.0600 
    222 H222       -7.1669  -23.1085  -49.4588 H         1 UNK         0.0600 
    223 H223       -6.6732  -21.6086  -48.6726 H         1 UNK         0.0600 
    224 H224       -8.2740  -21.7513  -49.3670 H         1 UNK         0.0600 
    225 H225       -9.1586  -21.3816  -51.3283 H         1 UNK         0.3000 
    226 H226      -10.6753  -21.8968  -52.8161 H         1 UNK         0.0600 
    227 H227       -9.8677  -24.2532  -52.8316 H         1 UNK         0.0600 
    228 H228      -10.4837  -23.7593  -54.4011 H         1 UNK         0.0600 
    229 H229       -8.7523  -23.8779  -54.1438 H         1 UNK         0.0600 
    230 H230       -7.5318  -21.6583  -54.4567 H         1 UNK         0.3000 
    231 H231       -8.5543  -19.5986  -56.3667 H         1 UNK         0.0600 
    232 H232       -6.3266  -19.9100  -57.4555 H         1 UNK         0.0600 
    233 H233       -7.1910  -21.4384  -57.3792 H         1 UNK         0.0600 
    234 H234       -5.8796  -21.1090  -56.2472 H         1 UNK         0.0600 
    235 H235       -7.4563  -17.5548  -56.3732 H         1 UNK         0.3000 
    236 H236       -6.5352  -16.5959  -53.7724 H         1 UNK         0.0600 
    237 H237       -6.7908  -15.1977  -56.4930 H         1 UNK         0.0600 
    238 H238       -8.0117  -15.2017  -55.2202 H         1 UNK         0.0600 
    239 H239       -6.4700  -14.4044  -54.9554 H         1 UNK         0.0600 
    240 H240       -4.4538  -15.8997  -53.2668 H         1 UNK         0.3000 
    241 H241       -2.2481  -17.0300  -54.8008 H         1 UNK         0.0600 
    242 H242       -2.4763  -13.1652  -55.8760 H         1 UNK         0.3800 
    243 H243       -3.8293  -13.9989  -55.1592 H         1 UNK         0.3800 
    244 H244       -0.8224  -16.2055  -52.9148 H         1 UNK         0.0800 
    245 H245       -2.2186  -15.4643  -52.1820 H         1 UNK         0.0800 
    246 H246       -1.2643  -19.9105  -52.6149 H         1 UNK         0.0800 
    247 H247       -0.5041  -18.5781  -53.4382 H         1 UNK         0.0800 
@<TRIPOS>BOND
     1    1    2 1    
     2    1  127 1    
     3    1  128 1    
     4    1  129 1    
     5    2    3 2    
     6    2    4 am   BACKBONE|DICT|INTERRES
     7    4    5 1    
     8    4  130 1    
     9    5    6 1    
    10    5   65 1    
    11    5  131 1    
    12    6    7 1    
    13    6  132 1    
    14    6  133 1    
    15    7    8 1    
    16    8    9 1    
    17    8  134 1    
    18    8  135 1    
    19    9   10 ar   
    20    9   14 ar   
    21   10   11 ar   
    22   10  136 1    
    23   11   12 ar   
    24   11  126 1    
    25   12   13 ar   
    26   12  137 1    
    27   13   14 ar   
    28   13   15 1    
    29   14  138 1    
    30   15   16 1    
    31   15  139 1    
    32   15  140 1    
    33   16   17 1    
    34   17   18 1    
    35   17  141 1    
    36   17  142 1    
    37   18   19 1    
    38   18   67 1    
    39   18  143 1    
    40   19   20 am   BACKBONE|DICT|INTERRES
    41   19  144 1    
    42   20   21 2    
    43   20   22 1    
    44   22   23 1    
    45   22   24 1    
    46   22  145 1    
    47   23  146 1    
    48   23  147 1    
    49   23  148 1    
    50   24   25 am   BACKBONE|DICT|INTERRES
    51   24  149 1    
    52   25   26 2    
    53   25   27 1    
    54   27   28 1    
    55   27   29 1    
    56   27  150 1    
    57   28  151 1    
    58   28  152 1    
    59   28  153 1    
    60   29   30 am   BACKBONE|DICT|INTERRES
    61   29  154 1    
    62   30   31 2    
    63   30   32 1    
    64   32   33 1    
    65   32   34 1    
    66   32  155 1    
    67   33  156 1    
    68   33  157 1    
    69   33  158 1    
    70   34   35 am   BACKBONE|DICT|INTERRES
    71   34  159 1    
    72   35   36 2    
    73   35   37 1    
    74   37   38 1    
    75   37   39 1    
    76   37  160 1    
    77   38  161 1    
    78   38  162 1    
    79   38  163 1    
    80   39   40 am   BACKBONE|DICT|INTERRES
    81   39  164 1    
    82   40   41 2    
    83   40   42 1    
    84   42   43 1    
    85   42   44 1    
    86   42  165 1    
    87   43  166 1    
    88   43  167 1    
    89   43  168 1    
    90   44   45 am   BACKBONE|DICT|INTERRES
    91   44  169 1    
    92   45   46 2    
    93   45   47 1    
    94   47   48 1    
    95   47   49 1    
    96   47  170 1    
    97   48  171 1    
    98   48  172 1    
    99   48  173 1    
   100   49   50 am   BACKBONE|DICT|INTERRES
   101   49  174 1    
   102   50   51 2    
   103   50   52 1    
   104   52   53 1    
   105   52   54 1    
   106   52  175 1    
   107   53  176 1    
   108   53  177 1    
   109   53  178 1    
   110   54   55 am   BACKBONE|DICT|INTERRES
   111   54  179 1    
   112   55   56 2    
   113   55   57 1    
   114   57   58 1    
   115   57   59 1    
   116   57  180 1    
   117   58  181 1    
   118   58  182 1    
   119   58  183 1    
   120   59   60 am   BACKBONE|DICT|INTERRES
   121   59  184 1    
   122   60   61 2    
   123   60   62 1    
   124   62   63 1    
   125   62   64 1    
   126   62  185 1    
   127   63  186 1    
   128   63  187 1    
   129   63  188 1    
   130   64   65 am   BACKBONE|DICT|INTERRES
   131   64  189 1    
   132   65   66 2    
   133   67   68 2    
   134   67   69 am   BACKBONE|DICT|INTERRES
   135   69   70 1    
   136   69  190 1    
   137   70   71 1    
   138   70   72 1    
   139   70  191 1    
   140   71  192 1    
   141   71  193 1    
   142   71  194 1    
   143   72   73 2    
   144   72   74 am   BACKBONE|DICT|INTERRES
   145   74   75 1    
   146   74  195 1    
   147   75   76 1    
   148   75   77 1    
   149   75  196 1    
   150   76  197 1    
   151   76  198 1    
   152   76  199 1    
   153   77   78 2    
   154   77   79 am   BACKBONE|DICT|INTERRES
   155   79   80 1    
   156   79  200 1    
   157   80   81 1    
   158   80   82 1    
   159   80  201 1    
   160   81  202 1    
   161   81  203 1    
   162   81  204 1    
   163   82   83 2    
   164   82   84 am   BACKBONE|DICT|INTERRES
   165   84   85 1    
   166   84  205 1    
   167   85   86 1    
   168   85   87 1    
   169   85  206 1    
   170   86  207 1    
   171   86  208 1    
   172   86  209 1    
   173   87   88 2    
   174   87   89 am   BACKBONE|DICT|INTERRES
   175   89   90 1    
   176   89  210 1    
   177   90   91 1    
   178   90   92 1    
   179   90  211 1    
   180   91  212 1    
   181   91  213 1    
   182   91  214 1    
   183   92   93 2    
   184   92   94 am   BACKBONE|DICT|INTERRES
   185   94   95 1    
   186   94  215 1    
   187   95   96 1    
   188   95   97 1    
   189   95  216 1    
   190   96  217 1    
   191   96  218 1    
   192   96  219 1    
   193   97   98 2    
   194   97   99 am   BACKBONE|DICT|INTERRES
   195   99  100 1    
   196   99  220 1    
   197  100  101 1    
   198  100  102 1    
   199  100  221 1    
   200  101  222 1    
   201  101  223 1    
   202  101  224 1    
   203  102  103 2    
   204  102  104 am   BACKBONE|DICT|INTERRES
   205  104  105 1    
   206  104  225 1    
   207  105  106 1    
   208  105  107 1    
   209  105  226 1    
   210  106  227 1    
   211  106  228 1    
   212  106  229 1    
   213  107  108 2    
   214  107  109 am   BACKBONE|DICT|INTERRES
   215  109  110 1    
   216  109  230 1    
   217  110  111 1    
   218  110  112 1    
   219  110  231 1    
   220  111  232 1    
   221  111  233 1    
   222  111  234 1    
   223  112  113 2    
   224  112  114 am   BACKBONE|DICT|INTERRES
   225  114  115 1    
   226  114  235 1    
   227  115  116 1    
   228  115  117 1    
   229  115  236 1    
   230  116  237 1    
   231  116  238 1    
   232  116  239 1    
   233  117  118 2    
   234  117  119 am   BACKBONE|DICT|INTERRES
   235  119  120 1    
   236  119  240 1    
   237  120  121 1    
   238  120  124 1    
   239  120  241 1    
   240  121  122 am   BACKBONE|DICT|INTERRES
   241  121  123 2    
   242  122  242 1    
   243  122  243 1    
   244  124  125 1    
   245  124  244 1    
   246  124  245 1    
   247  125  126 1    
   248  126  246 1    
   249  126  247 1    
@<TRIPOS>SUBSTRUCTURE
     1 UNK         1 GROUP             0       ****    0 ROOT    
