@<TRIPOS>MOLECULE
3R540
247   249    1
SMALL
USER_CHARGES


@<TRIPOS>ATOM
      1 CA         -0.4055   -9.6286  -48.3736 C.3       0 UNK        -0.1800 
      2 C          -0.3694  -10.6449  -47.2427 C.2       0 UNK         0.5000 
      3 O           0.6474  -10.7624  -46.5587 O.2       0 UNK        -0.5000 
      4 N          -1.4790  -11.3647  -47.0261 N.am      1 UNK        -0.5000 
      5 CA         -1.6256  -12.4339  -46.0266 C.3       1 UNK         0.1400 
      6 C6         -2.9889  -13.1605  -46.1490 C.3       23 UNK        -0.0398 
      7 S7         -3.1664  -14.0496  -47.7347 S.3       23 UNK        -0.2404 
      8 C8         -3.6198  -15.7169  -47.1547 C.3       23 UNK        -0.0205 
      9 C9         -3.5596  -16.7476  -48.2722 C.ar      23 UNK        -0.0193 
     10 C10        -4.7301  -17.3430  -48.7530 C.ar      23 UNK        -0.1150 
     11 C11        -4.6701  -18.3300  -49.7417 C.ar      23 UNK        -0.0193 
     12 C12        -3.4283  -18.7125  -50.2546 C.ar      23 UNK        -0.1150 
     13 C13        -2.2553  -18.1034  -49.8064 C.ar      23 UNK        -0.0193 
     14 C14        -2.3254  -17.1307  -48.8058 C.ar      23 UNK        -0.1150 
     15 C15        -0.9197  -18.4732  -50.4325 C.3       23 UNK        -0.0205 
     16 S16        -0.4670  -20.2163  -50.1589 S.3       23 UNK        -0.2404 
     17 C17        -0.1945  -20.2153  -48.3563 C.3       23 UNK        -0.0398 
     18 CA         -0.8408  -21.4083  -47.6161 C.3       11 UNK         0.1400 
     19 N          -0.3215  -21.4984  -46.2486 N.am      11 UNK        -0.5000 
     20 C          -0.5559  -22.4994  -45.3904 C.2       10 UNK         0.5000 
     21 O          -1.2002  -23.5074  -45.6719 O.2       10 UNK        -0.5000 
     22 CA         -0.0266  -22.3126  -43.9580 C.3       10 UNK         0.1400 
     23 CB          1.4554  -22.7039  -43.8572 C.3       10 UNK        -0.1800 
     24 N          -0.2111  -20.9384  -43.4897 N.am      10 UNK        -0.5000 
     25 C          -1.4040  -20.3997  -43.1985 C.2       9 UNK         0.5000 
     26 O          -2.4630  -21.0247  -43.2428 O.2       9 UNK        -0.5000 
     27 CA         -1.4222  -18.9013  -42.8444 C.3       9 UNK         0.1400 
     28 CB         -1.1187  -18.6955  -41.3537 C.3       9 UNK        -0.1800 
     29 N          -0.4881  -18.1201  -43.6607 N.am      9 UNK        -0.5000 
     30 C          -0.6364  -17.9451  -44.9827 C.2       8 UNK         0.5000 
     31 O          -1.5934  -18.3828  -45.6170 O.2       8 UNK        -0.5000 
     32 CA          0.4789  -17.2141  -45.7481 C.3       8 UNK         0.1400 
     33 CB          0.1915  -15.7134  -45.8520 C.3       8 UNK        -0.1800 
     34 N           1.8125  -17.4229  -45.1928 N.am      8 UNK        -0.5000 
     35 C           2.4513  -18.6002  -45.1731 C.2       7 UNK         0.5000 
     36 O           1.9357  -19.6565  -45.5423 O.2       7 UNK        -0.5000 
     37 CA          3.8973  -18.5963  -44.6536 C.3       7 UNK         0.1400 
     38 CB          4.8620  -18.1786  -45.7738 C.3       7 UNK        -0.1800 
     39 N           4.0460  -17.6747  -43.5278 N.am      7 UNK        -0.5000 
     40 C           4.1982  -18.0465  -42.2504 C.2       6 UNK         0.5000 
     41 O           4.3154  -19.2170  -41.8853 O.2       6 UNK        -0.5000 
     42 CA          4.2056  -16.9245  -41.1903 C.3       6 UNK         0.1400 
     43 CB          5.6442  -16.4686  -40.9030 C.3       6 UNK        -0.1800 
     44 N           3.3971  -15.7540  -41.5440 N.am      6 UNK        -0.5000 
     45 C           2.0785  -15.7727  -41.7822 C.2       5 UNK         0.5000 
     46 O           1.3894  -16.7910  -41.7393 O.2       5 UNK        -0.5000 
     47 CA          1.4179  -14.4424  -42.1846 C.3       5 UNK         0.1400 
     48 CB          1.0128  -13.6489  -40.9334 C.3       5 UNK        -0.1800 
     49 N           2.1951  -13.5663  -43.0708 N.am      5 UNK        -0.5000 
     50 C           2.9035  -13.8962  -44.1614 C.2       4 UNK         0.5000 
     51 O           3.1382  -15.0578  -44.4989 O.2       4 UNK        -0.5000 
     52 CA          3.4232  -12.7406  -45.0418 C.3       4 UNK         0.1400 
     53 CB          3.2441  -13.0523  -46.5379 C.3       4 UNK        -0.1800 
     54 N           2.7647  -11.4634  -44.7592 N.am      4 UNK        -0.5000 
     55 C           3.1656  -10.5639  -43.8527 C.2       3 UNK         0.5000 
     56 O           4.1296  -10.7285  -43.1053 O.2       3 UNK        -0.5000 
     57 CA          2.3287   -9.2797  -43.7491 C.3       3 UNK         0.1400 
     58 CB          2.6916   -8.3045  -44.8802 C.3       3 UNK        -0.1800 
     59 N           0.8959   -9.5709  -43.8064 N.am      3 UNK        -0.5000 
     60 C           0.1236   -9.8010  -42.7358 C.2       2 UNK         0.5000 
     61 O           0.5455   -9.8062  -41.5792 O.2       2 UNK        -0.5000 
     62 CA         -1.3751  -10.0582  -42.9916 C.3       2 UNK         0.1400 
     63 CB         -2.1665   -8.7448  -42.8969 C.3       2 UNK        -0.1800 
     64 N          -1.6358  -10.6772  -44.2918 N.am      2 UNK        -0.5000 
     65 C          -1.3980  -11.9657  -44.5723 C.2       1 UNK         0.5000 
     66 O          -0.9982  -12.7766  -43.7389 O.2       1 UNK        -0.5000 
     67 C          -2.3879  -21.3658  -47.6471 C.2       11 UNK         0.5000 
     68 O          -2.9980  -22.0659  -48.4544 O.2       11 UNK        -0.5000 
     69 N          -2.9942  -20.5932  -46.7341 N.am      12 UNK        -0.5000 
     70 CA         -4.4430  -20.5045  -46.5495 C.3       12 UNK         0.1400 
     71 CB         -4.7660  -19.3262  -45.6179 C.3       12 UNK        -0.1800 
     72 C          -5.0670  -21.8028  -46.0027 C.2       12 UNK         0.5000 
     73 O          -6.1869  -22.1410  -46.3866 O.2       12 UNK        -0.5000 
     74 N          -4.3447  -22.4979  -45.1122 N.am      13 UNK        -0.5000 
     75 CA         -4.7579  -23.7735  -44.5222 C.3       13 UNK         0.1400 
     76 CB         -3.9209  -24.0418  -43.2621 C.3       13 UNK        -0.1800 
     77 C          -4.6551  -24.9605  -45.5004 C.2       13 UNK         0.5000 
     78 O          -5.3914  -25.9363  -45.3446 O.2       13 UNK        -0.5000 
     79 N          -3.7426  -24.8662  -46.4754 N.am      14 UNK        -0.5000 
     80 CA         -3.5322  -25.8434  -47.5418 C.3       14 UNK         0.1400 
     81 CB         -2.1791  -25.5505  -48.2125 C.3       14 UNK        -0.1800 
     82 C          -4.6753  -25.8595  -48.5789 C.2       14 UNK         0.5000 
     83 O          -5.5803  -25.0224  -48.5401 O.2       14 UNK        -0.5000 
     84 N          -4.5973  -26.8133  -49.5112 N.am      15 UNK        -0.5000 
     85 CA         -5.5163  -26.9770  -50.6317 C.3       15 UNK         0.1400 
     86 CB         -6.6190  -27.9763  -50.2404 C.3       15 UNK        -0.1800 
     87 C          -4.7323  -27.4627  -51.8598 C.2       15 UNK         0.5000 
     88 O          -3.5832  -27.8946  -51.7258 O.2       15 UNK        -0.5000 
     89 N          -5.3810  -27.3959  -53.0302 N.am      16 UNK        -0.5000 
     90 CA         -4.8700  -27.8043  -54.3427 C.3       16 UNK         0.1400 
     91 CB         -4.7172  -29.3415  -54.4078 C.3       16 UNK        -0.1800 
     92 C          -3.5984  -27.0216  -54.7370 C.2       16 UNK         0.5000 
     93 O          -3.5600  -25.8041  -54.5478 O.2       16 UNK        -0.5000 
     94 N          -2.5824  -27.7174  -55.2669 N.am      17 UNK        -0.5000 
     95 CA         -1.3140  -27.1534  -55.7397 C.3       17 UNK         0.1400 
     96 CB         -0.4651  -28.2764  -56.3540 C.3       17 UNK        -0.1800 
     97 C          -0.5101  -26.4024  -54.6597 C.2       17 UNK         0.5000 
     98 O           0.2138  -25.4625  -54.9873 O.2       17 UNK        -0.5000 
     99 N          -0.6780  -26.7980  -53.3910 N.am      18 UNK        -0.5000 
    100 CA        -0.0599  -26.1525  -52.2319 C.3       18 UNK         0.1400 
    101 CB        -0.0916  -27.1291  -51.0468 C.3       18 UNK        -0.1800 
    102 C         -0.7019  -24.7978  -51.8614 C.2       18 UNK         0.5000 
    103 O         -0.1024  -24.0485  -51.0907 O.2       18 UNK        -0.5000 
    104 N         -1.8843  -24.4994  -52.4173 N.am      19 UNK        -0.5000 
    105 CA        -2.6184  -23.2472  -52.2339 C.3       19 UNK         0.1400 
    106 CB        -3.9698  -23.5584  -51.5728 C.3       19 UNK        -0.1800 
    107 C         -2.8069  -22.5004  -53.5686 C.2       19 UNK         0.5000 
    108 O         -3.6440  -21.6019  -53.6444 O.2       19 UNK        -0.5000 
    109 N         -2.0327  -22.8551  -54.6062 N.am      20 UNK        -0.5000 
    110 CA        -2.1386  -22.2961  -55.9612 C.3       20 UNK         0.1400 
    111 CB        -1.2066  -23.0750  -56.9007 C.3       20 UNK        -0.1800 
    112 C         -1.8567  -20.7816  -56.0591 C.2       20 UNK         0.5000 
    113 O         -2.2836  -20.1460  -57.0232 O.2       20 UNK        -0.5000 
    114 N         -1.1569  -20.2320  -55.0591 N.am      21 UNK        -0.5000 
    115 CA        -0.8412  -18.8112  -54.9256 C.3       21 UNK         0.1400 
    116 CB         0.4385  -18.6783  -54.0820 C.3       21 UNK        -0.1800 
    117 C         -1.9974  -17.9560  -54.3564 C.2       21 UNK         0.5000 
    118 O         -1.8337  -16.7385  -54.2638 O.2       21 UNK        -0.5000 
    119 N         -3.1282  -18.5743  -53.9782 N.am      22 UNK        -0.5000 
    120 CA        -4.3491  -17.8851  -53.5200 C.3       22 UNK         0.1400 
    121 C         -4.9472  -16.9240  -54.5891 C.2       22 UNK         0.5000 
    122 N         -5.3992  -15.7421  -54.1923 N.am      22 UNK        -0.7600 
    123 O         -5.0386  -17.2578  -55.7685 O.2       22 UNK        -0.5000 
    124 C124       -5.4191  -18.8990  -53.0320 C.3       23 UNK        -0.0398 
    125 S125       -6.5522  -18.2064  -51.7770 S.3       23 UNK        -0.2404 
    126 C126       -5.9440  -18.9895  -50.2472 C.3       23 UNK        -0.0205 
    127 H127       -1.3708   -9.6193  -48.8802 H         1 UNK         0.0600 
    128 H128        0.3639   -9.8619  -49.1094 H         1 UNK         0.0600 
    129 H129       -0.2143   -8.6287  -47.9843 H         1 UNK         0.0600 
    130 H130       -2.2788  -11.2253  -47.6274 H         1 UNK         0.3000 
    131 H131       -0.8349  -13.1553  -46.2345 H         1 UNK         0.0600 
    132 H132       -3.1150  -13.8739  -45.3321 H         1 UNK         0.0800 
    133 H133       -3.8121  -12.4502  -46.0554 H         1 UNK         0.0800 
    134 H134       -4.6203  -15.6787  -46.7212 H         1 UNK         0.0800 
    135 H135       -2.9557  -16.0346  -46.3512 H         1 UNK         0.0800 
    136 H136       -5.6879  -17.0495  -48.3474 H         1 UNK         0.1150 
    137 H137       -3.3667  -19.4789  -51.0131 H         1 UNK         0.1150 
    138 H138       -1.4214  -16.6626  -48.4446 H         1 UNK         0.1150 
    139 H139       -0.9860  -18.2840  -51.5026 H         1 UNK         0.0800 
    140 H140       -0.1198  -17.8320  -50.0589 H         1 UNK         0.0800 
    141 H141       -0.5498  -19.2793  -47.9294 H         1 UNK         0.0800 
    142 H142        0.8852  -20.2237  -48.1994 H         1 UNK         0.0800 
    143 H143       -0.5347  -22.3239  -48.1274 H         1 UNK         0.0600 
    144 H144        0.2652  -20.7322  -45.9353 H         1 UNK         0.3000 
    145 H145       -0.5945  -22.9759  -43.3023 H         1 UNK         0.0600 
    146 H146        1.8191  -22.6100  -42.8339 H         1 UNK         0.0600 
    147 H147        1.6034  -23.7409  -44.1609 H         1 UNK         0.0600 
    148 H148        2.0860  -22.0844  -44.4948 H         1 UNK         0.0600 
    149 H149        0.6066  -20.3462  -43.4761 H         1 UNK         0.3000 
    150 H150       -2.4306  -18.5286  -43.0367 H         1 UNK         0.0600 
    151 H151       -1.8203  -19.2526  -40.7316 H         1 UNK         0.0600 
    152 H152       -1.2027  -17.6446  -41.0764 H         1 UNK         0.0600 
    153 H153       -0.1132  -19.0312  -41.0971 H         1 UNK         0.0600 
    154 H154        0.3140  -17.7214  -43.1832 H         1 UNK         0.3000 
    155 H155        0.4931  -17.6100  -46.7642 H         1 UNK         0.0600 
    156 H156        0.1123  -15.2450  -44.8729 H         1 UNK         0.0600 
    157 H157        0.9731  -15.2014  -46.4119 H         1 UNK         0.0600 
    158 H158       -0.7437  -15.5355  -46.3780 H         1 UNK         0.0600 
    159 H159        2.3099  -16.5872  -44.8937 H         1 UNK         0.3000 
    160 H160        4.1446  -19.6174  -44.3560 H         1 UNK         0.0600 
    161 H161        4.7711  -18.8411  -46.6356 H         1 UNK         0.0600 
    162 H162        4.6666  -17.1615  -46.1171 H         1 UNK         0.0600 
    163 H163        5.8975  -18.2238  -45.4363 H         1 UNK         0.0600 
    164 H164        3.9203  -16.6882  -43.7323 H         1 UNK         0.3000 
    165 H165        3.7900  -17.3438  -40.2718 H         1 UNK         0.0600 
    166 H166        5.6743  -15.7454  -40.0879 H         1 UNK         0.0600 
    167 H167        6.2709  -17.3121  -40.6104 H         1 UNK         0.0600 
    168 H168        6.1018  -16.0079  -41.7795 H         1 UNK         0.0600 
    169 H169        3.8846  -14.8745  -41.6313 H         1 UNK         0.3000 
    170 H170        0.5029  -14.7014  -42.7163 H         1 UNK         0.0600 
    171 H171        0.4184  -14.2619  -40.2545 H         1 UNK         0.0600 
    172 H172        1.8846  -13.2951  -40.3818 H         1 UNK         0.0600 
    173 H173        0.4074  -12.7812  -41.1968 H         1 UNK         0.0600 
    174 H174        2.0778  -12.5783  -42.9034 H         1 UNK         0.3000 
    175 H175        4.4930  -12.6487  -44.8448 H         1 UNK         0.0600 
    176 H176        2.1916  -13.1608  -46.8012 H         1 UNK         0.0600 
    177 H177        3.6592  -12.2561  -47.1560 H         1 UNK         0.0600 
    178 H178        3.7531  -13.9754  -46.8179 H         1 UNK         0.0600 
    179 H179        1.9626  -11.2389  -45.3446 H         1 UNK         0.3000 
    180 H180        2.5696   -8.7951  -42.8004 H         1 UNK         0.0600 
    181 H181        2.4706   -8.7219  -45.8634 H         1 UNK         0.0600 
    182 H182        3.7544   -8.0601  -44.8585 H         1 UNK         0.0600 
    183 H183        2.1411   -7.3687  -44.7833 H         1 UNK         0.0600 
    184 H184        0.4915   -9.6595  -44.7299 H         1 UNK         0.3000 
    185 H185       -1.7346  -10.7282  -42.2074 H         1 UNK         0.0600 
    186 H186       -3.2367   -8.9204  -43.0077 H         1 UNK         0.0600 
    187 H187       -2.0155   -8.2669  -41.9280 H         1 UNK         0.0600 
    188 H188       -1.8607   -8.0333  -43.6650 H         1 UNK         0.0600 
    189 H189       -1.9683  -10.0744  -45.0303 H         1 UNK         0.3000 
    190 H190       -2.4287  -19.9768  -46.1563 H         1 UNK         0.3000 
    191 H191       -4.8921  -20.3032  -47.5239 H         1 UNK         0.0600 
    192 H192       -4.3450  -19.4732  -44.6230 H         1 UNK         0.0600 
    193 H193       -5.8434  -19.2008  -45.5056 H         1 UNK         0.0600 
    194 H194       -4.3689  -18.3912  -46.0099 H         1 UNK         0.0600 
    195 H195       -3.4626  -22.1140  -44.7939 H         1 UNK         0.3000 
    196 H196       -5.8036  -23.6874  -44.2196 H         1 UNK         0.0600 
    197 H197       -4.2230  -24.9738  -42.7827 H         1 UNK         0.0600 
    198 H198       -4.0449  -23.2447  -42.5289 H         1 UNK         0.0600 
    199 H199       -2.8588  -24.1214  -43.4949 H         1 UNK         0.0600 
    200 H200       -3.1567  -24.0411  -46.5020 H         1 UNK         0.3000 
    201 H201       -3.4835  -26.8344  -47.0862 H         1 UNK         0.0600 
    202 H202       -1.3675  -25.5502  -47.4850 H         1 UNK         0.0600 
    203 H203       -2.1765  -24.5842  -48.7170 H         1 UNK         0.0600 
    204 H204       -1.9373  -26.3069  -48.9566 H         1 UNK         0.0600 
    205 H205       -3.7926  -27.4260  -49.5460 H         1 UNK         0.3000 
    206 H206       -5.9689  -26.0162  -50.8862 H         1 UNK         0.0600 
    207 H207       -7.1768  -27.6260  -49.3716 H         1 UNK         0.0600 
    208 H208       -7.3361  -28.1129  -51.0505 H         1 UNK         0.0600 
    209 H209       -6.2045  -28.9559  -49.9987 H         1 UNK         0.0600 
    210 H210       -6.3094  -26.9978  -53.0388 H         1 UNK         0.3000 
    211 H211       -5.6322  -27.5191  -55.0690 H         1 UNK         0.0600 
    212 H212       -5.6431  -29.8360  -54.1137 H         1 UNK         0.0600 
    213 H213       -3.9280  -29.7048  -53.7484 H         1 UNK         0.0600 
    214 H214       -4.4894  -29.6763  -55.4205 H         1 UNK         0.0600 
    215 H215       -2.6934  -28.7155  -55.3714 H         1 UNK         0.3000 
    216 H216       -1.5503  -26.4376  -56.5284 H         1 UNK         0.0600 
    217 H217        0.4771  -27.8867  -56.7419 H         1 UNK         0.0600 
    218 H218       -0.9835  -28.7542  -57.1856 H         1 UNK         0.0600 
    219 H219       -0.2246  -29.0463  -55.6197 H         1 UNK         0.0600 
    220 H220       -1.3216  -27.5535  -53.1987 H         1 UNK         0.3000 
    221 H221        0.9871  -25.9513  -52.4685 H         1 UNK         0.0600 
    222 H222       -1.1083  -27.4417  -50.8117 H         1 UNK         0.0600 
    223 H223        0.4895  -28.0257  -51.2629 H         1 UNK         0.0600 
    224 H224        0.3336  -26.6766  -50.1499 H         1 UNK         0.0600 
    225 H225       -2.3093  -25.1597  -53.0608 H         1 UNK         0.3000 
    226 H226       -2.0704  -22.5709  -51.5750 H         1 UNK         0.0600 
    227 H227       -3.8221  -24.0502  -50.6136 H         1 UNK         0.0600 
    228 H228       -4.5358  -22.6468  -51.3768 H         1 UNK         0.0600 
    229 H229       -4.5849  -24.2062  -52.1981 H         1 UNK         0.0600 
    230 H230       -1.3570  -23.5949  -54.4742 H         1 UNK         0.3000 
    231 H231       -3.1654  -22.4504  -56.2990 H         1 UNK         0.0600 
    232 H232       -1.2510  -22.6805  -57.9168 H         1 UNK         0.0600 
    233 H233       -1.4913  -24.1247  -56.9521 H         1 UNK         0.0600 
    234 H234       -0.1681  -23.0222  -56.5717 H         1 UNK         0.0600 
    235 H235       -0.8519  -20.8349  -54.3095 H         1 UNK         0.3000 
    236 H236       -0.6233  -18.4085  -55.9170 H         1 UNK         0.0600 
    237 H237        1.2931  -19.1082  -54.6046 H         1 UNK         0.0600 
    238 H238        0.6794  -17.6341  -53.8790 H         1 UNK         0.0600 
    239 H239        0.3489  -19.1913  -53.1251 H         1 UNK         0.0600 
    240 H240       -3.1957  -19.5799  -54.0830 H         1 UNK         0.3000 
    241 H241       -4.0384  -17.2800  -52.6661 H         1 UNK         0.0600 
    242 H242       -5.8014  -15.1158  -54.8723 H         1 UNK         0.3800 
    243 H243       -5.3569  -15.4619  -53.2246 H         1 UNK         0.3800 
    244 H244       -6.0047  -19.2893  -53.8664 H         1 UNK         0.0800 
    245 H245       -4.9447  -19.7719  -52.5907 H         1 UNK         0.0800 
    246 H246       -5.7800  -20.0566  -50.4068 H         1 UNK         0.0800 
    247 H247       -6.7233  -18.9181  -49.4870 H         1 UNK         0.0800 
@<TRIPOS>BOND
     1    1    2 1    
     2    1  127 1    
     3    1  128 1    
     4    1  129 1    
     5    2    3 2    
     6    2    4 am   BACKBONE|DICT|INTERRES
     7    4    5 1    
     8    4  130 1    
     9    5    6 1    
    10    5   65 1    
    11    5  131 1    
    12    6    7 1    
    13    6  132 1    
    14    6  133 1    
    15    7    8 1    
    16    8    9 1    
    17    8  134 1    
    18    8  135 1    
    19    9   10 ar   
    20    9   14 ar   
    21   10   11 ar   
    22   10  136 1    
    23   11   12 ar   
    24   11  126 1    
    25   12   13 ar   
    26   12  137 1    
    27   13   14 ar   
    28   13   15 1    
    29   14  138 1    
    30   15   16 1    
    31   15  139 1    
    32   15  140 1    
    33   16   17 1    
    34   17   18 1    
    35   17  141 1    
    36   17  142 1    
    37   18   19 1    
    38   18   67 1    
    39   18  143 1    
    40   19   20 am   BACKBONE|DICT|INTERRES
    41   19  144 1    
    42   20   21 2    
    43   20   22 1    
    44   22   23 1    
    45   22   24 1    
    46   22  145 1    
    47   23  146 1    
    48   23  147 1    
    49   23  148 1    
    50   24   25 am   BACKBONE|DICT|INTERRES
    51   24  149 1    
    52   25   26 2    
    53   25   27 1    
    54   27   28 1    
    55   27   29 1    
    56   27  150 1    
    57   28  151 1    
    58   28  152 1    
    59   28  153 1    
    60   29   30 am   BACKBONE|DICT|INTERRES
    61   29  154 1    
    62   30   31 2    
    63   30   32 1    
    64   32   33 1    
    65   32   34 1    
    66   32  155 1    
    67   33  156 1    
    68   33  157 1    
    69   33  158 1    
    70   34   35 am   BACKBONE|DICT|INTERRES
    71   34  159 1    
    72   35   36 2    
    73   35   37 1    
    74   37   38 1    
    75   37   39 1    
    76   37  160 1    
    77   38  161 1    
    78   38  162 1    
    79   38  163 1    
    80   39   40 am   BACKBONE|DICT|INTERRES
    81   39  164 1    
    82   40   41 2    
    83   40   42 1    
    84   42   43 1    
    85   42   44 1    
    86   42  165 1    
    87   43  166 1    
    88   43  167 1    
    89   43  168 1    
    90   44   45 am   BACKBONE|DICT|INTERRES
    91   44  169 1    
    92   45   46 2    
    93   45   47 1    
    94   47   48 1    
    95   47   49 1    
    96   47  170 1    
    97   48  171 1    
    98   48  172 1    
    99   48  173 1    
   100   49   50 am   BACKBONE|DICT|INTERRES
   101   49  174 1    
   102   50   51 2    
   103   50   52 1    
   104   52   53 1    
   105   52   54 1    
   106   52  175 1    
   107   53  176 1    
   108   53  177 1    
   109   53  178 1    
   110   54   55 am   BACKBONE|DICT|INTERRES
   111   54  179 1    
   112   55   56 2    
   113   55   57 1    
   114   57   58 1    
   115   57   59 1    
   116   57  180 1    
   117   58  181 1    
   118   58  182 1    
   119   58  183 1    
   120   59   60 am   BACKBONE|DICT|INTERRES
   121   59  184 1    
   122   60   61 2    
   123   60   62 1    
   124   62   63 1    
   125   62   64 1    
   126   62  185 1    
   127   63  186 1    
   128   63  187 1    
   129   63  188 1    
   130   64   65 am   BACKBONE|DICT|INTERRES
   131   64  189 1    
   132   65   66 2    
   133   67   68 2    
   134   67   69 am   BACKBONE|DICT|INTERRES
   135   69   70 1    
   136   69  190 1    
   137   70   71 1    
   138   70   72 1    
   139   70  191 1    
   140   71  192 1    
   141   71  193 1    
   142   71  194 1    
   143   72   73 2    
   144   72   74 am   BACKBONE|DICT|INTERRES
   145   74   75 1    
   146   74  195 1    
   147   75   76 1    
   148   75   77 1    
   149   75  196 1    
   150   76  197 1    
   151   76  198 1    
   152   76  199 1    
   153   77   78 2    
   154   77   79 am   BACKBONE|DICT|INTERRES
   155   79   80 1    
   156   79  200 1    
   157   80   81 1    
   158   80   82 1    
   159   80  201 1    
   160   81  202 1    
   161   81  203 1    
   162   81  204 1    
   163   82   83 2    
   164   82   84 am   BACKBONE|DICT|INTERRES
   165   84   85 1    
   166   84  205 1    
   167   85   86 1    
   168   85   87 1    
   169   85  206 1    
   170   86  207 1    
   171   86  208 1    
   172   86  209 1    
   173   87   88 2    
   174   87   89 am   BACKBONE|DICT|INTERRES
   175   89   90 1    
   176   89  210 1    
   177   90   91 1    
   178   90   92 1    
   179   90  211 1    
   180   91  212 1    
   181   91  213 1    
   182   91  214 1    
   183   92   93 2    
   184   92   94 am   BACKBONE|DICT|INTERRES
   185   94   95 1    
   186   94  215 1    
   187   95   96 1    
   188   95   97 1    
   189   95  216 1    
   190   96  217 1    
   191   96  218 1    
   192   96  219 1    
   193   97   98 2    
   194   97   99 am   BACKBONE|DICT|INTERRES
   195   99  100 1    
   196   99  220 1    
   197  100  101 1    
   198  100  102 1    
   199  100  221 1    
   200  101  222 1    
   201  101  223 1    
   202  101  224 1    
   203  102  103 2    
   204  102  104 am   BACKBONE|DICT|INTERRES
   205  104  105 1    
   206  104  225 1    
   207  105  106 1    
   208  105  107 1    
   209  105  226 1    
   210  106  227 1    
   211  106  228 1    
   212  106  229 1    
   213  107  108 2    
   214  107  109 am   BACKBONE|DICT|INTERRES
   215  109  110 1    
   216  109  230 1    
   217  110  111 1    
   218  110  112 1    
   219  110  231 1    
   220  111  232 1    
   221  111  233 1    
   222  111  234 1    
   223  112  113 2    
   224  112  114 am   BACKBONE|DICT|INTERRES
   225  114  115 1    
   226  114  235 1    
   227  115  116 1    
   228  115  117 1    
   229  115  236 1    
   230  116  237 1    
   231  116  238 1    
   232  116  239 1    
   233  117  118 2    
   234  117  119 am   BACKBONE|DICT|INTERRES
   235  119  120 1    
   236  119  240 1    
   237  120  121 1    
   238  120  124 1    
   239  120  241 1    
   240  121  122 am   BACKBONE|DICT|INTERRES
   241  121  123 2    
   242  122  242 1    
   243  122  243 1    
   244  124  125 1    
   245  124  244 1    
   246  124  245 1    
   247  125  126 1    
   248  126  246 1    
   249  126  247 1    
@<TRIPOS>SUBSTRUCTURE
     1 UNK         1 GROUP             0       ****    0 ROOT    
